37
Fragment
H -13.791200 -7.842000 -28.682600
N -13.350700 -9.801300 -28.376600
N -13.282600 -8.552300 -28.954800
H -12.884100 -12.331000 -28.567900
H -12.583400 -6.714000 -30.476600
C -12.437600 -10.503500 -29.013700
C -12.344500 -8.479200 -29.913900
H -12.179200 -13.675300 -26.765200
N -12.159600 -11.845500 -28.635200
N -12.068300 -7.322300 -30.564500
C -11.764200 -9.743400 -30.002700
H -11.664000 -7.375300 -31.327100
C -11.485400 -13.042800 -26.616300
C -11.303000 -11.989400 -27.498000
H -10.773700 -13.893900 -24.910600
C -10.660600 -10.082600 -30.899200
C -10.647900 -13.169600 -25.512700
H -10.635900 -11.864200 -30.299100
C -10.267700 -11.090100 -27.275100
N -10.200300 -11.361600 -30.794300
O -10.176500 -9.245400 -31.666200
H -10.123100 -10.375900 -27.886200
C -9.640500 -12.262500 -25.279400
H -9.543100 -13.816900 -30.721100
C -9.446300 -11.227000 -26.170500
C -9.111200 -11.963000 -31.449800
H -9.084500 -12.347300 -24.514600
C -8.940300 -13.336900 -31.275600
H -8.744300 -10.603900 -26.025100
H -8.281700 -10.323800 -32.344200
C -8.196400 -11.263600 -32.235100
C -7.907100 -14.009100 -31.897700
H -7.799200 -14.945000 -31.772900
C -7.163700 -11.944300 -32.856200
C -7.031700 -13.305800 -32.703600
H -6.540600 -11.467400 -33.391600
Cl -5.755600 -14.141000 -33.550900
9
Fragment
O -14.104500 -17.787700 -25.695300
H -13.888500 -17.761300 -26.499000
H -13.162600 -17.741800 -23.930300
C -12.914700 -17.671000 -24.884900
H -12.827200 -15.626500 -24.973400
H -12.301300 -18.418700 -25.096700
C -12.203600 -16.369500 -25.115100
H -11.864500 -16.339900 -26.033800
H -11.454400 -16.290900 -24.488600
46
Fragment
H -13.791200 -7.842000 -28.682600
N -13.350700 -9.801300 -28.376600
N -13.282600 -8.552300 -28.954800
H -12.884100 -12.331000 -28.567900
H -12.583400 -6.714000 -30.476600
C -12.437600 -10.503500 -29.013700
C -12.344500 -8.479200 -29.913900
H -12.179200 -13.675300 -26.765200
N -12.159600 -11.845500 -28.635200
N -12.068300 -7.322300 -30.564500
C -11.764200 -9.743400 -30.002700
H -11.664000 -7.375300 -31.327100
C -11.485400 -13.042800 -26.616300
C -11.303000 -11.989400 -27.498000
H -10.773700 -13.893900 -24.910600
C -10.660600 -10.082600 -30.899200
C -10.647900 -13.169600 -25.512700
H -10.635900 -11.864200 -30.299100
C -10.267700 -11.090100 -27.275100
N -10.200300 -11.361600 -30.794300
O -10.176500 -9.245400 -31.666200
H -10.123100 -10.375900 -27.886200
C -9.640500 -12.262500 -25.279400
H -9.543100 -13.816900 -30.721100
C -9.446300 -11.227000 -26.170500
C -9.111200 -11.963000 -31.449800
H -9.084500 -12.347300 -24.514600
C -8.940300 -13.336900 -31.275600
H -8.744300 -10.603900 -26.025100
H -8.281700 -10.323800 -32.344200
C -8.196400 -11.263600 -32.235100
C -7.907100 -14.009100 -31.897700
H -7.799200 -14.945000 -31.772900
C -7.163700 -11.944300 -32.856200
C -7.031700 -13.305800 -32.703600
H -6.540600 -11.467400 -33.391600
Cl -5.755600 -14.141000 -33.550900
O -14.104500 -17.787700 -25.695300
H -13.888500 -17.761300 -26.499000
H -13.162600 -17.741800 -23.930300
C -12.914700 -17.671000 -24.884900
H -12.827200 -15.626500 -24.973400
H -12.301300 -18.418700 -25.096700
C -12.203600 -16.369500 -25.115100
H -11.864500 -16.339900 -26.033800
H -11.454400 -16.290900 -24.488600
