29
Fragment
H -8.433600 -3.291900 -16.447200
H -7.776100 -4.601800 -14.666200
C -7.770500 -3.934000 -16.559400
H -7.442900 -3.576500 -18.519500
C -7.377800 -4.712100 -15.500000
C -7.166300 -4.113300 -17.812300
C -6.376600 -5.672200 -15.677300
H -6.226900 -5.054400 -20.086200
C -6.184500 -5.046200 -18.041400
N -6.003100 -6.437100 -14.603800
H -5.930500 -7.289900 -19.502400
C -5.778700 -5.846400 -16.950900
C -5.578300 -5.270000 -19.397600
O -5.206800 -8.161900 -12.555400
C -5.149000 -6.716400 -19.533100
C -5.042400 -7.300600 -14.776400
H -4.810000 -4.688600 -19.513100
N -4.800200 -6.814000 -17.094100
H -4.714500 -6.846400 -20.390900
C -4.642100 -8.157000 -13.626300
C -4.350700 -7.518600 -16.025200
C -4.203200 -7.098300 -18.429700
H -3.993800 -8.043400 -18.495200
N -3.564400 -8.948500 -13.892400
H -3.376500 -6.600000 -18.526200
N -3.338900 -8.347200 -16.184700
H -3.257800 -9.423300 -13.245200
C -2.919900 -9.055200 -15.113000
O -1.942600 -9.820700 -15.195700
29
Fragment
O -10.917200 2.795400 -25.251700
C -9.939900 2.029900 -25.334300
H -9.602000 2.398000 -27.202200
N -9.521000 1.322000 -24.262600
H -9.483400 -0.425300 -21.921100
N -9.295400 1.923200 -26.554900
H -8.866000 1.018100 -21.952100
C -8.656600 0.073000 -22.017600
C -8.509100 0.493300 -24.422100
C -8.217700 1.131700 -26.821000
H -8.145300 -0.178900 -20.056500
N -8.059600 -0.211300 -23.353200
H -8.049800 -2.336700 -20.934200
C -7.817400 0.275300 -25.671000
C -7.710800 -0.308900 -20.914200
O -7.653000 1.136600 -27.891900
C -7.281600 -1.755300 -21.049700
C -7.081200 -1.178900 -23.496400
H -6.929300 0.264600 -20.945000
N -6.856700 -0.588100 -25.843600
C -6.675300 -1.979100 -22.405900
H -6.632900 -1.970900 -20.361200
C -6.483200 -1.353100 -24.770100
C -5.693500 -2.912000 -22.635000
C -5.482000 -2.313200 -24.947400
H -5.416900 -3.448700 -21.927900
C -5.089400 -3.091300 -23.887900
H -5.083700 -2.423500 -25.781100
H -4.426200 -3.733400 -24.000100
58
Fragment
H -8.433600 -3.291900 -16.447200
H -7.776100 -4.601800 -14.666200
C -7.770500 -3.934000 -16.559400
H -7.442900 -3.576500 -18.519500
C -7.377800 -4.712100 -15.500000
C -7.166300 -4.113300 -17.812300
C -6.376600 -5.672200 -15.677300
H -6.226900 -5.054400 -20.086200
C -6.184500 -5.046200 -18.041400
N -6.003100 -6.437100 -14.603800
H -5.930500 -7.289900 -19.502400
C -5.778700 -5.846400 -16.950900
C -5.578300 -5.270000 -19.397600
O -5.206800 -8.161900 -12.555400
C -5.149000 -6.716400 -19.533100
C -5.042400 -7.300600 -14.776400
H -4.810000 -4.688600 -19.513100
N -4.800200 -6.814000 -17.094100
H -4.714500 -6.846400 -20.390900
C -4.642100 -8.157000 -13.626300
C -4.350700 -7.518600 -16.025200
C -4.203200 -7.098300 -18.429700
H -3.993800 -8.043400 -18.495200
N -3.564400 -8.948500 -13.892400
H -3.376500 -6.600000 -18.526200
N -3.338900 -8.347200 -16.184700
H -3.257800 -9.423300 -13.245200
C -2.919900 -9.055200 -15.113000
O -1.942600 -9.820700 -15.195700
O -10.917200 2.795400 -25.251700
C -9.939900 2.029900 -25.334300
H -9.602000 2.398000 -27.202200
N -9.521000 1.322000 -24.262600
H -9.483400 -0.425300 -21.921100
N -9.295400 1.923200 -26.554900
H -8.866000 1.018100 -21.952100
C -8.656600 0.073000 -22.017600
C -8.509100 0.493300 -24.422100
C -8.217700 1.131700 -26.821000
H -8.145300 -0.178900 -20.056500
N -8.059600 -0.211300 -23.353200
H -8.049800 -2.336700 -20.934200
C -7.817400 0.275300 -25.671000
C -7.710800 -0.308900 -20.914200
O -7.653000 1.136600 -27.891900
C -7.281600 -1.755300 -21.049700
C -7.081200 -1.178900 -23.496400
H -6.929300 0.264600 -20.945000
N -6.856700 -0.588100 -25.843600
C -6.675300 -1.979100 -22.405900
H -6.632900 -1.970900 -20.361200
C -6.483200 -1.353100 -24.770100
C -5.693500 -2.912000 -22.635000
C -5.482000 -2.313200 -24.947400
H -5.416900 -3.448700 -21.927900
C -5.089400 -3.091300 -23.887900
H -5.083700 -2.423500 -25.781100
H -4.426200 -3.733400 -24.000100
