31
Fragment
H -24.399500 -7.887000 -20.194100
H -23.801900 -8.788200 -21.373700
H -23.778700 -7.192400 -21.494100
C -23.700700 -7.949400 -20.876500
H -23.099700 -7.777600 -18.316600
C -22.345000 -7.919200 -20.212600
C -22.290900 -7.831900 -18.813700
H -21.846700 -7.497100 -22.869900
H -21.786200 -9.074700 -22.608900
C -21.325700 -8.221800 -22.463800
C -21.183200 -7.972200 -20.989300
C -21.097000 -7.823900 -18.157500
H -21.074700 -7.796400 -17.208000
H -20.437200 -8.256100 -22.877600
C -19.928800 -7.862100 -20.311300
C -19.904400 -7.857400 -18.889400
H -19.060200 -7.907800 -22.953200
H -18.926000 -6.391200 -22.460700
N -18.736000 -7.905800 -18.169400
N -18.696300 -7.742700 -20.959800
C -18.563000 -7.297100 -22.369600
H -17.615700 -7.297100 -22.624400
C -17.613600 -7.947400 -18.842800
C -17.523300 -7.851400 -20.265100
N -16.387700 -7.813800 -20.936300
C -16.346400 -8.003100 -18.066400
O -16.306200 -8.091000 -16.853500
N -15.233800 -7.947400 -18.847400
C -15.222800 -7.829300 -20.237300
H -14.453200 -7.989000 -18.441600
O -14.141800 -7.738700 -20.816500
31
Fragment
O -12.618400 -7.738700 -17.783700
H -12.307000 -7.989000 -20.158600
C -11.537300 -7.829300 -18.362900
N -11.526400 -7.947400 -19.752800
O -10.454000 -8.091000 -21.746700
C -10.413800 -8.003100 -20.533800
N -10.372500 -7.813800 -17.663900
C -9.236900 -7.851400 -18.335100
C -9.146600 -7.947400 -19.757400
H -9.144500 -7.297100 -15.975900
C -8.197200 -7.297100 -16.230600
N -8.063900 -7.742700 -17.640500
N -8.024200 -7.905800 -20.430800
H -7.834200 -6.391200 -16.139500
H -7.700000 -7.907800 -15.647000
C -6.855800 -7.857400 -19.710800
C -6.831400 -7.862100 -18.288900
H -6.323000 -8.256100 -15.722600
H -5.685500 -7.796400 -21.392200
C -5.663200 -7.823900 -20.442700
C -5.577000 -7.972200 -17.611000
C -5.434500 -8.221800 -16.136400
H -4.974000 -9.074700 -15.991300
H -4.913500 -7.497100 -15.730400
C -4.469300 -7.831900 -19.786500
C -4.415200 -7.919200 -18.387600
H -3.660500 -7.777600 -20.283600
C -3.059500 -7.949400 -17.723700
H -2.981500 -7.192400 -17.106100
H -2.958300 -8.788200 -17.226500
H -2.360700 -7.887000 -18.406100
62
Fragment
H -24.399500 -7.887000 -20.194100
H -23.801900 -8.788200 -21.373700
H -23.778700 -7.192400 -21.494100
C -23.700700 -7.949400 -20.876500
H -23.099700 -7.777600 -18.316600
C -22.345000 -7.919200 -20.212600
C -22.290900 -7.831900 -18.813700
H -21.846700 -7.497100 -22.869900
H -21.786200 -9.074700 -22.608900
C -21.325700 -8.221800 -22.463800
C -21.183200 -7.972200 -20.989300
C -21.097000 -7.823900 -18.157500
H -21.074700 -7.796400 -17.208000
H -20.437200 -8.256100 -22.877600
C -19.928800 -7.862100 -20.311300
C -19.904400 -7.857400 -18.889400
H -19.060200 -7.907800 -22.953200
H -18.926000 -6.391200 -22.460700
N -18.736000 -7.905800 -18.169400
N -18.696300 -7.742700 -20.959800
C -18.563000 -7.297100 -22.369600
H -17.615700 -7.297100 -22.624400
C -17.613600 -7.947400 -18.842800
C -17.523300 -7.851400 -20.265100
N -16.387700 -7.813800 -20.936300
C -16.346400 -8.003100 -18.066400
O -16.306200 -8.091000 -16.853500
N -15.233800 -7.947400 -18.847400
C -15.222800 -7.829300 -20.237300
H -14.453200 -7.989000 -18.441600
O -14.141800 -7.738700 -20.816500
O -12.618400 -7.738700 -17.783700
H -12.307000 -7.989000 -20.158600
C -11.537300 -7.829300 -18.362900
N -11.526400 -7.947400 -19.752800
O -10.454000 -8.091000 -21.746700
C -10.413800 -8.003100 -20.533800
N -10.372500 -7.813800 -17.663900
C -9.236900 -7.851400 -18.335100
C -9.146600 -7.947400 -19.757400
H -9.144500 -7.297100 -15.975900
C -8.197200 -7.297100 -16.230600
N -8.063900 -7.742700 -17.640500
N -8.024200 -7.905800 -20.430800
H -7.834200 -6.391200 -16.139500
H -7.700000 -7.907800 -15.647000
C -6.855800 -7.857400 -19.710800
C -6.831400 -7.862100 -18.288900
H -6.323000 -8.256100 -15.722600
H -5.685500 -7.796400 -21.392200
C -5.663200 -7.823900 -20.442700
C -5.577000 -7.972200 -17.611000
C -5.434500 -8.221800 -16.136400
H -4.974000 -9.074700 -15.991300
H -4.913500 -7.497100 -15.730400
C -4.469300 -7.831900 -19.786500
C -4.415200 -7.919200 -18.387600
H -3.660500 -7.777600 -20.283600
C -3.059500 -7.949400 -17.723700
H -2.981500 -7.192400 -17.106100
H -2.958300 -8.788200 -17.226500
H -2.360700 -7.887000 -18.406100
