31
Fragment
H -24.399500 -7.887000 -20.194100
H -23.801900 -8.788200 -21.373700
H -23.778700 -7.192400 -21.494100
C -23.700700 -7.949400 -20.876500
H -23.099700 -7.777600 -18.316600
C -22.345000 -7.919200 -20.212600
C -22.290900 -7.831900 -18.813700
H -21.846700 -7.497100 -22.869900
H -21.786200 -9.074700 -22.608900
C -21.325700 -8.221800 -22.463800
C -21.183200 -7.972200 -20.989300
C -21.097000 -7.823900 -18.157500
H -21.074700 -7.796400 -17.208000
H -20.437200 -8.256100 -22.877600
C -19.928800 -7.862100 -20.311300
C -19.904400 -7.857400 -18.889400
H -19.060200 -7.907800 -22.953200
H -18.926000 -6.391200 -22.460700
N -18.736000 -7.905800 -18.169400
N -18.696300 -7.742700 -20.959800
C -18.563000 -7.297100 -22.369600
H -17.615700 -7.297100 -22.624400
C -17.613600 -7.947400 -18.842800
C -17.523300 -7.851400 -20.265100
N -16.387700 -7.813800 -20.936300
C -16.346400 -8.003100 -18.066400
O -16.306200 -8.091000 -16.853500
N -15.233800 -7.947400 -18.847400
C -15.222800 -7.829300 -20.237300
H -14.453200 -7.989000 -18.441600
O -14.141800 -7.738700 -20.816500
31
Fragment
H -32.101800 -8.889500 -27.914100
H -31.504200 -7.988300 -29.093800
H -31.481000 -9.584100 -29.214200
C -31.403100 -8.827100 -28.596600
H -30.802100 -8.998900 -26.036600
C -30.047300 -8.857300 -27.932700
C -29.993200 -8.944600 -26.533800
H -29.549100 -9.279400 -30.589900
H -29.488500 -7.701800 -30.329000
C -29.028100 -8.554700 -30.183800
C -28.885500 -8.804300 -28.709300
C -28.799400 -8.952600 -25.877600
H -28.777000 -8.980100 -24.928000
H -28.139500 -8.520400 -30.597600
C -27.631200 -8.914400 -28.031300
C -27.606800 -8.919100 -26.609500
H -26.762500 -8.868700 -30.673300
H -26.628400 -10.385300 -30.180700
N -26.438400 -8.870700 -25.889500
N -26.398600 -9.033800 -28.679800
C -26.265300 -9.479400 -30.089600
H -25.318000 -9.479400 -30.344400
C -25.315900 -8.829100 -26.562800
C -25.225700 -8.925100 -27.985200
N -24.090000 -8.962700 -28.656300
C -24.048800 -8.773400 -25.786500
O -24.008600 -8.685500 -24.573500
N -22.936200 -8.829100 -26.567500
C -22.925200 -8.947200 -27.957400
H -22.155500 -8.787500 -26.161700
O -21.844200 -9.037800 -28.536500
62
Fragment
H -24.399500 -7.887000 -20.194100
H -23.801900 -8.788200 -21.373700
H -23.778700 -7.192400 -21.494100
C -23.700700 -7.949400 -20.876500
H -23.099700 -7.777600 -18.316600
C -22.345000 -7.919200 -20.212600
C -22.290900 -7.831900 -18.813700
H -21.846700 -7.497100 -22.869900
H -21.786200 -9.074700 -22.608900
C -21.325700 -8.221800 -22.463800
C -21.183200 -7.972200 -20.989300
C -21.097000 -7.823900 -18.157500
H -21.074700 -7.796400 -17.208000
H -20.437200 -8.256100 -22.877600
C -19.928800 -7.862100 -20.311300
C -19.904400 -7.857400 -18.889400
H -19.060200 -7.907800 -22.953200
H -18.926000 -6.391200 -22.460700
N -18.736000 -7.905800 -18.169400
N -18.696300 -7.742700 -20.959800
C -18.563000 -7.297100 -22.369600
H -17.615700 -7.297100 -22.624400
C -17.613600 -7.947400 -18.842800
C -17.523300 -7.851400 -20.265100
N -16.387700 -7.813800 -20.936300
C -16.346400 -8.003100 -18.066400
O -16.306200 -8.091000 -16.853500
N -15.233800 -7.947400 -18.847400
C -15.222800 -7.829300 -20.237300
H -14.453200 -7.989000 -18.441600
O -14.141800 -7.738700 -20.816500
H -32.101800 -8.889500 -27.914100
H -31.504200 -7.988300 -29.093800
H -31.481000 -9.584100 -29.214200
C -31.403100 -8.827100 -28.596600
H -30.802100 -8.998900 -26.036600
C -30.047300 -8.857300 -27.932700
C -29.993200 -8.944600 -26.533800
H -29.549100 -9.279400 -30.589900
H -29.488500 -7.701800 -30.329000
C -29.028100 -8.554700 -30.183800
C -28.885500 -8.804300 -28.709300
C -28.799400 -8.952600 -25.877600
H -28.777000 -8.980100 -24.928000
H -28.139500 -8.520400 -30.597600
C -27.631200 -8.914400 -28.031300
C -27.606800 -8.919100 -26.609500
H -26.762500 -8.868700 -30.673300
H -26.628400 -10.385300 -30.180700
N -26.438400 -8.870700 -25.889500
N -26.398600 -9.033800 -28.679800
C -26.265300 -9.479400 -30.089600
H -25.318000 -9.479400 -30.344400
C -25.315900 -8.829100 -26.562800
C -25.225700 -8.925100 -27.985200
N -24.090000 -8.962700 -28.656300
C -24.048800 -8.773400 -25.786500
O -24.008600 -8.685500 -24.573500
N -22.936200 -8.829100 -26.567500
C -22.925200 -8.947200 -27.957400
H -22.155500 -8.787500 -26.161700
O -21.844200 -9.037800 -28.536500
