31
Fragment
H -24.399500 -7.887000 -20.194100
H -23.801900 -8.788200 -21.373700
H -23.778700 -7.192400 -21.494100
C -23.700700 -7.949400 -20.876500
H -23.099700 -7.777600 -18.316600
C -22.345000 -7.919200 -20.212600
C -22.290900 -7.831900 -18.813700
H -21.846700 -7.497100 -22.869900
H -21.786200 -9.074700 -22.608900
C -21.325700 -8.221800 -22.463800
C -21.183200 -7.972200 -20.989300
C -21.097000 -7.823900 -18.157500
H -21.074700 -7.796400 -17.208000
H -20.437200 -8.256100 -22.877600
C -19.928800 -7.862100 -20.311300
C -19.904400 -7.857400 -18.889400
H -19.060200 -7.907800 -22.953200
H -18.926000 -6.391200 -22.460700
N -18.736000 -7.905800 -18.169400
N -18.696300 -7.742700 -20.959800
C -18.563000 -7.297100 -22.369600
H -17.615700 -7.297100 -22.624400
C -17.613600 -7.947400 -18.842800
C -17.523300 -7.851400 -20.265100
N -16.387700 -7.813800 -20.936300
C -16.346400 -8.003100 -18.066400
O -16.306200 -8.091000 -16.853500
N -15.233800 -7.947400 -18.847400
C -15.222800 -7.829300 -20.237300
H -14.453200 -7.989000 -18.441600
O -14.141800 -7.738700 -20.816500
31
Fragment
O -24.369900 -11.094000 -17.783700
H -24.058500 -11.344300 -20.158600
C -23.288800 -11.184600 -18.362900
N -23.277900 -11.302700 -19.752800
O -22.205500 -11.446300 -21.746700
C -22.165300 -11.358400 -20.533800
N -22.124000 -11.169100 -17.663900
C -20.988400 -11.206700 -18.335100
C -20.898100 -11.302700 -19.757400
H -20.896000 -10.652400 -15.975900
C -19.948700 -10.652400 -16.230600
N -19.815400 -11.098000 -17.640500
N -19.775700 -11.261100 -20.430800
H -19.585700 -9.746500 -16.139500
H -19.451500 -11.263100 -15.647000
C -18.607300 -11.212700 -19.710800
C -18.582900 -11.217400 -18.288900
H -18.074500 -11.611400 -15.722600
H -17.437000 -11.151700 -21.392200
C -17.414700 -11.179200 -20.442700
C -17.328500 -11.327500 -17.611000
C -17.186000 -11.577100 -16.136400
H -16.725500 -12.430000 -15.991300
H -16.665000 -10.852400 -15.730400
C -16.220800 -11.187200 -19.786500
C -16.166700 -11.274500 -18.387600
H -15.412000 -11.132900 -20.283600
C -14.811000 -11.304700 -17.723700
H -14.733000 -10.547700 -17.106100
H -14.709800 -12.143500 -17.226500
H -14.112200 -11.242300 -18.406100
62
Fragment
H -24.399500 -7.887000 -20.194100
H -23.801900 -8.788200 -21.373700
H -23.778700 -7.192400 -21.494100
C -23.700700 -7.949400 -20.876500
H -23.099700 -7.777600 -18.316600
C -22.345000 -7.919200 -20.212600
C -22.290900 -7.831900 -18.813700
H -21.846700 -7.497100 -22.869900
H -21.786200 -9.074700 -22.608900
C -21.325700 -8.221800 -22.463800
C -21.183200 -7.972200 -20.989300
C -21.097000 -7.823900 -18.157500
H -21.074700 -7.796400 -17.208000
H -20.437200 -8.256100 -22.877600
C -19.928800 -7.862100 -20.311300
C -19.904400 -7.857400 -18.889400
H -19.060200 -7.907800 -22.953200
H -18.926000 -6.391200 -22.460700
N -18.736000 -7.905800 -18.169400
N -18.696300 -7.742700 -20.959800
C -18.563000 -7.297100 -22.369600
H -17.615700 -7.297100 -22.624400
C -17.613600 -7.947400 -18.842800
C -17.523300 -7.851400 -20.265100
N -16.387700 -7.813800 -20.936300
C -16.346400 -8.003100 -18.066400
O -16.306200 -8.091000 -16.853500
N -15.233800 -7.947400 -18.847400
C -15.222800 -7.829300 -20.237300
H -14.453200 -7.989000 -18.441600
O -14.141800 -7.738700 -20.816500
O -24.369900 -11.094000 -17.783700
H -24.058500 -11.344300 -20.158600
C -23.288800 -11.184600 -18.362900
N -23.277900 -11.302700 -19.752800
O -22.205500 -11.446300 -21.746700
C -22.165300 -11.358400 -20.533800
N -22.124000 -11.169100 -17.663900
C -20.988400 -11.206700 -18.335100
C -20.898100 -11.302700 -19.757400
H -20.896000 -10.652400 -15.975900
C -19.948700 -10.652400 -16.230600
N -19.815400 -11.098000 -17.640500
N -19.775700 -11.261100 -20.430800
H -19.585700 -9.746500 -16.139500
H -19.451500 -11.263100 -15.647000
C -18.607300 -11.212700 -19.710800
C -18.582900 -11.217400 -18.288900
H -18.074500 -11.611400 -15.722600
H -17.437000 -11.151700 -21.392200
C -17.414700 -11.179200 -20.442700
C -17.328500 -11.327500 -17.611000
C -17.186000 -11.577100 -16.136400
H -16.725500 -12.430000 -15.991300
H -16.665000 -10.852400 -15.730400
C -16.220800 -11.187200 -19.786500
C -16.166700 -11.274500 -18.387600
H -15.412000 -11.132900 -20.283600
C -14.811000 -11.304700 -17.723700
H -14.733000 -10.547700 -17.106100
H -14.709800 -12.143500 -17.226500
H -14.112200 -11.242300 -18.406100
