29
Fragment
H -8.433600 -3.291900 -16.447200
H -7.776100 -4.601800 -14.666200
C -7.770500 -3.934000 -16.559400
H -7.442900 -3.576500 -18.519500
C -7.377800 -4.712100 -15.500000
C -7.166300 -4.113300 -17.812300
C -6.376600 -5.672200 -15.677300
H -6.226900 -5.054400 -20.086200
C -6.184500 -5.046200 -18.041400
N -6.003100 -6.437100 -14.603800
H -5.930500 -7.289900 -19.502400
C -5.778700 -5.846400 -16.950900
C -5.578300 -5.270000 -19.397600
O -5.206800 -8.161900 -12.555400
C -5.149000 -6.716400 -19.533100
C -5.042400 -7.300600 -14.776400
H -4.810000 -4.688600 -19.513100
N -4.800200 -6.814000 -17.094100
H -4.714500 -6.846400 -20.390900
C -4.642100 -8.157000 -13.626300
C -4.350700 -7.518600 -16.025200
C -4.203200 -7.098300 -18.429700
H -3.993800 -8.043400 -18.495200
N -3.564400 -8.948500 -13.892400
H -3.376500 -6.600000 -18.526200
N -3.338900 -8.347200 -16.184700
H -3.257800 -9.423300 -13.245200
C -2.919900 -9.055200 -15.113000
O -1.942600 -9.820700 -15.195700
5
Fragment
H -11.689600 -0.494400 -16.939300
O -11.380000 -0.499600 -17.730800
C -10.419800 -1.365800 -17.603400
H -10.265900 -1.857800 -16.707400
O -9.710000 -1.686600 -18.508400
34
Fragment
H -8.433600 -3.291900 -16.447200
H -7.776100 -4.601800 -14.666200
C -7.770500 -3.934000 -16.559400
H -7.442900 -3.576500 -18.519500
C -7.377800 -4.712100 -15.500000
C -7.166300 -4.113300 -17.812300
C -6.376600 -5.672200 -15.677300
H -6.226900 -5.054400 -20.086200
C -6.184500 -5.046200 -18.041400
N -6.003100 -6.437100 -14.603800
H -5.930500 -7.289900 -19.502400
C -5.778700 -5.846400 -16.950900
C -5.578300 -5.270000 -19.397600
O -5.206800 -8.161900 -12.555400
C -5.149000 -6.716400 -19.533100
C -5.042400 -7.300600 -14.776400
H -4.810000 -4.688600 -19.513100
N -4.800200 -6.814000 -17.094100
H -4.714500 -6.846400 -20.390900
C -4.642100 -8.157000 -13.626300
C -4.350700 -7.518600 -16.025200
C -4.203200 -7.098300 -18.429700
H -3.993800 -8.043400 -18.495200
N -3.564400 -8.948500 -13.892400
H -3.376500 -6.600000 -18.526200
N -3.338900 -8.347200 -16.184700
H -3.257800 -9.423300 -13.245200
C -2.919900 -9.055200 -15.113000
O -1.942600 -9.820700 -15.195700
H -11.689600 -0.494400 -16.939300
O -11.380000 -0.499600 -17.730800
C -10.419800 -1.365800 -17.603400
H -10.265900 -1.857800 -16.707400
O -9.710000 -1.686600 -18.508400
