29
Fragment
H -8.433600 -3.291900 -16.447200
H -7.776100 -4.601800 -14.666200
C -7.770500 -3.934000 -16.559400
H -7.442900 -3.576500 -18.519500
C -7.377800 -4.712100 -15.500000
C -7.166300 -4.113300 -17.812300
C -6.376600 -5.672200 -15.677300
H -6.226900 -5.054400 -20.086200
C -6.184500 -5.046200 -18.041400
N -6.003100 -6.437100 -14.603800
H -5.930500 -7.289900 -19.502400
C -5.778700 -5.846400 -16.950900
C -5.578300 -5.270000 -19.397600
O -5.206800 -8.161900 -12.555400
C -5.149000 -6.716400 -19.533100
C -5.042400 -7.300600 -14.776400
H -4.810000 -4.688600 -19.513100
N -4.800200 -6.814000 -17.094100
H -4.714500 -6.846400 -20.390900
C -4.642100 -8.157000 -13.626300
C -4.350700 -7.518600 -16.025200
C -4.203200 -7.098300 -18.429700
H -3.993800 -8.043400 -18.495200
N -3.564400 -8.948500 -13.892400
H -3.376500 -6.600000 -18.526200
N -3.338900 -8.347200 -16.184700
H -3.257800 -9.423300 -13.245200
C -2.919900 -9.055200 -15.113000
O -1.942600 -9.820700 -15.195700
29
Fragment
O -8.054100 -1.165800 -11.769200
C -7.076700 -1.931400 -11.851900
H -6.738900 -1.563300 -13.719700
N -6.657800 -2.639300 -10.780200
H -6.620200 -4.386500 -8.438700
N -6.432300 -2.038000 -13.072400
H -6.002900 -2.943200 -8.469700
C -5.793500 -3.888300 -8.535200
C -5.645900 -3.467900 -10.939700
C -5.354500 -2.829600 -13.338600
H -5.282200 -4.140200 -6.574000
N -5.196400 -4.172500 -9.870800
H -5.186600 -6.297900 -7.451700
C -4.954300 -3.685900 -12.188500
C -4.847700 -4.270100 -7.431800
O -4.789900 -2.824600 -14.409500
C -4.418400 -5.716600 -7.567300
C -4.218000 -5.140100 -10.014000
H -4.066200 -3.696700 -7.462500
N -3.993600 -4.549400 -12.361100
C -3.812200 -5.940300 -8.923500
H -3.769800 -5.932100 -6.878700
C -3.620000 -5.314300 -11.287600
C -2.830400 -6.873200 -9.152600
C -2.618900 -6.274500 -11.464900
H -2.553800 -7.410000 -8.445400
C -2.226200 -7.052500 -10.405500
H -2.220600 -6.384700 -12.298700
H -1.563100 -7.694600 -10.517700
58
Fragment
H -8.433600 -3.291900 -16.447200
H -7.776100 -4.601800 -14.666200
C -7.770500 -3.934000 -16.559400
H -7.442900 -3.576500 -18.519500
C -7.377800 -4.712100 -15.500000
C -7.166300 -4.113300 -17.812300
C -6.376600 -5.672200 -15.677300
H -6.226900 -5.054400 -20.086200
C -6.184500 -5.046200 -18.041400
N -6.003100 -6.437100 -14.603800
H -5.930500 -7.289900 -19.502400
C -5.778700 -5.846400 -16.950900
C -5.578300 -5.270000 -19.397600
O -5.206800 -8.161900 -12.555400
C -5.149000 -6.716400 -19.533100
C -5.042400 -7.300600 -14.776400
H -4.810000 -4.688600 -19.513100
N -4.800200 -6.814000 -17.094100
H -4.714500 -6.846400 -20.390900
C -4.642100 -8.157000 -13.626300
C -4.350700 -7.518600 -16.025200
C -4.203200 -7.098300 -18.429700
H -3.993800 -8.043400 -18.495200
N -3.564400 -8.948500 -13.892400
H -3.376500 -6.600000 -18.526200
N -3.338900 -8.347200 -16.184700
H -3.257800 -9.423300 -13.245200
C -2.919900 -9.055200 -15.113000
O -1.942600 -9.820700 -15.195700
O -8.054100 -1.165800 -11.769200
C -7.076700 -1.931400 -11.851900
H -6.738900 -1.563300 -13.719700
N -6.657800 -2.639300 -10.780200
H -6.620200 -4.386500 -8.438700
N -6.432300 -2.038000 -13.072400
H -6.002900 -2.943200 -8.469700
C -5.793500 -3.888300 -8.535200
C -5.645900 -3.467900 -10.939700
C -5.354500 -2.829600 -13.338600
H -5.282200 -4.140200 -6.574000
N -5.196400 -4.172500 -9.870800
H -5.186600 -6.297900 -7.451700
C -4.954300 -3.685900 -12.188500
C -4.847700 -4.270100 -7.431800
O -4.789900 -2.824600 -14.409500
C -4.418400 -5.716600 -7.567300
C -4.218000 -5.140100 -10.014000
H -4.066200 -3.696700 -7.462500
N -3.993600 -4.549400 -12.361100
C -3.812200 -5.940300 -8.923500
H -3.769800 -5.932100 -6.878700
C -3.620000 -5.314300 -11.287600
C -2.830400 -6.873200 -9.152600
C -2.618900 -6.274500 -11.464900
H -2.553800 -7.410000 -8.445400
C -2.226200 -7.052500 -10.405500
H -2.220600 -6.384700 -12.298700
H -1.563100 -7.694600 -10.517700
