31
Fragment
H -24.399500 -7.887000 -20.194100
H -23.801900 -8.788200 -21.373700
H -23.778700 -7.192400 -21.494100
C -23.700700 -7.949400 -20.876500
H -23.099700 -7.777600 -18.316600
C -22.345000 -7.919200 -20.212600
C -22.290900 -7.831900 -18.813700
H -21.846700 -7.497100 -22.869900
H -21.786200 -9.074700 -22.608900
C -21.325700 -8.221800 -22.463800
C -21.183200 -7.972200 -20.989300
C -21.097000 -7.823900 -18.157500
H -21.074700 -7.796400 -17.208000
H -20.437200 -8.256100 -22.877600
C -19.928800 -7.862100 -20.311300
C -19.904400 -7.857400 -18.889400
H -19.060200 -7.907800 -22.953200
H -18.926000 -6.391200 -22.460700
N -18.736000 -7.905800 -18.169400
N -18.696300 -7.742700 -20.959800
C -18.563000 -7.297100 -22.369600
H -17.615700 -7.297100 -22.624400
C -17.613600 -7.947400 -18.842800
C -17.523300 -7.851400 -20.265100
N -16.387700 -7.813800 -20.936300
C -16.346400 -8.003100 -18.066400
O -16.306200 -8.091000 -16.853500
N -15.233800 -7.947400 -18.847400
C -15.222800 -7.829300 -20.237300
H -14.453200 -7.989000 -18.441600
O -14.141800 -7.738700 -20.816500
31
Fragment
H -16.697100 -8.889500 -12.474000
H -16.099600 -7.988300 -13.653700
H -16.076400 -9.584100 -13.774100
C -15.998400 -8.827100 -13.156500
H -15.397400 -8.998900 -10.596500
C -14.642700 -8.857300 -12.492600
C -14.588500 -8.944600 -11.093700
H -14.144400 -9.279400 -15.149800
H -14.083800 -7.701800 -14.888900
C -13.623400 -8.554700 -14.743700
C -13.480900 -8.804300 -13.269200
C -13.394700 -8.952600 -10.437500
H -13.372400 -8.980100 -9.487900
H -12.734900 -8.520400 -15.157500
C -12.226500 -8.914400 -12.591200
C -12.202100 -8.919100 -11.169400
H -11.357900 -8.868700 -15.233200
H -11.223700 -10.385300 -14.740700
N -11.033700 -8.870700 -10.449400
N -10.994000 -9.033800 -13.239700
C -10.860600 -9.479400 -14.649600
H -9.913400 -9.479400 -14.904300
C -9.911300 -8.829100 -11.122700
C -9.821000 -8.925100 -12.545100
N -8.685400 -8.962700 -13.216300
C -8.644100 -8.773400 -10.346400
O -8.603900 -8.685500 -9.133400
N -7.531500 -8.829100 -11.127400
C -7.520500 -8.947200 -12.517300
H -6.750900 -8.787500 -10.721600
O -6.439500 -9.037800 -13.096400
62
Fragment
H -24.399500 -7.887000 -20.194100
H -23.801900 -8.788200 -21.373700
H -23.778700 -7.192400 -21.494100
C -23.700700 -7.949400 -20.876500
H -23.099700 -7.777600 -18.316600
C -22.345000 -7.919200 -20.212600
C -22.290900 -7.831900 -18.813700
H -21.846700 -7.497100 -22.869900
H -21.786200 -9.074700 -22.608900
C -21.325700 -8.221800 -22.463800
C -21.183200 -7.972200 -20.989300
C -21.097000 -7.823900 -18.157500
H -21.074700 -7.796400 -17.208000
H -20.437200 -8.256100 -22.877600
C -19.928800 -7.862100 -20.311300
C -19.904400 -7.857400 -18.889400
H -19.060200 -7.907800 -22.953200
H -18.926000 -6.391200 -22.460700
N -18.736000 -7.905800 -18.169400
N -18.696300 -7.742700 -20.959800
C -18.563000 -7.297100 -22.369600
H -17.615700 -7.297100 -22.624400
C -17.613600 -7.947400 -18.842800
C -17.523300 -7.851400 -20.265100
N -16.387700 -7.813800 -20.936300
C -16.346400 -8.003100 -18.066400
O -16.306200 -8.091000 -16.853500
N -15.233800 -7.947400 -18.847400
C -15.222800 -7.829300 -20.237300
H -14.453200 -7.989000 -18.441600
O -14.141800 -7.738700 -20.816500
H -16.697100 -8.889500 -12.474000
H -16.099600 -7.988300 -13.653700
H -16.076400 -9.584100 -13.774100
C -15.998400 -8.827100 -13.156500
H -15.397400 -8.998900 -10.596500
C -14.642700 -8.857300 -12.492600
C -14.588500 -8.944600 -11.093700
H -14.144400 -9.279400 -15.149800
H -14.083800 -7.701800 -14.888900
C -13.623400 -8.554700 -14.743700
C -13.480900 -8.804300 -13.269200
C -13.394700 -8.952600 -10.437500
H -13.372400 -8.980100 -9.487900
H -12.734900 -8.520400 -15.157500
C -12.226500 -8.914400 -12.591200
C -12.202100 -8.919100 -11.169400
H -11.357900 -8.868700 -15.233200
H -11.223700 -10.385300 -14.740700
N -11.033700 -8.870700 -10.449400
N -10.994000 -9.033800 -13.239700
C -10.860600 -9.479400 -14.649600
H -9.913400 -9.479400 -14.904300
C -9.911300 -8.829100 -11.122700
C -9.821000 -8.925100 -12.545100
N -8.685400 -8.962700 -13.216300
C -8.644100 -8.773400 -10.346400
O -8.603900 -8.685500 -9.133400
N -7.531500 -8.829100 -11.127400
C -7.520500 -8.947200 -12.517300
H -6.750900 -8.787500 -10.721600
O -6.439500 -9.037800 -13.096400
