29
Fragment
H -8.433600 -3.291900 -16.447200
H -7.776100 -4.601800 -14.666200
C -7.770500 -3.934000 -16.559400
H -7.442900 -3.576500 -18.519500
C -7.377800 -4.712100 -15.500000
C -7.166300 -4.113300 -17.812300
C -6.376600 -5.672200 -15.677300
H -6.226900 -5.054400 -20.086200
C -6.184500 -5.046200 -18.041400
N -6.003100 -6.437100 -14.603800
H -5.930500 -7.289900 -19.502400
C -5.778700 -5.846400 -16.950900
C -5.578300 -5.270000 -19.397600
O -5.206800 -8.161900 -12.555400
C -5.149000 -6.716400 -19.533100
C -5.042400 -7.300600 -14.776400
H -4.810000 -4.688600 -19.513100
N -4.800200 -6.814000 -17.094100
H -4.714500 -6.846400 -20.390900
C -4.642100 -8.157000 -13.626300
C -4.350700 -7.518600 -16.025200
C -4.203200 -7.098300 -18.429700
H -3.993800 -8.043400 -18.495200
N -3.564400 -8.948500 -13.892400
H -3.376500 -6.600000 -18.526200
N -3.338900 -8.347200 -16.184700
H -3.257800 -9.423300 -13.245200
C -2.919900 -9.055200 -15.113000
O -1.942600 -9.820700 -15.195700
29
Fragment
O -10.533500 -6.659100 -25.251700
C -9.556200 -7.424700 -25.334300
H -9.218300 -7.056500 -27.202200
N -9.137300 -8.132600 -24.262600
H -9.099700 -9.879800 -21.921100
N -8.911700 -7.531300 -26.554900
H -8.482300 -8.436400 -21.952100
C -8.272900 -9.381500 -22.017600
C -8.125400 -8.961200 -24.422100
C -7.834000 -8.322800 -26.821000
H -7.761600 -9.633500 -20.056500
N -7.675900 -9.665800 -23.353200
H -7.666100 -11.791200 -20.934200
C -7.433700 -9.179200 -25.671000
C -7.327100 -9.763400 -20.914200
O -7.269300 -8.317900 -27.891900
C -6.897900 -11.209800 -21.049700
C -6.697500 -10.633400 -23.496400
H -6.545600 -9.189900 -20.945000
N -6.473000 -10.042700 -25.843600
C -6.291600 -11.433600 -22.405900
H -6.249200 -11.425400 -20.361200
C -6.099500 -10.807600 -24.770100
C -5.309800 -12.366500 -22.635000
C -5.098300 -11.767700 -24.947400
H -5.033200 -12.903300 -21.927900
C -4.705700 -12.545800 -23.887900
H -4.700000 -11.878000 -25.781100
H -4.042500 -13.187900 -24.000100
58
Fragment
H -8.433600 -3.291900 -16.447200
H -7.776100 -4.601800 -14.666200
C -7.770500 -3.934000 -16.559400
H -7.442900 -3.576500 -18.519500
C -7.377800 -4.712100 -15.500000
C -7.166300 -4.113300 -17.812300
C -6.376600 -5.672200 -15.677300
H -6.226900 -5.054400 -20.086200
C -6.184500 -5.046200 -18.041400
N -6.003100 -6.437100 -14.603800
H -5.930500 -7.289900 -19.502400
C -5.778700 -5.846400 -16.950900
C -5.578300 -5.270000 -19.397600
O -5.206800 -8.161900 -12.555400
C -5.149000 -6.716400 -19.533100
C -5.042400 -7.300600 -14.776400
H -4.810000 -4.688600 -19.513100
N -4.800200 -6.814000 -17.094100
H -4.714500 -6.846400 -20.390900
C -4.642100 -8.157000 -13.626300
C -4.350700 -7.518600 -16.025200
C -4.203200 -7.098300 -18.429700
H -3.993800 -8.043400 -18.495200
N -3.564400 -8.948500 -13.892400
H -3.376500 -6.600000 -18.526200
N -3.338900 -8.347200 -16.184700
H -3.257800 -9.423300 -13.245200
C -2.919900 -9.055200 -15.113000
O -1.942600 -9.820700 -15.195700
O -10.533500 -6.659100 -25.251700
C -9.556200 -7.424700 -25.334300
H -9.218300 -7.056500 -27.202200
N -9.137300 -8.132600 -24.262600
H -9.099700 -9.879800 -21.921100
N -8.911700 -7.531300 -26.554900
H -8.482300 -8.436400 -21.952100
C -8.272900 -9.381500 -22.017600
C -8.125400 -8.961200 -24.422100
C -7.834000 -8.322800 -26.821000
H -7.761600 -9.633500 -20.056500
N -7.675900 -9.665800 -23.353200
H -7.666100 -11.791200 -20.934200
C -7.433700 -9.179200 -25.671000
C -7.327100 -9.763400 -20.914200
O -7.269300 -8.317900 -27.891900
C -6.897900 -11.209800 -21.049700
C -6.697500 -10.633400 -23.496400
H -6.545600 -9.189900 -20.945000
N -6.473000 -10.042700 -25.843600
C -6.291600 -11.433600 -22.405900
H -6.249200 -11.425400 -20.361200
C -6.099500 -10.807600 -24.770100
C -5.309800 -12.366500 -22.635000
C -5.098300 -11.767700 -24.947400
H -5.033200 -12.903300 -21.927900
C -4.705700 -12.545800 -23.887900
H -4.700000 -11.878000 -25.781100
H -4.042500 -13.187900 -24.000100
