24
Fragment
H -19.146300 -24.151900 -23.711700
O -18.717000 -23.459800 -23.806700
H -17.537300 -25.769700 -24.238800
C -17.470500 -23.758800 -24.297500
O -17.196000 -21.428300 -24.412800
C -16.998300 -25.044200 -24.457500
C -16.674200 -22.664700 -24.626000
H -16.671000 -20.589900 -24.634900
O -15.863600 -27.623700 -24.729700
C -15.705300 -25.253800 -24.949800
C -15.387800 -22.875000 -25.132700
C -15.238000 -26.645900 -25.096100
C -14.911600 -24.168200 -25.290500
O -14.681600 -21.763800 -25.451600
H -14.084900 -28.579500 -26.499300
H -14.055700 -24.307500 -25.626600
O -14.035400 -26.748800 -25.680600
H -13.919900 -21.976600 -25.668200
C -13.522700 -28.093500 -25.875400
H -13.513900 -28.574000 -25.032000
H -12.150300 -27.484000 -27.245400
C -12.130300 -27.969900 -26.417000
H -11.765800 -28.845200 -26.569600
H -11.580100 -27.500500 -25.785300
24
Fragment
H -27.436600 -29.017700 -23.711700
O -27.007200 -29.709800 -23.806700
H -25.827500 -27.399900 -24.238800
C -25.760700 -29.410800 -24.297500
O -25.486200 -31.741300 -24.412800
C -25.288500 -28.125400 -24.457500
C -24.964400 -30.504900 -24.626000
H -24.961200 -32.579700 -24.634900
O -24.153900 -25.545900 -24.729700
C -23.995500 -27.915800 -24.949800
C -23.678100 -30.294600 -25.132700
C -23.528200 -26.523700 -25.096100
C -23.201800 -29.001400 -25.290500
O -22.971900 -31.405800 -25.451600
H -22.375100 -24.590100 -26.499300
H -22.345900 -28.862100 -25.626600
O -22.325600 -26.420800 -25.680600
H -22.210100 -31.193000 -25.668200
C -21.812900 -25.076100 -25.875400
H -21.804200 -24.595600 -25.032000
H -20.440500 -25.685600 -27.245400
C -20.420500 -25.199700 -26.417000
H -20.056000 -24.324400 -26.569600
H -19.870300 -25.669100 -25.785300
48
Fragment
H -19.146300 -24.151900 -23.711700
O -18.717000 -23.459800 -23.806700
H -17.537300 -25.769700 -24.238800
C -17.470500 -23.758800 -24.297500
O -17.196000 -21.428300 -24.412800
C -16.998300 -25.044200 -24.457500
C -16.674200 -22.664700 -24.626000
H -16.671000 -20.589900 -24.634900
O -15.863600 -27.623700 -24.729700
C -15.705300 -25.253800 -24.949800
C -15.387800 -22.875000 -25.132700
C -15.238000 -26.645900 -25.096100
C -14.911600 -24.168200 -25.290500
O -14.681600 -21.763800 -25.451600
H -14.084900 -28.579500 -26.499300
H -14.055700 -24.307500 -25.626600
O -14.035400 -26.748800 -25.680600
H -13.919900 -21.976600 -25.668200
C -13.522700 -28.093500 -25.875400
H -13.513900 -28.574000 -25.032000
H -12.150300 -27.484000 -27.245400
C -12.130300 -27.969900 -26.417000
H -11.765800 -28.845200 -26.569600
H -11.580100 -27.500500 -25.785300
H -27.436600 -29.017700 -23.711700
O -27.007200 -29.709800 -23.806700
H -25.827500 -27.399900 -24.238800
C -25.760700 -29.410800 -24.297500
O -25.486200 -31.741300 -24.412800
C -25.288500 -28.125400 -24.457500
C -24.964400 -30.504900 -24.626000
H -24.961200 -32.579700 -24.634900
O -24.153900 -25.545900 -24.729700
C -23.995500 -27.915800 -24.949800
C -23.678100 -30.294600 -25.132700
C -23.528200 -26.523700 -25.096100
C -23.201800 -29.001400 -25.290500
O -22.971900 -31.405800 -25.451600
H -22.375100 -24.590100 -26.499300
H -22.345900 -28.862100 -25.626600
O -22.325600 -26.420800 -25.680600
H -22.210100 -31.193000 -25.668200
C -21.812900 -25.076100 -25.875400
H -21.804200 -24.595600 -25.032000
H -20.440500 -25.685600 -27.245400
C -20.420500 -25.199700 -26.417000
H -20.056000 -24.324400 -26.569600
H -19.870300 -25.669100 -25.785300
