24
Fragment
H -19.146300 -24.151900 -23.711700
O -18.717000 -23.459800 -23.806700
H -17.537300 -25.769700 -24.238800
C -17.470500 -23.758800 -24.297500
O -17.196000 -21.428300 -24.412800
C -16.998300 -25.044200 -24.457500
C -16.674200 -22.664700 -24.626000
H -16.671000 -20.589900 -24.634900
O -15.863600 -27.623700 -24.729700
C -15.705300 -25.253800 -24.949800
C -15.387800 -22.875000 -25.132700
C -15.238000 -26.645900 -25.096100
C -14.911600 -24.168200 -25.290500
O -14.681600 -21.763800 -25.451600
H -14.084900 -28.579500 -26.499300
H -14.055700 -24.307500 -25.626600
O -14.035400 -26.748800 -25.680600
H -13.919900 -21.976600 -25.668200
C -13.522700 -28.093500 -25.875400
H -13.513900 -28.574000 -25.032000
H -12.150300 -27.484000 -27.245400
C -12.130300 -27.969900 -26.417000
H -11.765800 -28.845200 -26.569600
H -11.580100 -27.500500 -25.785300
24
Fragment
H -24.481900 -12.376700 -21.864400
H -24.296200 -11.032000 -21.080100
C -23.931700 -11.907300 -21.232700
H -23.911700 -12.393200 -20.404200
H -22.548000 -11.303200 -22.617700
C -22.539300 -11.783700 -21.774300
H -22.142100 -17.900600 -21.981400
O -22.026600 -13.128400 -21.969000
H -22.006300 -15.569700 -22.023000
H -21.977100 -11.297700 -21.150400
O -21.380400 -18.113400 -22.198100
C -21.150400 -15.709000 -22.359100
C -20.824000 -13.231300 -22.553500
C -20.674200 -17.002200 -22.517000
C -20.356700 -14.623400 -22.699800
O -20.198300 -12.253500 -22.920000
H -19.391000 -19.287300 -23.014800
C -19.387800 -17.212500 -23.023700
C -19.063700 -14.833000 -23.192200
O -18.866000 -18.448900 -23.236800
C -18.591500 -16.118400 -23.352200
H -18.524700 -14.107500 -23.410900
O -17.345000 -16.417400 -23.842900
H -16.915600 -15.725300 -23.937900
48
Fragment
H -19.146300 -24.151900 -23.711700
O -18.717000 -23.459800 -23.806700
H -17.537300 -25.769700 -24.238800
C -17.470500 -23.758800 -24.297500
O -17.196000 -21.428300 -24.412800
C -16.998300 -25.044200 -24.457500
C -16.674200 -22.664700 -24.626000
H -16.671000 -20.589900 -24.634900
O -15.863600 -27.623700 -24.729700
C -15.705300 -25.253800 -24.949800
C -15.387800 -22.875000 -25.132700
C -15.238000 -26.645900 -25.096100
C -14.911600 -24.168200 -25.290500
O -14.681600 -21.763800 -25.451600
H -14.084900 -28.579500 -26.499300
H -14.055700 -24.307500 -25.626600
O -14.035400 -26.748800 -25.680600
H -13.919900 -21.976600 -25.668200
C -13.522700 -28.093500 -25.875400
H -13.513900 -28.574000 -25.032000
H -12.150300 -27.484000 -27.245400
C -12.130300 -27.969900 -26.417000
H -11.765800 -28.845200 -26.569600
H -11.580100 -27.500500 -25.785300
H -24.481900 -12.376700 -21.864400
H -24.296200 -11.032000 -21.080100
C -23.931700 -11.907300 -21.232700
H -23.911700 -12.393200 -20.404200
H -22.548000 -11.303200 -22.617700
C -22.539300 -11.783700 -21.774300
H -22.142100 -17.900600 -21.981400
O -22.026600 -13.128400 -21.969000
H -22.006300 -15.569700 -22.023000
H -21.977100 -11.297700 -21.150400
O -21.380400 -18.113400 -22.198100
C -21.150400 -15.709000 -22.359100
C -20.824000 -13.231300 -22.553500
C -20.674200 -17.002200 -22.517000
C -20.356700 -14.623400 -22.699800
O -20.198300 -12.253500 -22.920000
H -19.391000 -19.287300 -23.014800
C -19.387800 -17.212500 -23.023700
C -19.063700 -14.833000 -23.192200
O -18.866000 -18.448900 -23.236800
C -18.591500 -16.118400 -23.352200
H -18.524700 -14.107500 -23.410900
O -17.345000 -16.417400 -23.842900
H -16.915600 -15.725300 -23.937900
