24
Fragment
H -19.146300 -24.151900 -23.711700
O -18.717000 -23.459800 -23.806700
H -17.537300 -25.769700 -24.238800
C -17.470500 -23.758800 -24.297500
O -17.196000 -21.428300 -24.412800
C -16.998300 -25.044200 -24.457500
C -16.674200 -22.664700 -24.626000
H -16.671000 -20.589900 -24.634900
O -15.863600 -27.623700 -24.729700
C -15.705300 -25.253800 -24.949800
C -15.387800 -22.875000 -25.132700
C -15.238000 -26.645900 -25.096100
C -14.911600 -24.168200 -25.290500
O -14.681600 -21.763800 -25.451600
H -14.084900 -28.579500 -26.499300
H -14.055700 -24.307500 -25.626600
O -14.035400 -26.748800 -25.680600
H -13.919900 -21.976600 -25.668200
C -13.522700 -28.093500 -25.875400
H -13.513900 -28.574000 -25.032000
H -12.150300 -27.484000 -27.245400
C -12.130300 -27.969900 -26.417000
H -11.765800 -28.845200 -26.569600
H -11.580100 -27.500500 -25.785300
21
Fragment
H -18.633000 -25.374300 -29.172400
H -17.991000 -24.026000 -29.651100
C -17.811300 -24.964500 -29.484800
O -17.414100 -25.584100 -30.697500
O -17.238300 -22.268800 -27.905100
H -17.111400 -24.724300 -27.580100
H -16.958800 -25.061200 -31.135300
C -16.757100 -25.084100 -28.408300
H -16.562000 -26.023200 -28.262600
N -16.128100 -21.996300 -28.369800
O -15.734300 -20.835300 -28.567600
N -15.505700 -24.382500 -28.736100
C -15.235800 -23.026400 -28.732300
H -14.767700 -26.745100 -30.017700
H -14.407300 -26.890300 -28.499000
C -14.355200 -24.980400 -29.137800
C -14.186000 -26.439900 -29.317300
C -13.940500 -22.869600 -29.114700
H -13.498400 -22.055000 -29.194200
N -13.394000 -24.085600 -29.361900
H -13.275200 -26.629900 -29.551700
45
Fragment
H -19.146300 -24.151900 -23.711700
O -18.717000 -23.459800 -23.806700
H -17.537300 -25.769700 -24.238800
C -17.470500 -23.758800 -24.297500
O -17.196000 -21.428300 -24.412800
C -16.998300 -25.044200 -24.457500
C -16.674200 -22.664700 -24.626000
H -16.671000 -20.589900 -24.634900
O -15.863600 -27.623700 -24.729700
C -15.705300 -25.253800 -24.949800
C -15.387800 -22.875000 -25.132700
C -15.238000 -26.645900 -25.096100
C -14.911600 -24.168200 -25.290500
O -14.681600 -21.763800 -25.451600
H -14.084900 -28.579500 -26.499300
H -14.055700 -24.307500 -25.626600
O -14.035400 -26.748800 -25.680600
H -13.919900 -21.976600 -25.668200
C -13.522700 -28.093500 -25.875400
H -13.513900 -28.574000 -25.032000
H -12.150300 -27.484000 -27.245400
C -12.130300 -27.969900 -26.417000
H -11.765800 -28.845200 -26.569600
H -11.580100 -27.500500 -25.785300
H -18.633000 -25.374300 -29.172400
H -17.991000 -24.026000 -29.651100
C -17.811300 -24.964500 -29.484800
O -17.414100 -25.584100 -30.697500
O -17.238300 -22.268800 -27.905100
H -17.111400 -24.724300 -27.580100
H -16.958800 -25.061200 -31.135300
C -16.757100 -25.084100 -28.408300
H -16.562000 -26.023200 -28.262600
N -16.128100 -21.996300 -28.369800
O -15.734300 -20.835300 -28.567600
N -15.505700 -24.382500 -28.736100
C -15.235800 -23.026400 -28.732300
H -14.767700 -26.745100 -30.017700
H -14.407300 -26.890300 -28.499000
C -14.355200 -24.980400 -29.137800
C -14.186000 -26.439900 -29.317300
C -13.940500 -22.869600 -29.114700
H -13.498400 -22.055000 -29.194200
N -13.394000 -24.085600 -29.361900
H -13.275200 -26.629900 -29.551700
