24
Fragment
H -19.146300 -24.151900 -23.711700
O -18.717000 -23.459800 -23.806700
H -17.537300 -25.769700 -24.238800
C -17.470500 -23.758800 -24.297500
O -17.196000 -21.428300 -24.412800
C -16.998300 -25.044200 -24.457500
C -16.674200 -22.664700 -24.626000
H -16.671000 -20.589900 -24.634900
O -15.863600 -27.623700 -24.729700
C -15.705300 -25.253800 -24.949800
C -15.387800 -22.875000 -25.132700
C -15.238000 -26.645900 -25.096100
C -14.911600 -24.168200 -25.290500
O -14.681600 -21.763800 -25.451600
H -14.084900 -28.579500 -26.499300
H -14.055700 -24.307500 -25.626600
O -14.035400 -26.748800 -25.680600
H -13.919900 -21.976600 -25.668200
C -13.522700 -28.093500 -25.875400
H -13.513900 -28.574000 -25.032000
H -12.150300 -27.484000 -27.245400
C -12.130300 -27.969900 -26.417000
H -11.765800 -28.845200 -26.569600
H -11.580100 -27.500500 -25.785300
21
Fragment
H -20.912900 -21.149100 -21.230800
H -20.270900 -22.497400 -21.709500
C -20.091200 -21.558900 -21.543200
O -19.694000 -20.939300 -22.755900
O -19.518200 -24.254600 -19.963500
H -19.391300 -21.799100 -19.638500
H -19.238700 -21.462200 -23.193600
C -19.037000 -21.439300 -20.466600
H -18.841900 -20.500200 -20.321000
N -18.408100 -24.527100 -20.428200
O -18.014200 -25.688100 -20.626000
N -17.785600 -22.140900 -20.794500
C -17.515800 -23.497000 -20.790700
H -17.047600 -19.778300 -22.076100
H -16.687200 -19.633100 -20.557300
C -16.635100 -21.543000 -21.196200
C -16.465900 -20.083500 -21.375600
C -16.220500 -23.653800 -21.173100
H -15.778300 -24.468400 -21.252500
N -15.674000 -22.437800 -21.420300
H -15.555100 -19.893500 -21.610100
45
Fragment
H -19.146300 -24.151900 -23.711700
O -18.717000 -23.459800 -23.806700
H -17.537300 -25.769700 -24.238800
C -17.470500 -23.758800 -24.297500
O -17.196000 -21.428300 -24.412800
C -16.998300 -25.044200 -24.457500
C -16.674200 -22.664700 -24.626000
H -16.671000 -20.589900 -24.634900
O -15.863600 -27.623700 -24.729700
C -15.705300 -25.253800 -24.949800
C -15.387800 -22.875000 -25.132700
C -15.238000 -26.645900 -25.096100
C -14.911600 -24.168200 -25.290500
O -14.681600 -21.763800 -25.451600
H -14.084900 -28.579500 -26.499300
H -14.055700 -24.307500 -25.626600
O -14.035400 -26.748800 -25.680600
H -13.919900 -21.976600 -25.668200
C -13.522700 -28.093500 -25.875400
H -13.513900 -28.574000 -25.032000
H -12.150300 -27.484000 -27.245400
C -12.130300 -27.969900 -26.417000
H -11.765800 -28.845200 -26.569600
H -11.580100 -27.500500 -25.785300
H -20.912900 -21.149100 -21.230800
H -20.270900 -22.497400 -21.709500
C -20.091200 -21.558900 -21.543200
O -19.694000 -20.939300 -22.755900
O -19.518200 -24.254600 -19.963500
H -19.391300 -21.799100 -19.638500
H -19.238700 -21.462200 -23.193600
C -19.037000 -21.439300 -20.466600
H -18.841900 -20.500200 -20.321000
N -18.408100 -24.527100 -20.428200
O -18.014200 -25.688100 -20.626000
N -17.785600 -22.140900 -20.794500
C -17.515800 -23.497000 -20.790700
H -17.047600 -19.778300 -22.076100
H -16.687200 -19.633100 -20.557300
C -16.635100 -21.543000 -21.196200
C -16.465900 -20.083500 -21.375600
C -16.220500 -23.653800 -21.173100
H -15.778300 -24.468400 -21.252500
N -15.674000 -22.437800 -21.420300
H -15.555100 -19.893500 -21.610100
