24
Fragment
H -19.146300 -24.151900 -23.711700
O -18.717000 -23.459800 -23.806700
H -17.537300 -25.769700 -24.238800
C -17.470500 -23.758800 -24.297500
O -17.196000 -21.428300 -24.412800
C -16.998300 -25.044200 -24.457500
C -16.674200 -22.664700 -24.626000
H -16.671000 -20.589900 -24.634900
O -15.863600 -27.623700 -24.729700
C -15.705300 -25.253800 -24.949800
C -15.387800 -22.875000 -25.132700
C -15.238000 -26.645900 -25.096100
C -14.911600 -24.168200 -25.290500
O -14.681600 -21.763800 -25.451600
H -14.084900 -28.579500 -26.499300
H -14.055700 -24.307500 -25.626600
O -14.035400 -26.748800 -25.680600
H -13.919900 -21.976600 -25.668200
C -13.522700 -28.093500 -25.875400
H -13.513900 -28.574000 -25.032000
H -12.150300 -27.484000 -27.245400
C -12.130300 -27.969900 -26.417000
H -11.765800 -28.845200 -26.569600
H -11.580100 -27.500500 -25.785300
21
Fragment
H -20.506800 -19.983700 -26.039600
N -20.388000 -17.439400 -26.229400
H -20.283600 -15.408800 -26.397100
C -19.841500 -16.223400 -26.476500
C -19.596100 -19.793700 -26.274000
C -19.426800 -18.334200 -26.453500
H -19.374700 -20.244100 -27.092300
H -19.014400 -20.098900 -25.573600
C -18.546200 -16.380200 -26.859000
N -18.276400 -17.736300 -26.855200
O -18.047800 -14.189100 -27.023700
N -17.653900 -15.350100 -27.221500
H -17.220100 -19.377000 -27.328700
C -17.025000 -18.437900 -27.183000
H -16.823300 -18.415000 -24.456000
H -16.670600 -18.078100 -28.011200
O -16.543700 -15.622600 -27.686200
O -16.368000 -18.937900 -24.893800
C -15.970800 -18.318300 -26.106500
H -15.791000 -17.379800 -25.940200
H -15.149000 -18.728100 -26.418900
45
Fragment
H -19.146300 -24.151900 -23.711700
O -18.717000 -23.459800 -23.806700
H -17.537300 -25.769700 -24.238800
C -17.470500 -23.758800 -24.297500
O -17.196000 -21.428300 -24.412800
C -16.998300 -25.044200 -24.457500
C -16.674200 -22.664700 -24.626000
H -16.671000 -20.589900 -24.634900
O -15.863600 -27.623700 -24.729700
C -15.705300 -25.253800 -24.949800
C -15.387800 -22.875000 -25.132700
C -15.238000 -26.645900 -25.096100
C -14.911600 -24.168200 -25.290500
O -14.681600 -21.763800 -25.451600
H -14.084900 -28.579500 -26.499300
H -14.055700 -24.307500 -25.626600
O -14.035400 -26.748800 -25.680600
H -13.919900 -21.976600 -25.668200
C -13.522700 -28.093500 -25.875400
H -13.513900 -28.574000 -25.032000
H -12.150300 -27.484000 -27.245400
C -12.130300 -27.969900 -26.417000
H -11.765800 -28.845200 -26.569600
H -11.580100 -27.500500 -25.785300
H -20.506800 -19.983700 -26.039600
N -20.388000 -17.439400 -26.229400
H -20.283600 -15.408800 -26.397100
C -19.841500 -16.223400 -26.476500
C -19.596100 -19.793700 -26.274000
C -19.426800 -18.334200 -26.453500
H -19.374700 -20.244100 -27.092300
H -19.014400 -20.098900 -25.573600
C -18.546200 -16.380200 -26.859000
N -18.276400 -17.736300 -26.855200
O -18.047800 -14.189100 -27.023700
N -17.653900 -15.350100 -27.221500
H -17.220100 -19.377000 -27.328700
C -17.025000 -18.437900 -27.183000
H -16.823300 -18.415000 -24.456000
H -16.670600 -18.078100 -28.011200
O -16.543700 -15.622600 -27.686200
O -16.368000 -18.937900 -24.893800
C -15.970800 -18.318300 -26.106500
H -15.791000 -17.379800 -25.940200
H -15.149000 -18.728100 -26.418900
