20
Fragment
N -16.862700 -44.413000 -30.399800
C -15.745200 -44.251500 -30.187400
H -15.044700 -46.461900 -29.151500
C -14.341000 -44.059200 -29.940600
C -14.124500 -46.342900 -29.088800
C -13.846100 -42.744500 -30.200900
H -13.757800 -48.151300 -28.399100
C -13.547200 -45.075600 -29.469300
N -13.472000 -41.670400 -30.374700
C -13.361100 -47.347500 -28.648800
C -12.119700 -44.917400 -29.340400
N -12.088200 -50.612700 -27.724800
C -11.927000 -47.199500 -28.555400
H -11.726500 -44.103500 -29.554700
C -11.680000 -49.554800 -27.902100
C -11.353200 -45.929700 -28.916500
C -11.134100 -48.256400 -28.162200
H -10.433000 -45.809800 -28.854400
C -9.711200 -48.141100 -28.029100
N -8.571300 -48.057700 -27.914100
42
Fragment
H -15.239900 -38.288600 -35.479600
H -14.745000 -35.909900 -35.072500
H -14.545600 -40.417200 -35.821100
C -14.337500 -38.495300 -35.389900
C -13.923400 -39.750600 -35.643200
C -13.854500 -36.123100 -34.908500
C -13.426100 -37.473900 -34.988200
H -13.244900 -34.254300 -34.659600
C -12.979600 -35.145300 -34.597700
H -12.673600 -41.954600 -36.355500
C -12.529000 -40.057400 -35.639900
C -12.080800 -37.803000 -34.713100
C -12.061600 -41.289600 -36.137300
C -11.661300 -35.453400 -34.177300
C -11.597200 -39.073500 -35.226100
H -11.571200 -39.153500 -32.591400
C -11.246600 -36.807300 -34.070800
H -11.014000 -33.521100 -33.974700
H -10.986800 -41.140300 -31.613300
C -10.743500 -34.405000 -33.886800
C -10.729200 -41.526500 -36.306100
C -10.677400 -39.319100 -32.394700
H -10.436200 -42.346500 -36.631400
C -10.328000 -40.516500 -31.820500
C -10.228600 -39.340400 -35.458000
C -10.025100 -37.070500 -33.336000
C -9.807200 -40.528400 -35.986600
C -9.712700 -38.333500 -32.694100
H -9.598200 -38.690600 -35.246100
C -9.485700 -34.681000 -33.486100
C -9.105700 -36.008500 -33.160400
C -8.990000 -40.804100 -31.545400
H -8.900200 -40.674000 -36.133600
H -8.861800 -33.994100 -33.423000
H -8.747300 -41.643700 -31.231300
C -8.378800 -38.577800 -32.257300
C -8.037000 -39.839800 -31.742000
C -7.813800 -36.267700 -32.622500
C -7.433800 -37.511800 -32.263700
H -7.216700 -35.561900 -32.516200
H -7.149800 -40.021900 -31.530300
H -6.551400 -37.673600 -32.020400
62
Fragment
N -16.862700 -44.413000 -30.399800
C -15.745200 -44.251500 -30.187400
H -15.044700 -46.461900 -29.151500
C -14.341000 -44.059200 -29.940600
C -14.124500 -46.342900 -29.088800
C -13.846100 -42.744500 -30.200900
H -13.757800 -48.151300 -28.399100
C -13.547200 -45.075600 -29.469300
N -13.472000 -41.670400 -30.374700
C -13.361100 -47.347500 -28.648800
C -12.119700 -44.917400 -29.340400
N -12.088200 -50.612700 -27.724800
C -11.927000 -47.199500 -28.555400
H -11.726500 -44.103500 -29.554700
C -11.680000 -49.554800 -27.902100
C -11.353200 -45.929700 -28.916500
C -11.134100 -48.256400 -28.162200
H -10.433000 -45.809800 -28.854400
C -9.711200 -48.141100 -28.029100
N -8.571300 -48.057700 -27.914100
H -15.239900 -38.288600 -35.479600
H -14.745000 -35.909900 -35.072500
H -14.545600 -40.417200 -35.821100
C -14.337500 -38.495300 -35.389900
C -13.923400 -39.750600 -35.643200
C -13.854500 -36.123100 -34.908500
C -13.426100 -37.473900 -34.988200
H -13.244900 -34.254300 -34.659600
C -12.979600 -35.145300 -34.597700
H -12.673600 -41.954600 -36.355500
C -12.529000 -40.057400 -35.639900
C -12.080800 -37.803000 -34.713100
C -12.061600 -41.289600 -36.137300
C -11.661300 -35.453400 -34.177300
C -11.597200 -39.073500 -35.226100
H -11.571200 -39.153500 -32.591400
C -11.246600 -36.807300 -34.070800
H -11.014000 -33.521100 -33.974700
H -10.986800 -41.140300 -31.613300
C -10.743500 -34.405000 -33.886800
C -10.729200 -41.526500 -36.306100
C -10.677400 -39.319100 -32.394700
H -10.436200 -42.346500 -36.631400
C -10.328000 -40.516500 -31.820500
C -10.228600 -39.340400 -35.458000
C -10.025100 -37.070500 -33.336000
C -9.807200 -40.528400 -35.986600
C -9.712700 -38.333500 -32.694100
H -9.598200 -38.690600 -35.246100
C -9.485700 -34.681000 -33.486100
C -9.105700 -36.008500 -33.160400
C -8.990000 -40.804100 -31.545400
H -8.900200 -40.674000 -36.133600
H -8.861800 -33.994100 -33.423000
H -8.747300 -41.643700 -31.231300
C -8.378800 -38.577800 -32.257300
C -8.037000 -39.839800 -31.742000
C -7.813800 -36.267700 -32.622500
C -7.433800 -37.511800 -32.263700
H -7.216700 -35.561900 -32.516200
H -7.149800 -40.021900 -31.530300
H -6.551400 -37.673600 -32.020400
