20
Fragment
N -16.862700 -44.413000 -30.399800
C -15.745200 -44.251500 -30.187400
H -15.044700 -46.461900 -29.151500
C -14.341000 -44.059200 -29.940600
C -14.124500 -46.342900 -29.088800
C -13.846100 -42.744500 -30.200900
H -13.757800 -48.151300 -28.399100
C -13.547200 -45.075600 -29.469300
N -13.472000 -41.670400 -30.374700
C -13.361100 -47.347500 -28.648800
C -12.119700 -44.917400 -29.340400
N -12.088200 -50.612700 -27.724800
C -11.927000 -47.199500 -28.555400
H -11.726500 -44.103500 -29.554700
C -11.680000 -49.554800 -27.902100
C -11.353200 -45.929700 -28.916500
C -11.134100 -48.256400 -28.162200
H -10.433000 -45.809800 -28.854400
C -9.711200 -48.141100 -28.029100
N -8.571300 -48.057700 -27.914100
42
Fragment
H -18.639100 -46.603800 -35.585700
H -18.168000 -44.431200 -35.178600
H -17.855100 -48.921600 -35.931000
C -17.778500 -46.359500 -35.333500
C -17.513700 -45.075200 -35.033700
C -16.989700 -48.663200 -35.710500
C -16.754200 -47.347500 -35.267900
H -16.671500 -42.691100 -34.302700
C -16.253700 -44.684300 -34.499100
H -16.144700 -50.442100 -36.077700
H -16.139400 -49.073700 -31.159900
C -15.990500 -43.316900 -34.216500
C -15.970500 -49.565600 -35.820500
H -15.570000 -47.130900 -32.215200
C -15.453200 -46.977500 -34.828800
C -15.248900 -45.653000 -34.263200
C -15.246800 -48.894600 -31.349000
C -14.901800 -47.728300 -31.973100
C -14.757800 -42.918200 -33.822900
C -14.663100 -49.158200 -35.541300
H -14.568200 -42.008600 -33.758700
H -14.498700 -50.631300 -30.606200
C -14.410400 -47.900200 -35.049200
C -14.260000 -49.820100 -30.994000
C -14.058600 -45.247500 -33.543400
H -13.956300 -49.746100 -35.689900
C -13.754300 -43.867000 -33.507100
C -13.554700 -47.409000 -32.259400
H -13.534400 -47.654600 -34.858400
C -13.150900 -46.142600 -32.855900
C -12.949500 -49.528800 -31.218200
C -12.558800 -48.307400 -31.808300
C -12.451600 -43.444300 -33.134700
H -12.297500 -50.148100 -30.978600
H -12.250000 -42.535700 -33.127800
C -11.832000 -45.710800 -32.627500
C -11.497100 -44.342700 -32.790700
C -11.184900 -47.914800 -31.852500
C -10.848400 -46.648400 -32.178200
H -10.620500 -44.062900 -32.660900
H -10.520100 -48.533100 -31.655700
H -9.960500 -46.380800 -32.109100
62
Fragment
N -16.862700 -44.413000 -30.399800
C -15.745200 -44.251500 -30.187400
H -15.044700 -46.461900 -29.151500
C -14.341000 -44.059200 -29.940600
C -14.124500 -46.342900 -29.088800
C -13.846100 -42.744500 -30.200900
H -13.757800 -48.151300 -28.399100
C -13.547200 -45.075600 -29.469300
N -13.472000 -41.670400 -30.374700
C -13.361100 -47.347500 -28.648800
C -12.119700 -44.917400 -29.340400
N -12.088200 -50.612700 -27.724800
C -11.927000 -47.199500 -28.555400
H -11.726500 -44.103500 -29.554700
C -11.680000 -49.554800 -27.902100
C -11.353200 -45.929700 -28.916500
C -11.134100 -48.256400 -28.162200
H -10.433000 -45.809800 -28.854400
C -9.711200 -48.141100 -28.029100
N -8.571300 -48.057700 -27.914100
H -18.639100 -46.603800 -35.585700
H -18.168000 -44.431200 -35.178600
H -17.855100 -48.921600 -35.931000
C -17.778500 -46.359500 -35.333500
C -17.513700 -45.075200 -35.033700
C -16.989700 -48.663200 -35.710500
C -16.754200 -47.347500 -35.267900
H -16.671500 -42.691100 -34.302700
C -16.253700 -44.684300 -34.499100
H -16.144700 -50.442100 -36.077700
H -16.139400 -49.073700 -31.159900
C -15.990500 -43.316900 -34.216500
C -15.970500 -49.565600 -35.820500
H -15.570000 -47.130900 -32.215200
C -15.453200 -46.977500 -34.828800
C -15.248900 -45.653000 -34.263200
C -15.246800 -48.894600 -31.349000
C -14.901800 -47.728300 -31.973100
C -14.757800 -42.918200 -33.822900
C -14.663100 -49.158200 -35.541300
H -14.568200 -42.008600 -33.758700
H -14.498700 -50.631300 -30.606200
C -14.410400 -47.900200 -35.049200
C -14.260000 -49.820100 -30.994000
C -14.058600 -45.247500 -33.543400
H -13.956300 -49.746100 -35.689900
C -13.754300 -43.867000 -33.507100
C -13.554700 -47.409000 -32.259400
H -13.534400 -47.654600 -34.858400
C -13.150900 -46.142600 -32.855900
C -12.949500 -49.528800 -31.218200
C -12.558800 -48.307400 -31.808300
C -12.451600 -43.444300 -33.134700
H -12.297500 -50.148100 -30.978600
H -12.250000 -42.535700 -33.127800
C -11.832000 -45.710800 -32.627500
C -11.497100 -44.342700 -32.790700
C -11.184900 -47.914800 -31.852500
C -10.848400 -46.648400 -32.178200
H -10.620500 -44.062900 -32.660900
H -10.520100 -48.533100 -31.655700
H -9.960500 -46.380800 -32.109100
