20
Fragment
N -16.862700 -44.413000 -30.399800
C -15.745200 -44.251500 -30.187400
H -15.044700 -46.461900 -29.151500
C -14.341000 -44.059200 -29.940600
C -14.124500 -46.342900 -29.088800
C -13.846100 -42.744500 -30.200900
H -13.757800 -48.151300 -28.399100
C -13.547200 -45.075600 -29.469300
N -13.472000 -41.670400 -30.374700
C -13.361100 -47.347500 -28.648800
C -12.119700 -44.917400 -29.340400
N -12.088200 -50.612700 -27.724800
C -11.927000 -47.199500 -28.555400
H -11.726500 -44.103500 -29.554700
C -11.680000 -49.554800 -27.902100
C -11.353200 -45.929700 -28.916500
C -11.134100 -48.256400 -28.162200
H -10.433000 -45.809800 -28.854400
C -9.711200 -48.141100 -28.029100
N -8.571300 -48.057700 -27.914100
42
Fragment
H -19.956500 -54.983200 -25.769500
H -19.396900 -52.830900 -26.222900
H -19.296500 -57.301100 -25.217700
C -19.068700 -54.715600 -25.700400
C -18.732200 -53.449200 -26.026100
C -18.419900 -57.021300 -25.087900
C -18.085000 -55.653200 -25.251100
H -17.667000 -58.828300 -24.750800
H -17.619500 -51.215900 -26.900000
C -17.465400 -57.919700 -24.743900
C -17.358200 -53.056600 -26.070300
C -16.967600 -51.835200 -26.660400
C -16.766100 -55.221400 -25.022700
H -16.382600 -53.709400 -23.020200
C -16.362300 -53.955000 -25.619200
C -16.162700 -57.497000 -24.371500
H -15.960700 -51.617900 -22.188700
C -15.858400 -56.116500 -24.335300
C -15.657000 -51.543900 -26.884600
C -15.506600 -53.463800 -22.829400
H -15.418300 -50.732700 -27.272400
H -15.348900 -59.355400 -24.119900
C -15.253900 -52.205800 -22.337300
C -15.159200 -58.445800 -24.055700
C -15.015200 -53.635700 -25.905500
C -14.670300 -52.469400 -26.529600
C -14.668200 -55.711000 -23.615400
C -14.463800 -54.386500 -23.049800
H -14.347000 -54.233100 -25.663400
C -13.946600 -51.798400 -22.058100
C -13.926500 -58.047100 -23.662100
H -13.777600 -52.290300 -26.718700
H -13.772400 -50.921900 -21.800900
C -13.663400 -56.679700 -23.379500
H -13.245500 -58.672900 -23.575900
C -13.162800 -54.016500 -22.610700
C -12.927400 -52.700800 -22.168100
C -12.403300 -56.288800 -22.844900
C -12.138500 -55.004500 -22.545100
H -12.061900 -52.442400 -21.947600
H -11.749100 -56.932800 -22.700000
H -11.277900 -54.760200 -22.292900
62
Fragment
N -16.862700 -44.413000 -30.399800
C -15.745200 -44.251500 -30.187400
H -15.044700 -46.461900 -29.151500
C -14.341000 -44.059200 -29.940600
C -14.124500 -46.342900 -29.088800
C -13.846100 -42.744500 -30.200900
H -13.757800 -48.151300 -28.399100
C -13.547200 -45.075600 -29.469300
N -13.472000 -41.670400 -30.374700
C -13.361100 -47.347500 -28.648800
C -12.119700 -44.917400 -29.340400
N -12.088200 -50.612700 -27.724800
C -11.927000 -47.199500 -28.555400
H -11.726500 -44.103500 -29.554700
C -11.680000 -49.554800 -27.902100
C -11.353200 -45.929700 -28.916500
C -11.134100 -48.256400 -28.162200
H -10.433000 -45.809800 -28.854400
C -9.711200 -48.141100 -28.029100
N -8.571300 -48.057700 -27.914100
H -19.956500 -54.983200 -25.769500
H -19.396900 -52.830900 -26.222900
H -19.296500 -57.301100 -25.217700
C -19.068700 -54.715600 -25.700400
C -18.732200 -53.449200 -26.026100
C -18.419900 -57.021300 -25.087900
C -18.085000 -55.653200 -25.251100
H -17.667000 -58.828300 -24.750800
H -17.619500 -51.215900 -26.900000
C -17.465400 -57.919700 -24.743900
C -17.358200 -53.056600 -26.070300
C -16.967600 -51.835200 -26.660400
C -16.766100 -55.221400 -25.022700
H -16.382600 -53.709400 -23.020200
C -16.362300 -53.955000 -25.619200
C -16.162700 -57.497000 -24.371500
H -15.960700 -51.617900 -22.188700
C -15.858400 -56.116500 -24.335300
C -15.657000 -51.543900 -26.884600
C -15.506600 -53.463800 -22.829400
H -15.418300 -50.732700 -27.272400
H -15.348900 -59.355400 -24.119900
C -15.253900 -52.205800 -22.337300
C -15.159200 -58.445800 -24.055700
C -15.015200 -53.635700 -25.905500
C -14.670300 -52.469400 -26.529600
C -14.668200 -55.711000 -23.615400
C -14.463800 -54.386500 -23.049800
H -14.347000 -54.233100 -25.663400
C -13.946600 -51.798400 -22.058100
C -13.926500 -58.047100 -23.662100
H -13.777600 -52.290300 -26.718700
H -13.772400 -50.921900 -21.800900
C -13.663400 -56.679700 -23.379500
H -13.245500 -58.672900 -23.575900
C -13.162800 -54.016500 -22.610700
C -12.927400 -52.700800 -22.168100
C -12.403300 -56.288800 -22.844900
C -12.138500 -55.004500 -22.545100
H -12.061900 -52.442400 -21.947600
H -11.749100 -56.932800 -22.700000
H -11.277900 -54.760200 -22.292900
