20
Fragment
N -16.862700 -44.413000 -30.399800
C -15.745200 -44.251500 -30.187400
H -15.044700 -46.461900 -29.151500
C -14.341000 -44.059200 -29.940600
C -14.124500 -46.342900 -29.088800
C -13.846100 -42.744500 -30.200900
H -13.757800 -48.151300 -28.399100
C -13.547200 -45.075600 -29.469300
N -13.472000 -41.670400 -30.374700
C -13.361100 -47.347500 -28.648800
C -12.119700 -44.917400 -29.340400
N -12.088200 -50.612700 -27.724800
C -11.927000 -47.199500 -28.555400
H -11.726500 -44.103500 -29.554700
C -11.680000 -49.554800 -27.902100
C -11.353200 -45.929700 -28.916500
C -11.134100 -48.256400 -28.162200
H -10.433000 -45.809800 -28.854400
C -9.711200 -48.141100 -28.029100
N -8.571300 -48.057700 -27.914100
42
Fragment
H -15.725500 -46.181400 -25.833100
H -15.230600 -48.560100 -25.426100
H -15.031200 -44.052800 -26.174600
C -14.823100 -45.974700 -25.743400
C -14.409000 -44.719400 -25.996800
C -14.340100 -48.346900 -25.262100
C -13.911800 -46.996100 -25.341800
H -13.730500 -50.215700 -25.013200
C -13.465200 -49.324700 -24.951300
H -13.159200 -42.515400 -26.709000
C -13.014700 -44.412600 -25.993500
C -12.566400 -46.667000 -25.066600
C -12.547200 -43.180400 -26.490800
C -12.146900 -49.016600 -24.530900
C -12.082800 -45.396500 -25.579600
H -12.056800 -45.316500 -22.945000
C -11.732300 -47.662700 -24.424400
H -11.499600 -50.948900 -24.328300
H -11.472400 -43.329700 -21.966900
C -11.229100 -50.065000 -24.240300
C -11.214800 -42.943500 -26.659700
C -11.163100 -45.150900 -22.748200
H -10.921900 -42.123500 -26.984900
C -10.813600 -43.953500 -22.174100
C -10.714300 -45.129600 -25.811500
C -10.510800 -47.399500 -23.689500
C -10.292800 -43.941600 -26.340200
C -10.198400 -46.136500 -23.047600
H -10.083800 -45.779400 -25.599700
C -9.971300 -49.789000 -23.839600
C -9.591300 -48.461500 -23.514000
C -9.475600 -43.665900 -21.898900
H -9.385800 -43.796000 -26.487200
H -9.347500 -50.475900 -23.776500
H -9.232900 -42.826300 -21.584900
C -8.864400 -45.892200 -22.610900
C -8.522700 -44.630200 -22.095500
C -8.299400 -48.202300 -22.976100
C -7.919400 -46.958200 -22.617200
H -7.702300 -48.908100 -22.869800
H -7.635400 -44.448100 -21.883900
H -7.037000 -46.796400 -22.373900
62
Fragment
N -16.862700 -44.413000 -30.399800
C -15.745200 -44.251500 -30.187400
H -15.044700 -46.461900 -29.151500
C -14.341000 -44.059200 -29.940600
C -14.124500 -46.342900 -29.088800
C -13.846100 -42.744500 -30.200900
H -13.757800 -48.151300 -28.399100
C -13.547200 -45.075600 -29.469300
N -13.472000 -41.670400 -30.374700
C -13.361100 -47.347500 -28.648800
C -12.119700 -44.917400 -29.340400
N -12.088200 -50.612700 -27.724800
C -11.927000 -47.199500 -28.555400
H -11.726500 -44.103500 -29.554700
C -11.680000 -49.554800 -27.902100
C -11.353200 -45.929700 -28.916500
C -11.134100 -48.256400 -28.162200
H -10.433000 -45.809800 -28.854400
C -9.711200 -48.141100 -28.029100
N -8.571300 -48.057700 -27.914100
H -15.725500 -46.181400 -25.833100
H -15.230600 -48.560100 -25.426100
H -15.031200 -44.052800 -26.174600
C -14.823100 -45.974700 -25.743400
C -14.409000 -44.719400 -25.996800
C -14.340100 -48.346900 -25.262100
C -13.911800 -46.996100 -25.341800
H -13.730500 -50.215700 -25.013200
C -13.465200 -49.324700 -24.951300
H -13.159200 -42.515400 -26.709000
C -13.014700 -44.412600 -25.993500
C -12.566400 -46.667000 -25.066600
C -12.547200 -43.180400 -26.490800
C -12.146900 -49.016600 -24.530900
C -12.082800 -45.396500 -25.579600
H -12.056800 -45.316500 -22.945000
C -11.732300 -47.662700 -24.424400
H -11.499600 -50.948900 -24.328300
H -11.472400 -43.329700 -21.966900
C -11.229100 -50.065000 -24.240300
C -11.214800 -42.943500 -26.659700
C -11.163100 -45.150900 -22.748200
H -10.921900 -42.123500 -26.984900
C -10.813600 -43.953500 -22.174100
C -10.714300 -45.129600 -25.811500
C -10.510800 -47.399500 -23.689500
C -10.292800 -43.941600 -26.340200
C -10.198400 -46.136500 -23.047600
H -10.083800 -45.779400 -25.599700
C -9.971300 -49.789000 -23.839600
C -9.591300 -48.461500 -23.514000
C -9.475600 -43.665900 -21.898900
H -9.385800 -43.796000 -26.487200
H -9.347500 -50.475900 -23.776500
H -9.232900 -42.826300 -21.584900
C -8.864400 -45.892200 -22.610900
C -8.522700 -44.630200 -22.095500
C -8.299400 -48.202300 -22.976100
C -7.919400 -46.958200 -22.617200
H -7.702300 -48.908100 -22.869800
H -7.635400 -44.448100 -21.883900
H -7.037000 -46.796400 -22.373900
