20
Fragment
N -16.862700 -44.413000 -30.399800
C -15.745200 -44.251500 -30.187400
H -15.044700 -46.461900 -29.151500
C -14.341000 -44.059200 -29.940600
C -14.124500 -46.342900 -29.088800
C -13.846100 -42.744500 -30.200900
H -13.757800 -48.151300 -28.399100
C -13.547200 -45.075600 -29.469300
N -13.472000 -41.670400 -30.374700
C -13.361100 -47.347500 -28.648800
C -12.119700 -44.917400 -29.340400
N -12.088200 -50.612700 -27.724800
C -11.927000 -47.199500 -28.555400
H -11.726500 -44.103500 -29.554700
C -11.680000 -49.554800 -27.902100
C -11.353200 -45.929700 -28.916500
C -11.134100 -48.256400 -28.162200
H -10.433000 -45.809800 -28.854400
C -9.711200 -48.141100 -28.029100
N -8.571300 -48.057700 -27.914100
20
Fragment
N -20.953200 -36.195100 -30.704000
C -19.872300 -35.979800 -30.394200
H -19.098200 -38.214200 -29.466000
C -18.517100 -35.709200 -30.004300
C -18.209300 -38.021600 -29.270600
C -18.070000 -34.362700 -30.145900
H -17.760600 -39.832700 -28.646000
N -17.724900 -33.269000 -30.238700
C -17.704100 -36.693400 -29.492000
C -17.413800 -38.982600 -28.786300
C -16.323600 -36.429200 -29.164600
N -16.048100 -42.160300 -27.838800
C -16.029000 -38.723400 -28.478600
H -15.979900 -35.575400 -29.290400
C -15.681700 -41.078800 -27.910200
C -15.526300 -37.393500 -28.682900
C -15.209000 -39.731600 -28.023700
H -14.640300 -37.200600 -28.478200
C -13.830600 -39.521500 -27.688000
N -12.727000 -39.377900 -27.419200
40
Fragment
N -16.862700 -44.413000 -30.399800
C -15.745200 -44.251500 -30.187400
H -15.044700 -46.461900 -29.151500
C -14.341000 -44.059200 -29.940600
C -14.124500 -46.342900 -29.088800
C -13.846100 -42.744500 -30.200900
H -13.757800 -48.151300 -28.399100
C -13.547200 -45.075600 -29.469300
N -13.472000 -41.670400 -30.374700
C -13.361100 -47.347500 -28.648800
C -12.119700 -44.917400 -29.340400
N -12.088200 -50.612700 -27.724800
C -11.927000 -47.199500 -28.555400
H -11.726500 -44.103500 -29.554700
C -11.680000 -49.554800 -27.902100
C -11.353200 -45.929700 -28.916500
C -11.134100 -48.256400 -28.162200
H -10.433000 -45.809800 -28.854400
C -9.711200 -48.141100 -28.029100
N -8.571300 -48.057700 -27.914100
N -20.953200 -36.195100 -30.704000
C -19.872300 -35.979800 -30.394200
H -19.098200 -38.214200 -29.466000
C -18.517100 -35.709200 -30.004300
C -18.209300 -38.021600 -29.270600
C -18.070000 -34.362700 -30.145900
H -17.760600 -39.832700 -28.646000
N -17.724900 -33.269000 -30.238700
C -17.704100 -36.693400 -29.492000
C -17.413800 -38.982600 -28.786300
C -16.323600 -36.429200 -29.164600
N -16.048100 -42.160300 -27.838800
C -16.029000 -38.723400 -28.478600
H -15.979900 -35.575400 -29.290400
C -15.681700 -41.078800 -27.910200
C -15.526300 -37.393500 -28.682900
C -15.209000 -39.731600 -28.023700
H -14.640300 -37.200600 -28.478200
C -13.830600 -39.521500 -27.688000
N -12.727000 -39.377900 -27.419200
