8
Fragment
H -15.732700 -15.802500 -14.544700
H -15.668600 -14.639800 -13.493800
C -15.159100 -15.160600 -14.119000
H -14.779700 -14.580700 -14.784100
O -14.511600 -16.830700 -12.622700
C -14.063200 -15.873500 -13.396900
H -13.855200 -17.249100 -12.129900
O -12.883700 -15.595300 -13.512500
8
Fragment
O -16.857600 -10.856800 -14.436600
H -15.886200 -9.203000 -15.819200
C -15.678200 -10.578600 -14.552200
O -15.229800 -9.621400 -15.326400
H -14.961700 -11.871400 -13.165000
C -14.582300 -11.291500 -13.830100
H -14.072800 -11.812300 -14.455300
H -14.008700 -10.649600 -13.404400
16
Fragment
H -15.732700 -15.802500 -14.544700
H -15.668600 -14.639800 -13.493800
C -15.159100 -15.160600 -14.119000
H -14.779700 -14.580700 -14.784100
O -14.511600 -16.830700 -12.622700
C -14.063200 -15.873500 -13.396900
H -13.855200 -17.249100 -12.129900
O -12.883700 -15.595300 -13.512500
O -16.857600 -10.856800 -14.436600
H -15.886200 -9.203000 -15.819200
C -15.678200 -10.578600 -14.552200
O -15.229800 -9.621400 -15.326400
H -14.961700 -11.871400 -13.165000
C -14.582300 -11.291500 -13.830100
H -14.072800 -11.812300 -14.455300
H -14.008700 -10.649600 -13.404400
