8
Fragment
H -15.732700 -15.802500 -14.544700
H -15.668600 -14.639800 -13.493800
C -15.159100 -15.160600 -14.119000
H -14.779700 -14.580700 -14.784100
O -14.511600 -16.830700 -12.622700
C -14.063200 -15.873500 -13.396900
H -13.855200 -17.249100 -12.129900
O -12.883700 -15.595300 -13.512500
20
Fragment
O -12.724200 -18.153700 -11.235500
N -12.101700 -20.268600 -9.005200
N -12.067900 -21.150200 -8.083800
H -11.894500 -22.732800 -6.308100
C -11.485600 -18.034900 -11.299800
H -11.390100 -16.725200 -12.688900
C -10.975000 -22.637200 -6.567100
C -10.909300 -19.763600 -9.480300
N -10.874300 -17.198700 -12.120600
N -10.864100 -21.608400 -7.601200
H -10.652000 -23.473100 -6.911800
C -10.601700 -18.831400 -10.430600
H -10.452200 -22.382300 -5.803200
H -10.042200 -17.187500 -12.027400
N -9.697700 -20.188200 -8.955800
C -9.603100 -21.195600 -8.005600
N -9.231700 -18.668400 -10.492100
C -8.720300 -19.488900 -9.608000
O -8.581700 -21.655300 -7.592800
H -7.809500 -19.584100 -9.444900
28
Fragment
H -15.732700 -15.802500 -14.544700
H -15.668600 -14.639800 -13.493800
C -15.159100 -15.160600 -14.119000
H -14.779700 -14.580700 -14.784100
O -14.511600 -16.830700 -12.622700
C -14.063200 -15.873500 -13.396900
H -13.855200 -17.249100 -12.129900
O -12.883700 -15.595300 -13.512500
O -12.724200 -18.153700 -11.235500
N -12.101700 -20.268600 -9.005200
N -12.067900 -21.150200 -8.083800
H -11.894500 -22.732800 -6.308100
C -11.485600 -18.034900 -11.299800
H -11.390100 -16.725200 -12.688900
C -10.975000 -22.637200 -6.567100
C -10.909300 -19.763600 -9.480300
N -10.874300 -17.198700 -12.120600
N -10.864100 -21.608400 -7.601200
H -10.652000 -23.473100 -6.911800
C -10.601700 -18.831400 -10.430600
H -10.452200 -22.382300 -5.803200
H -10.042200 -17.187500 -12.027400
N -9.697700 -20.188200 -8.955800
C -9.603100 -21.195600 -8.005600
N -9.231700 -18.668400 -10.492100
C -8.720300 -19.488900 -9.608000
O -8.581700 -21.655300 -7.592800
H -7.809500 -19.584100 -9.444900
