8
Fragment
H -15.732700 -15.802500 -14.544700
H -15.668600 -14.639800 -13.493800
C -15.159100 -15.160600 -14.119000
H -14.779700 -14.580700 -14.784100
O -14.511600 -16.830700 -12.622700
C -14.063200 -15.873500 -13.396900
H -13.855200 -17.249100 -12.129900
O -12.883700 -15.595300 -13.512500
20
Fragment
O -19.813400 -9.275000 -20.551900
N -19.190900 -11.390000 -18.321600
N -19.157100 -12.271600 -17.400200
H -18.983700 -13.854100 -15.624500
C -18.574700 -9.156300 -20.616200
H -18.479200 -7.846600 -22.005300
C -18.064200 -13.758600 -15.883500
C -17.998400 -10.885000 -18.796700
N -17.963500 -8.320100 -21.437000
N -17.953300 -12.729700 -16.917600
H -17.741200 -14.594500 -16.228200
C -17.690900 -9.952800 -19.747000
H -17.541300 -13.503700 -15.119500
H -17.131400 -8.308900 -21.343800
N -16.786900 -11.309600 -18.272200
C -16.692300 -12.317000 -17.321900
N -16.320900 -9.789800 -19.808500
C -15.809500 -10.610200 -18.924300
O -15.670900 -12.776700 -16.909200
H -14.898700 -10.705500 -18.761300
28
Fragment
H -15.732700 -15.802500 -14.544700
H -15.668600 -14.639800 -13.493800
C -15.159100 -15.160600 -14.119000
H -14.779700 -14.580700 -14.784100
O -14.511600 -16.830700 -12.622700
C -14.063200 -15.873500 -13.396900
H -13.855200 -17.249100 -12.129900
O -12.883700 -15.595300 -13.512500
O -19.813400 -9.275000 -20.551900
N -19.190900 -11.390000 -18.321600
N -19.157100 -12.271600 -17.400200
H -18.983700 -13.854100 -15.624500
C -18.574700 -9.156300 -20.616200
H -18.479200 -7.846600 -22.005300
C -18.064200 -13.758600 -15.883500
C -17.998400 -10.885000 -18.796700
N -17.963500 -8.320100 -21.437000
N -17.953300 -12.729700 -16.917600
H -17.741200 -14.594500 -16.228200
C -17.690900 -9.952800 -19.747000
H -17.541300 -13.503700 -15.119500
H -17.131400 -8.308900 -21.343800
N -16.786900 -11.309600 -18.272200
C -16.692300 -12.317000 -17.321900
N -16.320900 -9.789800 -19.808500
C -15.809500 -10.610200 -18.924300
O -15.670900 -12.776700 -16.909200
H -14.898700 -10.705500 -18.761300
