20
Fragment
H -10.059600 -7.775200 -37.239200
H -9.936500 -8.262900 -38.757900
C -9.456600 -8.156800 -37.909700
N -9.386000 -9.826700 -36.176700
N -9.013400 -10.929900 -35.677600
N -8.980500 -9.467000 -37.451200
H -8.691700 -7.558500 -38.038800
O -8.262500 -13.383200 -33.933900
C -8.216700 -10.222500 -38.300400
C -8.204000 -11.759900 -36.418500
O -7.905000 -9.889100 -39.424100
N -7.832900 -11.416000 -37.716000
C -7.678600 -13.802300 -34.939800
C -7.612800 -12.973800 -36.176200
N -7.084700 -14.983100 -35.021100
C -7.051400 -12.418400 -38.192600
H -7.033700 -15.479700 -34.285100
N -6.898400 -13.360600 -37.290700
H -6.676200 -15.208800 -35.736700
H -6.667400 -12.435700 -39.061100
21
Fragment
H -5.647600 -7.352300 -38.478800
H -5.606900 -10.236800 -35.127600
N -5.487700 -9.268300 -36.859800
N -5.302800 -7.606700 -39.186900
C -5.276900 -10.226300 -36.017300
H -5.249900 -7.058800 -39.879400
C -4.834700 -9.640000 -38.041800
C -4.772100 -8.829600 -39.252900
N -4.503300 -11.245200 -36.581300
O -4.462000 -12.479400 -34.723500
H -4.331900 -14.464600 -34.408500
H -4.289900 -13.602200 -33.058900
C -4.230000 -10.854600 -37.884300
O -4.225600 -9.278800 -40.275500
C -4.061000 -12.437200 -35.980600
C -3.982000 -13.650300 -33.988900
H -3.611400 -11.340800 -39.648700
N -3.449400 -11.563500 -38.749300
O -3.401300 -13.253000 -36.557400
H -3.247500 -12.386800 -38.513700
H -3.001900 -13.669100 -34.008700
41
Fragment
H -10.059600 -7.775200 -37.239200
H -9.936500 -8.262900 -38.757900
C -9.456600 -8.156800 -37.909700
N -9.386000 -9.826700 -36.176700
N -9.013400 -10.929900 -35.677600
N -8.980500 -9.467000 -37.451200
H -8.691700 -7.558500 -38.038800
O -8.262500 -13.383200 -33.933900
C -8.216700 -10.222500 -38.300400
C -8.204000 -11.759900 -36.418500
O -7.905000 -9.889100 -39.424100
N -7.832900 -11.416000 -37.716000
C -7.678600 -13.802300 -34.939800
C -7.612800 -12.973800 -36.176200
N -7.084700 -14.983100 -35.021100
C -7.051400 -12.418400 -38.192600
H -7.033700 -15.479700 -34.285100
N -6.898400 -13.360600 -37.290700
H -6.676200 -15.208800 -35.736700
H -6.667400 -12.435700 -39.061100
H -5.647600 -7.352300 -38.478800
H -5.606900 -10.236800 -35.127600
N -5.487700 -9.268300 -36.859800
N -5.302800 -7.606700 -39.186900
C -5.276900 -10.226300 -36.017300
H -5.249900 -7.058800 -39.879400
C -4.834700 -9.640000 -38.041800
C -4.772100 -8.829600 -39.252900
N -4.503300 -11.245200 -36.581300
O -4.462000 -12.479400 -34.723500
H -4.331900 -14.464600 -34.408500
H -4.289900 -13.602200 -33.058900
C -4.230000 -10.854600 -37.884300
O -4.225600 -9.278800 -40.275500
C -4.061000 -12.437200 -35.980600
C -3.982000 -13.650300 -33.988900
H -3.611400 -11.340800 -39.648700
N -3.449400 -11.563500 -38.749300
O -3.401300 -13.253000 -36.557400
H -3.247500 -12.386800 -38.513700
H -3.001900 -13.669100 -34.008700
