17
Fragment
H -17.535800 -14.506200 -23.922500
O -17.382600 -14.019100 -23.153400
H -17.126200 -12.053100 -21.828300
C -16.877900 -14.645300 -22.114800
C -16.766500 -12.406300 -21.047400
O -16.715800 -15.859100 -22.124300
H -16.609200 -10.637000 -20.098400
C -16.557600 -13.786200 -20.971700
C -16.463900 -11.551900 -20.018300
C -16.046400 -14.327800 -19.773500
H -16.002800 -16.222300 -20.268700
C -15.937500 -12.089100 -18.862500
N -15.896400 -15.649300 -19.577000
C -15.724600 -13.431800 -18.739200
H -15.723700 -11.526300 -18.154000
H -15.481400 -15.961500 -18.888800
H -15.357600 -13.763100 -17.950500
20
Fragment
H -18.684800 -8.117400 -24.231600
H -18.548400 -6.700200 -23.771100
N -18.471500 -7.556000 -23.578400
C -18.022900 -7.940500 -22.389500
O -17.906000 -9.107300 -22.045900
N -17.903100 -5.516900 -21.763200
C -17.683800 -6.837400 -21.457400
H -17.612300 -3.893600 -20.650300
C -17.555400 -4.819700 -20.713100
C -17.172700 -6.940600 -20.195700
N -17.098300 -5.635100 -19.723500
N -16.755700 -7.984500 -19.427500
C -16.657600 -5.340900 -18.439600
O -16.653000 -4.220600 -17.981900
H -16.350200 -5.918500 -15.867400
N -16.299100 -7.760400 -18.271900
N -16.254100 -6.458500 -17.784200
C -15.710100 -6.350300 -16.437800
H -15.519200 -7.227700 -16.097600
H -14.901800 -5.833900 -16.460300
37
Fragment
H -17.535800 -14.506200 -23.922500
O -17.382600 -14.019100 -23.153400
H -17.126200 -12.053100 -21.828300
C -16.877900 -14.645300 -22.114800
C -16.766500 -12.406300 -21.047400
O -16.715800 -15.859100 -22.124300
H -16.609200 -10.637000 -20.098400
C -16.557600 -13.786200 -20.971700
C -16.463900 -11.551900 -20.018300
C -16.046400 -14.327800 -19.773500
H -16.002800 -16.222300 -20.268700
C -15.937500 -12.089100 -18.862500
N -15.896400 -15.649300 -19.577000
C -15.724600 -13.431800 -18.739200
H -15.723700 -11.526300 -18.154000
H -15.481400 -15.961500 -18.888800
H -15.357600 -13.763100 -17.950500
H -18.684800 -8.117400 -24.231600
H -18.548400 -6.700200 -23.771100
N -18.471500 -7.556000 -23.578400
C -18.022900 -7.940500 -22.389500
O -17.906000 -9.107300 -22.045900
N -17.903100 -5.516900 -21.763200
C -17.683800 -6.837400 -21.457400
H -17.612300 -3.893600 -20.650300
C -17.555400 -4.819700 -20.713100
C -17.172700 -6.940600 -20.195700
N -17.098300 -5.635100 -19.723500
N -16.755700 -7.984500 -19.427500
C -16.657600 -5.340900 -18.439600
O -16.653000 -4.220600 -17.981900
H -16.350200 -5.918500 -15.867400
N -16.299100 -7.760400 -18.271900
N -16.254100 -6.458500 -17.784200
C -15.710100 -6.350300 -16.437800
H -15.519200 -7.227700 -16.097600
H -14.901800 -5.833900 -16.460300
