20
Fragment
H -10.059600 -7.775200 -37.239200
H -9.936500 -8.262900 -38.757900
C -9.456600 -8.156800 -37.909700
N -9.386000 -9.826700 -36.176700
N -9.013400 -10.929900 -35.677600
N -8.980500 -9.467000 -37.451200
H -8.691700 -7.558500 -38.038800
O -8.262500 -13.383200 -33.933900
C -8.216700 -10.222500 -38.300400
C -8.204000 -11.759900 -36.418500
O -7.905000 -9.889100 -39.424100
N -7.832900 -11.416000 -37.716000
C -7.678600 -13.802300 -34.939800
C -7.612800 -12.973800 -36.176200
N -7.084700 -14.983100 -35.021100
C -7.051400 -12.418400 -38.192600
H -7.033700 -15.479700 -34.285100
N -6.898400 -13.360600 -37.290700
H -6.676200 -15.208800 -35.736700
H -6.667400 -12.435700 -39.061100
21
Fragment
H -10.322400 -1.381700 -46.485300
H -10.076800 -2.664000 -41.980300
O -9.923000 -1.797800 -43.936600
N -9.874900 -3.487300 -41.744800
H -9.713000 -3.710000 -40.845400
C -9.342300 -1.400500 -46.505200
C -9.263300 -2.613600 -44.513500
O -9.098700 -5.772000 -40.218600
C -9.094300 -4.196200 -42.609800
H -9.034400 -1.448600 -47.435100
H -8.992400 -0.586200 -46.085500
O -8.862300 -2.571400 -45.770500
N -8.821000 -3.805600 -43.912700
C -8.552200 -6.221200 -41.241100
C -8.489600 -5.410800 -42.452300
H -8.074400 -7.992000 -40.614600
C -8.047400 -4.824500 -44.476700
N -8.021500 -7.444100 -41.307100
N -7.836600 -5.782500 -43.634200
H -7.717400 -4.814000 -45.366400
H -7.676700 -7.698500 -42.015200
41
Fragment
H -10.059600 -7.775200 -37.239200
H -9.936500 -8.262900 -38.757900
C -9.456600 -8.156800 -37.909700
N -9.386000 -9.826700 -36.176700
N -9.013400 -10.929900 -35.677600
N -8.980500 -9.467000 -37.451200
H -8.691700 -7.558500 -38.038800
O -8.262500 -13.383200 -33.933900
C -8.216700 -10.222500 -38.300400
C -8.204000 -11.759900 -36.418500
O -7.905000 -9.889100 -39.424100
N -7.832900 -11.416000 -37.716000
C -7.678600 -13.802300 -34.939800
C -7.612800 -12.973800 -36.176200
N -7.084700 -14.983100 -35.021100
C -7.051400 -12.418400 -38.192600
H -7.033700 -15.479700 -34.285100
N -6.898400 -13.360600 -37.290700
H -6.676200 -15.208800 -35.736700
H -6.667400 -12.435700 -39.061100
H -10.322400 -1.381700 -46.485300
H -10.076800 -2.664000 -41.980300
O -9.923000 -1.797800 -43.936600
N -9.874900 -3.487300 -41.744800
H -9.713000 -3.710000 -40.845400
C -9.342300 -1.400500 -46.505200
C -9.263300 -2.613600 -44.513500
O -9.098700 -5.772000 -40.218600
C -9.094300 -4.196200 -42.609800
H -9.034400 -1.448600 -47.435100
H -8.992400 -0.586200 -46.085500
O -8.862300 -2.571400 -45.770500
N -8.821000 -3.805600 -43.912700
C -8.552200 -6.221200 -41.241100
C -8.489600 -5.410800 -42.452300
H -8.074400 -7.992000 -40.614600
C -8.047400 -4.824500 -44.476700
N -8.021500 -7.444100 -41.307100
N -7.836600 -5.782500 -43.634200
H -7.717400 -4.814000 -45.366400
H -7.676700 -7.698500 -42.015200
