20
Fragment
H -10.059600 -7.775200 -37.239200
H -9.936500 -8.262900 -38.757900
C -9.456600 -8.156800 -37.909700
N -9.386000 -9.826700 -36.176700
N -9.013400 -10.929900 -35.677600
N -8.980500 -9.467000 -37.451200
H -8.691700 -7.558500 -38.038800
O -8.262500 -13.383200 -33.933900
C -8.216700 -10.222500 -38.300400
C -8.204000 -11.759900 -36.418500
O -7.905000 -9.889100 -39.424100
N -7.832900 -11.416000 -37.716000
C -7.678600 -13.802300 -34.939800
C -7.612800 -12.973800 -36.176200
N -7.084700 -14.983100 -35.021100
C -7.051400 -12.418400 -38.192600
H -7.033700 -15.479700 -34.285100
N -6.898400 -13.360600 -37.290700
H -6.676200 -15.208800 -35.736700
H -6.667400 -12.435700 -39.061100
21
Fragment
H -11.978500 -9.906400 -33.069600
H -11.732900 -8.624100 -28.564700
O -11.579000 -9.490300 -30.520900
N -11.530900 -7.800800 -28.329100
H -11.369000 -7.578100 -27.429700
C -10.998300 -9.887600 -33.089500
C -10.919300 -8.674500 -31.097800
O -10.754700 -5.516100 -26.802900
C -10.750300 -7.091900 -29.194100
H -10.690500 -9.839500 -34.019500
H -10.648500 -10.701900 -32.669900
O -10.518300 -8.716700 -32.354900
N -10.477100 -7.482500 -30.497100
C -10.208300 -5.066900 -27.825500
C -10.145600 -5.877300 -29.036600
H -9.730500 -3.296100 -27.198900
C -9.703400 -6.463600 -31.061000
N -9.677500 -3.844000 -27.891500
N -9.492600 -5.505600 -30.218500
H -9.373400 -6.474100 -31.950800
H -9.332700 -3.589600 -28.599500
41
Fragment
H -10.059600 -7.775200 -37.239200
H -9.936500 -8.262900 -38.757900
C -9.456600 -8.156800 -37.909700
N -9.386000 -9.826700 -36.176700
N -9.013400 -10.929900 -35.677600
N -8.980500 -9.467000 -37.451200
H -8.691700 -7.558500 -38.038800
O -8.262500 -13.383200 -33.933900
C -8.216700 -10.222500 -38.300400
C -8.204000 -11.759900 -36.418500
O -7.905000 -9.889100 -39.424100
N -7.832900 -11.416000 -37.716000
C -7.678600 -13.802300 -34.939800
C -7.612800 -12.973800 -36.176200
N -7.084700 -14.983100 -35.021100
C -7.051400 -12.418400 -38.192600
H -7.033700 -15.479700 -34.285100
N -6.898400 -13.360600 -37.290700
H -6.676200 -15.208800 -35.736700
H -6.667400 -12.435700 -39.061100
H -11.978500 -9.906400 -33.069600
H -11.732900 -8.624100 -28.564700
O -11.579000 -9.490300 -30.520900
N -11.530900 -7.800800 -28.329100
H -11.369000 -7.578100 -27.429700
C -10.998300 -9.887600 -33.089500
C -10.919300 -8.674500 -31.097800
O -10.754700 -5.516100 -26.802900
C -10.750300 -7.091900 -29.194100
H -10.690500 -9.839500 -34.019500
H -10.648500 -10.701900 -32.669900
O -10.518300 -8.716700 -32.354900
N -10.477100 -7.482500 -30.497100
C -10.208300 -5.066900 -27.825500
C -10.145600 -5.877300 -29.036600
H -9.730500 -3.296100 -27.198900
C -9.703400 -6.463600 -31.061000
N -9.677500 -3.844000 -27.891500
N -9.492600 -5.505600 -30.218500
H -9.373400 -6.474100 -31.950800
H -9.332700 -3.589600 -28.599500
