17
Fragment
H -17.535800 -14.506200 -23.922500
O -17.382600 -14.019100 -23.153400
H -17.126200 -12.053100 -21.828300
C -16.877900 -14.645300 -22.114800
C -16.766500 -12.406300 -21.047400
O -16.715800 -15.859100 -22.124300
H -16.609200 -10.637000 -20.098400
C -16.557600 -13.786200 -20.971700
C -16.463900 -11.551900 -20.018300
C -16.046400 -14.327800 -19.773500
H -16.002800 -16.222300 -20.268700
C -15.937500 -12.089100 -18.862500
N -15.896400 -15.649300 -19.577000
C -15.724600 -13.431800 -18.739200
H -15.723700 -11.526300 -18.154000
H -15.481400 -15.961500 -18.888800
H -15.357600 -13.763100 -17.950500
20
Fragment
H -18.205200 -11.812800 -16.088200
H -18.148600 -13.353600 -16.424000
N -18.028100 -12.712800 -15.806800
N -17.825300 -10.577300 -14.010500
H -17.720400 -8.902100 -12.943700
C -17.669100 -13.022000 -14.571800
C -17.564000 -9.818400 -12.978200
O -17.518200 -14.169700 -14.181100
C -17.474000 -11.861000 -13.664700
N -17.035700 -10.548400 -11.966900
C -16.971500 -11.863900 -12.395400
O -16.736100 -9.045600 -10.262200
C -16.611700 -10.165100 -10.700000
N -16.442400 -12.832400 -11.598500
H -16.152800 -10.881600 -8.077200
N -16.031100 -11.203300 -10.043000
N -15.981100 -12.513300 -10.468000
C -15.450300 -10.994900 -8.721900
H -14.917500 -11.756800 -8.482500
H -14.898400 -10.210400 -8.734800
37
Fragment
H -17.535800 -14.506200 -23.922500
O -17.382600 -14.019100 -23.153400
H -17.126200 -12.053100 -21.828300
C -16.877900 -14.645300 -22.114800
C -16.766500 -12.406300 -21.047400
O -16.715800 -15.859100 -22.124300
H -16.609200 -10.637000 -20.098400
C -16.557600 -13.786200 -20.971700
C -16.463900 -11.551900 -20.018300
C -16.046400 -14.327800 -19.773500
H -16.002800 -16.222300 -20.268700
C -15.937500 -12.089100 -18.862500
N -15.896400 -15.649300 -19.577000
C -15.724600 -13.431800 -18.739200
H -15.723700 -11.526300 -18.154000
H -15.481400 -15.961500 -18.888800
H -15.357600 -13.763100 -17.950500
H -18.205200 -11.812800 -16.088200
H -18.148600 -13.353600 -16.424000
N -18.028100 -12.712800 -15.806800
N -17.825300 -10.577300 -14.010500
H -17.720400 -8.902100 -12.943700
C -17.669100 -13.022000 -14.571800
C -17.564000 -9.818400 -12.978200
O -17.518200 -14.169700 -14.181100
C -17.474000 -11.861000 -13.664700
N -17.035700 -10.548400 -11.966900
C -16.971500 -11.863900 -12.395400
O -16.736100 -9.045600 -10.262200
C -16.611700 -10.165100 -10.700000
N -16.442400 -12.832400 -11.598500
H -16.152800 -10.881600 -8.077200
N -16.031100 -11.203300 -10.043000
N -15.981100 -12.513300 -10.468000
C -15.450300 -10.994900 -8.721900
H -14.917500 -11.756800 -8.482500
H -14.898400 -10.210400 -8.734800
