17
Fragment
H -17.535800 -14.506200 -23.922500
O -17.382600 -14.019100 -23.153400
H -17.126200 -12.053100 -21.828300
C -16.877900 -14.645300 -22.114800
C -16.766500 -12.406300 -21.047400
O -16.715800 -15.859100 -22.124300
H -16.609200 -10.637000 -20.098400
C -16.557600 -13.786200 -20.971700
C -16.463900 -11.551900 -20.018300
C -16.046400 -14.327800 -19.773500
H -16.002800 -16.222300 -20.268700
C -15.937500 -12.089100 -18.862500
N -15.896400 -15.649300 -19.577000
C -15.724600 -13.431800 -18.739200
H -15.723700 -11.526300 -18.154000
H -15.481400 -15.961500 -18.888800
H -15.357600 -13.763100 -17.950500
17
Fragment
H -19.276300 -17.801500 -29.358300
H -19.152500 -15.603100 -28.420000
H -18.910200 -20.038300 -29.154900
C -18.909300 -18.132800 -28.569600
N -18.737500 -15.915300 -27.731800
C -18.696400 -19.475500 -28.446300
H -18.631100 -15.342300 -27.040200
C -18.587500 -17.236800 -27.535300
C -18.170000 -20.012700 -27.290600
C -18.076300 -17.778400 -26.337100
H -18.024700 -20.927600 -27.210500
O -17.918100 -15.705500 -25.184500
C -17.867500 -19.158300 -26.261400
C -17.756000 -16.919300 -25.194000
H -17.507700 -19.511500 -25.480500
O -17.251300 -17.545500 -24.155400
H -17.098100 -17.058400 -23.386300
34
Fragment
H -17.535800 -14.506200 -23.922500
O -17.382600 -14.019100 -23.153400
H -17.126200 -12.053100 -21.828300
C -16.877900 -14.645300 -22.114800
C -16.766500 -12.406300 -21.047400
O -16.715800 -15.859100 -22.124300
H -16.609200 -10.637000 -20.098400
C -16.557600 -13.786200 -20.971700
C -16.463900 -11.551900 -20.018300
C -16.046400 -14.327800 -19.773500
H -16.002800 -16.222300 -20.268700
C -15.937500 -12.089100 -18.862500
N -15.896400 -15.649300 -19.577000
C -15.724600 -13.431800 -18.739200
H -15.723700 -11.526300 -18.154000
H -15.481400 -15.961500 -18.888800
H -15.357600 -13.763100 -17.950500
H -19.276300 -17.801500 -29.358300
H -19.152500 -15.603100 -28.420000
H -18.910200 -20.038300 -29.154900
C -18.909300 -18.132800 -28.569600
N -18.737500 -15.915300 -27.731800
C -18.696400 -19.475500 -28.446300
H -18.631100 -15.342300 -27.040200
C -18.587500 -17.236800 -27.535300
C -18.170000 -20.012700 -27.290600
C -18.076300 -17.778400 -26.337100
H -18.024700 -20.927600 -27.210500
O -17.918100 -15.705500 -25.184500
C -17.867500 -19.158300 -26.261400
C -17.756000 -16.919300 -25.194000
H -17.507700 -19.511500 -25.480500
O -17.251300 -17.545500 -24.155400
H -17.098100 -17.058400 -23.386300
