17
Fragment
H -17.535800 -14.506200 -23.922500
O -17.382600 -14.019100 -23.153400
H -17.126200 -12.053100 -21.828300
C -16.877900 -14.645300 -22.114800
C -16.766500 -12.406300 -21.047400
O -16.715800 -15.859100 -22.124300
H -16.609200 -10.637000 -20.098400
C -16.557600 -13.786200 -20.971700
C -16.463900 -11.551900 -20.018300
C -16.046400 -14.327800 -19.773500
H -16.002800 -16.222300 -20.268700
C -15.937500 -12.089100 -18.862500
N -15.896400 -15.649300 -19.577000
C -15.724600 -13.431800 -18.739200
H -15.723700 -11.526300 -18.154000
H -15.481400 -15.961500 -18.888800
H -15.357600 -13.763100 -17.950500
20
Fragment
H -15.091500 -15.209100 -15.078900
H -14.474100 -13.815300 -15.441600
C -14.283200 -14.692800 -15.101500
N -13.739100 -14.584500 -13.755000
N -13.694200 -13.282700 -13.267300
H -13.643100 -15.124600 -15.671800
O -13.340300 -16.822500 -13.557300
C -13.335700 -15.702200 -13.099700
N -13.237600 -13.058500 -12.111700
N -12.895000 -15.407900 -11.815700
C -12.820600 -14.102400 -11.343600
C -12.437800 -16.223400 -10.826200
H -12.380900 -17.149400 -10.888900
C -12.309500 -14.205700 -10.081800
N -12.090200 -15.526200 -9.776100
O -12.087200 -11.935700 -9.493300
C -11.970400 -13.102600 -9.149700
N -11.521800 -13.487000 -7.960800
H -11.444800 -14.342900 -7.768100
H -11.308500 -12.925700 -7.307600
37
Fragment
H -17.535800 -14.506200 -23.922500
O -17.382600 -14.019100 -23.153400
H -17.126200 -12.053100 -21.828300
C -16.877900 -14.645300 -22.114800
C -16.766500 -12.406300 -21.047400
O -16.715800 -15.859100 -22.124300
H -16.609200 -10.637000 -20.098400
C -16.557600 -13.786200 -20.971700
C -16.463900 -11.551900 -20.018300
C -16.046400 -14.327800 -19.773500
H -16.002800 -16.222300 -20.268700
C -15.937500 -12.089100 -18.862500
N -15.896400 -15.649300 -19.577000
C -15.724600 -13.431800 -18.739200
H -15.723700 -11.526300 -18.154000
H -15.481400 -15.961500 -18.888800
H -15.357600 -13.763100 -17.950500
H -15.091500 -15.209100 -15.078900
H -14.474100 -13.815300 -15.441600
C -14.283200 -14.692800 -15.101500
N -13.739100 -14.584500 -13.755000
N -13.694200 -13.282700 -13.267300
H -13.643100 -15.124600 -15.671800
O -13.340300 -16.822500 -13.557300
C -13.335700 -15.702200 -13.099700
N -13.237600 -13.058500 -12.111700
N -12.895000 -15.407900 -11.815700
C -12.820600 -14.102400 -11.343600
C -12.437800 -16.223400 -10.826200
H -12.380900 -17.149400 -10.888900
C -12.309500 -14.205700 -10.081800
N -12.090200 -15.526200 -9.776100
O -12.087200 -11.935700 -9.493300
C -11.970400 -13.102600 -9.149700
N -11.521800 -13.487000 -7.960800
H -11.444800 -14.342900 -7.768100
H -11.308500 -12.925700 -7.307600
