17
Fragment
H -17.535800 -14.506200 -23.922500
O -17.382600 -14.019100 -23.153400
H -17.126200 -12.053100 -21.828300
C -16.877900 -14.645300 -22.114800
C -16.766500 -12.406300 -21.047400
O -16.715800 -15.859100 -22.124300
H -16.609200 -10.637000 -20.098400
C -16.557600 -13.786200 -20.971700
C -16.463900 -11.551900 -20.018300
C -16.046400 -14.327800 -19.773500
H -16.002800 -16.222300 -20.268700
C -15.937500 -12.089100 -18.862500
N -15.896400 -15.649300 -19.577000
C -15.724600 -13.431800 -18.739200
H -15.723700 -11.526300 -18.154000
H -15.481400 -15.961500 -18.888800
H -15.357600 -13.763100 -17.950500
20
Fragment
H -24.430300 -15.338200 -30.848500
H -23.812900 -13.944400 -31.211200
C -23.622000 -14.821800 -30.871100
N -23.078000 -14.713600 -29.524700
N -23.033100 -13.411800 -29.036900
H -22.982000 -15.253600 -31.441500
O -22.679100 -16.951500 -29.326900
C -22.674600 -15.831200 -28.869300
N -22.576400 -13.187600 -27.881300
N -22.233800 -15.537000 -27.585300
C -22.159500 -14.231500 -27.113200
C -21.776700 -16.352400 -26.595800
H -21.719800 -17.278500 -26.658500
C -21.648400 -14.334700 -25.851400
N -21.429100 -15.655200 -25.545700
O -21.426100 -12.064800 -25.262900
C -21.309200 -13.231600 -24.919300
N -20.860700 -13.616100 -23.730400
H -20.783700 -14.471900 -23.537700
H -20.647300 -13.054700 -23.077200
37
Fragment
H -17.535800 -14.506200 -23.922500
O -17.382600 -14.019100 -23.153400
H -17.126200 -12.053100 -21.828300
C -16.877900 -14.645300 -22.114800
C -16.766500 -12.406300 -21.047400
O -16.715800 -15.859100 -22.124300
H -16.609200 -10.637000 -20.098400
C -16.557600 -13.786200 -20.971700
C -16.463900 -11.551900 -20.018300
C -16.046400 -14.327800 -19.773500
H -16.002800 -16.222300 -20.268700
C -15.937500 -12.089100 -18.862500
N -15.896400 -15.649300 -19.577000
C -15.724600 -13.431800 -18.739200
H -15.723700 -11.526300 -18.154000
H -15.481400 -15.961500 -18.888800
H -15.357600 -13.763100 -17.950500
H -24.430300 -15.338200 -30.848500
H -23.812900 -13.944400 -31.211200
C -23.622000 -14.821800 -30.871100
N -23.078000 -14.713600 -29.524700
N -23.033100 -13.411800 -29.036900
H -22.982000 -15.253600 -31.441500
O -22.679100 -16.951500 -29.326900
C -22.674600 -15.831200 -28.869300
N -22.576400 -13.187600 -27.881300
N -22.233800 -15.537000 -27.585300
C -22.159500 -14.231500 -27.113200
C -21.776700 -16.352400 -26.595800
H -21.719800 -17.278500 -26.658500
C -21.648400 -14.334700 -25.851400
N -21.429100 -15.655200 -25.545700
O -21.426100 -12.064800 -25.262900
C -21.309200 -13.231600 -24.919300
N -20.860700 -13.616100 -23.730400
H -20.783700 -14.471900 -23.537700
H -20.647300 -13.054700 -23.077200
