20
Fragment
H -33.005600 -9.956600 -18.559200
H -32.605800 -8.585200 -17.912800
H -32.587900 -8.752600 -19.472200
C -32.429200 -9.193400 -18.634100
O -31.098100 -10.008200 -16.317900
N -31.040100 -9.627700 -18.571000
C -30.534600 -10.052600 -17.370200
N -30.414900 -9.672100 -19.792800
N -29.238400 -10.545100 -17.521300
N -29.221200 -10.116600 -19.883400
C -28.603500 -10.584400 -18.741800
H -28.581000 -11.227500 -15.716200
C -28.388600 -11.124900 -16.621400
C -27.397300 -11.174400 -18.506600
N -27.285300 -11.514900 -17.174500
O -26.416400 -11.191100 -20.659800
C -26.325100 -11.490900 -19.460400
N -25.255200 -12.094000 -18.950700
H -25.241100 -12.258400 -18.063900
H -24.690300 -12.353000 -19.469600
20
Fragment
H -30.759100 -8.715400 -13.373800
H -30.208300 -8.620900 -14.779500
N -30.194200 -8.456500 -13.892800
C -29.124400 -7.853400 -13.383000
O -29.033000 -7.553600 -12.183600
N -28.164200 -7.877400 -15.668900
C -28.052200 -7.536900 -14.336800
C -27.060800 -7.487400 -16.222000
H -26.868500 -7.590000 -17.127200
C -26.845900 -6.946900 -14.101700
N -26.228200 -6.479100 -12.960000
N -26.211100 -6.907600 -15.322100
N -25.034500 -6.034600 -13.050700
C -24.914900 -6.415100 -15.473200
N -24.409300 -5.990200 -14.272400
O -24.351300 -6.370700 -16.525500
C -23.020200 -5.555900 -14.209400
H -22.861600 -5.115100 -13.371200
H -22.843700 -4.947700 -14.930600
H -22.443900 -6.319100 -14.284300
40
Fragment
H -33.005600 -9.956600 -18.559200
H -32.605800 -8.585200 -17.912800
H -32.587900 -8.752600 -19.472200
C -32.429200 -9.193400 -18.634100
O -31.098100 -10.008200 -16.317900
N -31.040100 -9.627700 -18.571000
C -30.534600 -10.052600 -17.370200
N -30.414900 -9.672100 -19.792800
N -29.238400 -10.545100 -17.521300
N -29.221200 -10.116600 -19.883400
C -28.603500 -10.584400 -18.741800
H -28.581000 -11.227500 -15.716200
C -28.388600 -11.124900 -16.621400
C -27.397300 -11.174400 -18.506600
N -27.285300 -11.514900 -17.174500
O -26.416400 -11.191100 -20.659800
C -26.325100 -11.490900 -19.460400
N -25.255200 -12.094000 -18.950700
H -25.241100 -12.258400 -18.063900
H -24.690300 -12.353000 -19.469600
H -30.759100 -8.715400 -13.373800
H -30.208300 -8.620900 -14.779500
N -30.194200 -8.456500 -13.892800
C -29.124400 -7.853400 -13.383000
O -29.033000 -7.553600 -12.183600
N -28.164200 -7.877400 -15.668900
C -28.052200 -7.536900 -14.336800
C -27.060800 -7.487400 -16.222000
H -26.868500 -7.590000 -17.127200
C -26.845900 -6.946900 -14.101700
N -26.228200 -6.479100 -12.960000
N -26.211100 -6.907600 -15.322100
N -25.034500 -6.034600 -13.050700
C -24.914900 -6.415100 -15.473200
N -24.409300 -5.990200 -14.272400
O -24.351300 -6.370700 -16.525500
C -23.020200 -5.555900 -14.209400
H -22.861600 -5.115100 -13.371200
H -22.843700 -4.947700 -14.930600
H -22.443900 -6.319100 -14.284300
