8
Fragment
H -17.761700 -10.747800 -26.827300
O -17.462200 -10.010100 -27.403200
C -16.863000 -10.488900 -28.452000
O -16.692300 -11.648400 -28.707100
O -16.545100 -8.218200 -29.143700
C -16.374400 -9.377700 -29.398800
O -15.775200 -9.856500 -30.447600
H -15.475700 -9.118800 -31.023500
20
Fragment
H -17.691900 -6.503000 -20.691300
N -17.326900 -6.976500 -21.357900
H -17.305800 -7.840700 -21.366200
C -16.676600 -6.333500 -22.303600
O -16.587700 -5.093800 -22.368400
N -16.163100 -8.556500 -23.263200
C -16.063200 -7.187700 -23.339100
C -15.608400 -9.025400 -24.342500
H -15.548400 -9.930000 -24.550000
C -15.421700 -6.832800 -24.492300
N -15.127600 -8.023500 -25.130000
N -15.102400 -5.621600 -25.053300
N -14.496500 -5.607000 -26.170900
C -14.465400 -8.065200 -26.359500
O -14.195800 -9.069100 -26.946300
N -14.183400 -6.790400 -26.794200
H -13.785700 -7.219500 -28.703600
H -13.573300 -5.705700 -28.354600
C -13.452900 -6.606300 -28.044300
H -12.519400 -6.771200 -27.895700
28
Fragment
H -17.761700 -10.747800 -26.827300
O -17.462200 -10.010100 -27.403200
C -16.863000 -10.488900 -28.452000
O -16.692300 -11.648400 -28.707100
O -16.545100 -8.218200 -29.143700
C -16.374400 -9.377700 -29.398800
O -15.775200 -9.856500 -30.447600
H -15.475700 -9.118800 -31.023500
H -17.691900 -6.503000 -20.691300
N -17.326900 -6.976500 -21.357900
H -17.305800 -7.840700 -21.366200
C -16.676600 -6.333500 -22.303600
O -16.587700 -5.093800 -22.368400
N -16.163100 -8.556500 -23.263200
C -16.063200 -7.187700 -23.339100
C -15.608400 -9.025400 -24.342500
H -15.548400 -9.930000 -24.550000
C -15.421700 -6.832800 -24.492300
N -15.127600 -8.023500 -25.130000
N -15.102400 -5.621600 -25.053300
N -14.496500 -5.607000 -26.170900
C -14.465400 -8.065200 -26.359500
O -14.195800 -9.069100 -26.946300
N -14.183400 -6.790400 -26.794200
H -13.785700 -7.219500 -28.703600
H -13.573300 -5.705700 -28.354600
C -13.452900 -6.606300 -28.044300
H -12.519400 -6.771200 -27.895700
