14
Fragment
H -12.136600 -9.336300 -14.368000
O -11.941000 -9.367800 -15.278800
H -11.273700 -10.633700 -17.455000
C -10.876700 -10.098200 -15.522600
C -10.545800 -10.159800 -16.979400
H -10.498800 -9.238100 -17.338600
O -10.229800 -10.668700 -14.657800
O -9.544200 -10.358900 -19.579000
H -9.275200 -11.789500 -16.898100
C -9.228200 -10.867800 -17.257400
C -8.897300 -10.929400 -18.714100
H -8.500300 -10.393900 -16.781700
O -7.833000 -11.659800 -18.957900
H -7.637400 -11.691300 -19.868700
20
Fragment
H -6.358800 -13.443600 -17.323800
H -6.183900 -13.576800 -15.828800
N -5.888100 -13.317500 -16.623200
N -5.045300 -12.735700 -19.197600
H -4.702100 -12.429400 -21.149200
C -4.688900 -12.768700 -16.732900
C -4.385300 -12.347400 -20.256700
C -4.252700 -12.439900 -18.105900
O -3.938900 -12.534600 -15.769000
N -3.173400 -11.806300 -19.907400
C -3.078900 -11.872200 -18.521700
O -2.183200 -11.255400 -21.903700
C -2.143800 -11.304400 -20.694500
N -1.941300 -11.467800 -17.867100
N -1.092300 -10.883200 -19.921600
N -0.973200 -11.006500 -18.542700
H -0.092500 -9.974100 -21.413900
C 0.133100 -10.419900 -20.570300
H 0.595100 -9.788300 -19.980600
H 0.716400 -11.186000 -20.750900
34
Fragment
H -12.136600 -9.336300 -14.368000
O -11.941000 -9.367800 -15.278800
H -11.273700 -10.633700 -17.455000
C -10.876700 -10.098200 -15.522600
C -10.545800 -10.159800 -16.979400
H -10.498800 -9.238100 -17.338600
O -10.229800 -10.668700 -14.657800
O -9.544200 -10.358900 -19.579000
H -9.275200 -11.789500 -16.898100
C -9.228200 -10.867800 -17.257400
C -8.897300 -10.929400 -18.714100
H -8.500300 -10.393900 -16.781700
O -7.833000 -11.659800 -18.957900
H -7.637400 -11.691300 -19.868700
H -6.358800 -13.443600 -17.323800
H -6.183900 -13.576800 -15.828800
N -5.888100 -13.317500 -16.623200
N -5.045300 -12.735700 -19.197600
H -4.702100 -12.429400 -21.149200
C -4.688900 -12.768700 -16.732900
C -4.385300 -12.347400 -20.256700
C -4.252700 -12.439900 -18.105900
O -3.938900 -12.534600 -15.769000
N -3.173400 -11.806300 -19.907400
C -3.078900 -11.872200 -18.521700
O -2.183200 -11.255400 -21.903700
C -2.143800 -11.304400 -20.694500
N -1.941300 -11.467800 -17.867100
N -1.092300 -10.883200 -19.921600
N -0.973200 -11.006500 -18.542700
H -0.092500 -9.974100 -21.413900
C 0.133100 -10.419900 -20.570300
H 0.595100 -9.788300 -19.980600
H 0.716400 -11.186000 -20.750900
