20
Fragment
H -33.005600 -9.956600 -18.559200
H -32.605800 -8.585200 -17.912800
H -32.587900 -8.752600 -19.472200
C -32.429200 -9.193400 -18.634100
O -31.098100 -10.008200 -16.317900
N -31.040100 -9.627700 -18.571000
C -30.534600 -10.052600 -17.370200
N -30.414900 -9.672100 -19.792800
N -29.238400 -10.545100 -17.521300
N -29.221200 -10.116600 -19.883400
C -28.603500 -10.584400 -18.741800
H -28.581000 -11.227500 -15.716200
C -28.388600 -11.124900 -16.621400
C -27.397300 -11.174400 -18.506600
N -27.285300 -11.514900 -17.174500
O -26.416400 -11.191100 -20.659800
C -26.325100 -11.490900 -19.460400
N -25.255200 -12.094000 -18.950700
H -25.241100 -12.258400 -18.063900
H -24.690300 -12.353000 -19.469600
20
Fragment
H -33.214200 -11.868400 -11.990500
H -32.814400 -13.239800 -11.344100
H -32.796500 -13.072400 -12.903500
C -32.637800 -12.631600 -12.065400
O -31.306700 -11.816800 -9.749200
N -31.248800 -12.197300 -12.002300
C -30.743200 -11.772400 -10.801600
N -30.623600 -12.152900 -13.224100
N -29.447000 -11.279900 -10.952600
N -29.429800 -11.708400 -13.314700
C -28.812100 -11.240600 -12.173100
H -28.789600 -10.597500 -9.147600
C -28.597200 -10.700100 -10.052700
C -27.605900 -10.650600 -11.937900
N -27.493900 -10.310100 -10.605800
O -26.625100 -10.633900 -14.091200
C -26.533700 -10.334100 -12.891700
N -25.463800 -9.731000 -12.382000
H -25.449700 -9.566600 -11.495200
H -24.898900 -9.472100 -12.900900
40
Fragment
H -33.005600 -9.956600 -18.559200
H -32.605800 -8.585200 -17.912800
H -32.587900 -8.752600 -19.472200
C -32.429200 -9.193400 -18.634100
O -31.098100 -10.008200 -16.317900
N -31.040100 -9.627700 -18.571000
C -30.534600 -10.052600 -17.370200
N -30.414900 -9.672100 -19.792800
N -29.238400 -10.545100 -17.521300
N -29.221200 -10.116600 -19.883400
C -28.603500 -10.584400 -18.741800
H -28.581000 -11.227500 -15.716200
C -28.388600 -11.124900 -16.621400
C -27.397300 -11.174400 -18.506600
N -27.285300 -11.514900 -17.174500
O -26.416400 -11.191100 -20.659800
C -26.325100 -11.490900 -19.460400
N -25.255200 -12.094000 -18.950700
H -25.241100 -12.258400 -18.063900
H -24.690300 -12.353000 -19.469600
H -33.214200 -11.868400 -11.990500
H -32.814400 -13.239800 -11.344100
H -32.796500 -13.072400 -12.903500
C -32.637800 -12.631600 -12.065400
O -31.306700 -11.816800 -9.749200
N -31.248800 -12.197300 -12.002300
C -30.743200 -11.772400 -10.801600
N -30.623600 -12.152900 -13.224100
N -29.447000 -11.279900 -10.952600
N -29.429800 -11.708400 -13.314700
C -28.812100 -11.240600 -12.173100
H -28.789600 -10.597500 -9.147600
C -28.597200 -10.700100 -10.052700
C -27.605900 -10.650600 -11.937900
N -27.493900 -10.310100 -10.605800
O -26.625100 -10.633900 -14.091200
C -26.533700 -10.334100 -12.891700
N -25.463800 -9.731000 -12.382000
H -25.449700 -9.566600 -11.495200
H -24.898900 -9.472100 -12.900900
