14
Fragment
H -12.136600 -9.336300 -14.368000
O -11.941000 -9.367800 -15.278800
H -11.273700 -10.633700 -17.455000
C -10.876700 -10.098200 -15.522600
C -10.545800 -10.159800 -16.979400
H -10.498800 -9.238100 -17.338600
O -10.229800 -10.668700 -14.657800
O -9.544200 -10.358900 -19.579000
H -9.275200 -11.789500 -16.898100
C -9.228200 -10.867800 -17.257400
C -8.897300 -10.929400 -18.714100
H -8.500300 -10.393900 -16.781700
O -7.833000 -11.659800 -18.957900
H -7.637400 -11.691300 -19.868700
20
Fragment
H -20.490300 -9.841600 -13.485800
H -20.369100 -11.239300 -14.256200
C -19.907100 -10.607700 -13.666400
H -19.681500 -11.053500 -12.822800
N -18.800800 -10.021100 -15.694000
N -18.681700 -10.144400 -14.315200
N -17.832700 -9.559800 -16.369600
C -17.630200 -9.723200 -13.542200
O -17.590800 -9.772200 -12.333000
C -16.695100 -9.155400 -15.715000
N -16.600600 -9.221300 -14.329300
O -15.835100 -8.493000 -18.467700
C -15.521300 -8.587700 -16.130900
C -15.388700 -8.680200 -13.980000
C -15.085100 -8.258900 -17.503900
H -15.071900 -8.598200 -13.087600
N -14.728700 -8.291900 -15.039200
N -13.885900 -7.710100 -17.613500
H -13.590100 -7.450800 -18.407900
H -13.415200 -7.584000 -16.912900
34
Fragment
H -12.136600 -9.336300 -14.368000
O -11.941000 -9.367800 -15.278800
H -11.273700 -10.633700 -17.455000
C -10.876700 -10.098200 -15.522600
C -10.545800 -10.159800 -16.979400
H -10.498800 -9.238100 -17.338600
O -10.229800 -10.668700 -14.657800
O -9.544200 -10.358900 -19.579000
H -9.275200 -11.789500 -16.898100
C -9.228200 -10.867800 -17.257400
C -8.897300 -10.929400 -18.714100
H -8.500300 -10.393900 -16.781700
O -7.833000 -11.659800 -18.957900
H -7.637400 -11.691300 -19.868700
H -20.490300 -9.841600 -13.485800
H -20.369100 -11.239300 -14.256200
C -19.907100 -10.607700 -13.666400
H -19.681500 -11.053500 -12.822800
N -18.800800 -10.021100 -15.694000
N -18.681700 -10.144400 -14.315200
N -17.832700 -9.559800 -16.369600
C -17.630200 -9.723200 -13.542200
O -17.590800 -9.772200 -12.333000
C -16.695100 -9.155400 -15.715000
N -16.600600 -9.221300 -14.329300
O -15.835100 -8.493000 -18.467700
C -15.521300 -8.587700 -16.130900
C -15.388700 -8.680200 -13.980000
C -15.085100 -8.258900 -17.503900
H -15.071900 -8.598200 -13.087600
N -14.728700 -8.291900 -15.039200
N -13.885900 -7.710100 -17.613500
H -13.590100 -7.450800 -18.407900
H -13.415200 -7.584000 -16.912900
