8
Fragment
H -17.761700 -10.747800 -26.827300
O -17.462200 -10.010100 -27.403200
C -16.863000 -10.488900 -28.452000
O -16.692300 -11.648400 -28.707100
O -16.545100 -8.218200 -29.143700
C -16.374400 -9.377700 -29.398800
O -15.775200 -9.856500 -30.447600
H -15.475700 -9.118800 -31.023500
8
Fragment
H -17.761700 -17.370000 -26.827300
O -17.462200 -16.632300 -27.403200
C -16.863000 -17.111100 -28.452000
O -16.692300 -18.270600 -28.707100
O -16.545100 -14.840400 -29.143700
C -16.374400 -15.999900 -29.398800
O -15.775200 -16.478700 -30.447600
H -15.475700 -15.741000 -31.023500
16
Fragment
H -17.761700 -10.747800 -26.827300
O -17.462200 -10.010100 -27.403200
C -16.863000 -10.488900 -28.452000
O -16.692300 -11.648400 -28.707100
O -16.545100 -8.218200 -29.143700
C -16.374400 -9.377700 -29.398800
O -15.775200 -9.856500 -30.447600
H -15.475700 -9.118800 -31.023500
H -17.761700 -17.370000 -26.827300
O -17.462200 -16.632300 -27.403200
C -16.863000 -17.111100 -28.452000
O -16.692300 -18.270600 -28.707100
O -16.545100 -14.840400 -29.143700
C -16.374400 -15.999900 -29.398800
O -15.775200 -16.478700 -30.447600
H -15.475700 -15.741000 -31.023500
