8
Fragment
H -17.761700 -10.747800 -26.827300
O -17.462200 -10.010100 -27.403200
C -16.863000 -10.488900 -28.452000
O -16.692300 -11.648400 -28.707100
O -16.545100 -8.218200 -29.143700
C -16.374400 -9.377700 -29.398800
O -15.775200 -9.856500 -30.447600
H -15.475700 -9.118800 -31.023500
8
Fragment
H -17.761700 -4.125600 -26.827300
O -17.462200 -3.387900 -27.403200
C -16.863000 -3.866700 -28.452000
O -16.692300 -5.026200 -28.707100
O -16.545100 -1.596000 -29.143700
C -16.374400 -2.755500 -29.398800
O -15.775200 -3.234300 -30.447600
H -15.475700 -2.496600 -31.023500
16
Fragment
H -17.761700 -10.747800 -26.827300
O -17.462200 -10.010100 -27.403200
C -16.863000 -10.488900 -28.452000
O -16.692300 -11.648400 -28.707100
O -16.545100 -8.218200 -29.143700
C -16.374400 -9.377700 -29.398800
O -15.775200 -9.856500 -30.447600
H -15.475700 -9.118800 -31.023500
H -17.761700 -4.125600 -26.827300
O -17.462200 -3.387900 -27.403200
C -16.863000 -3.866700 -28.452000
O -16.692300 -5.026200 -28.707100
O -16.545100 -1.596000 -29.143700
C -16.374400 -2.755500 -29.398800
O -15.775200 -3.234300 -30.447600
H -15.475700 -2.496600 -31.023500
