8
Fragment
H -17.761700 -10.747800 -26.827300
O -17.462200 -10.010100 -27.403200
C -16.863000 -10.488900 -28.452000
O -16.692300 -11.648400 -28.707100
O -16.545100 -8.218200 -29.143700
C -16.374400 -9.377700 -29.398800
O -15.775200 -9.856500 -30.447600
H -15.475700 -9.118800 -31.023500
20
Fragment
H -15.790500 -13.363600 -30.333100
N -15.425500 -12.890100 -30.999700
H -15.404400 -12.025900 -31.008000
C -14.775100 -13.533100 -31.945400
O -14.686300 -14.772800 -32.010200
N -14.261600 -11.310100 -32.905000
C -14.161800 -12.678900 -32.980900
C -13.706900 -10.841200 -33.984300
H -13.647000 -9.936600 -34.191800
C -13.520200 -13.033800 -34.134100
N -13.226200 -11.843100 -34.771800
N -13.201000 -14.245000 -34.695100
N -12.595100 -14.259600 -35.812700
C -12.564000 -11.801400 -36.001300
O -12.294400 -10.797500 -36.588100
N -12.282000 -13.076200 -36.436000
H -11.884300 -12.647100 -38.345400
H -11.671900 -14.160900 -37.996400
C -11.551500 -13.260300 -37.686100
H -10.617900 -13.095400 -37.537500
28
Fragment
H -17.761700 -10.747800 -26.827300
O -17.462200 -10.010100 -27.403200
C -16.863000 -10.488900 -28.452000
O -16.692300 -11.648400 -28.707100
O -16.545100 -8.218200 -29.143700
C -16.374400 -9.377700 -29.398800
O -15.775200 -9.856500 -30.447600
H -15.475700 -9.118800 -31.023500
H -15.790500 -13.363600 -30.333100
N -15.425500 -12.890100 -30.999700
H -15.404400 -12.025900 -31.008000
C -14.775100 -13.533100 -31.945400
O -14.686300 -14.772800 -32.010200
N -14.261600 -11.310100 -32.905000
C -14.161800 -12.678900 -32.980900
C -13.706900 -10.841200 -33.984300
H -13.647000 -9.936600 -34.191800
C -13.520200 -13.033800 -34.134100
N -13.226200 -11.843100 -34.771800
N -13.201000 -14.245000 -34.695100
N -12.595100 -14.259600 -35.812700
C -12.564000 -11.801400 -36.001300
O -12.294400 -10.797500 -36.588100
N -12.282000 -13.076200 -36.436000
H -11.884300 -12.647100 -38.345400
H -11.671900 -14.160900 -37.996400
C -11.551500 -13.260300 -37.686100
H -10.617900 -13.095400 -37.537500
