20
Fragment
H -33.005600 -9.956600 -18.559200
H -32.605800 -8.585200 -17.912800
H -32.587900 -8.752600 -19.472200
C -32.429200 -9.193400 -18.634100
O -31.098100 -10.008200 -16.317900
N -31.040100 -9.627700 -18.571000
C -30.534600 -10.052600 -17.370200
N -30.414900 -9.672100 -19.792800
N -29.238400 -10.545100 -17.521300
N -29.221200 -10.116600 -19.883400
C -28.603500 -10.584400 -18.741800
H -28.581000 -11.227500 -15.716200
C -28.388600 -11.124900 -16.621400
C -27.397300 -11.174400 -18.506600
N -27.285300 -11.514900 -17.174500
O -26.416400 -11.191100 -20.659800
C -26.325100 -11.490900 -19.460400
N -25.255200 -12.094000 -18.950700
H -25.241100 -12.258400 -18.063900
H -24.690300 -12.353000 -19.469600
16
Fragment
H -25.248400 -11.560000 -21.821200
O -24.631500 -11.579600 -22.495100
C -23.598800 -12.300600 -22.174600
O -23.479000 -12.889100 -21.118300
H -23.381800 -11.181700 -24.383000
O -22.737100 -11.391200 -24.191200
H -22.672800 -13.204100 -23.726100
C -22.557800 -12.342800 -23.262400
C -21.175900 -12.342800 -22.718500
H -21.060900 -13.204100 -22.254700
O -20.996600 -11.391200 -21.789700
H -20.351900 -11.181700 -21.597800
O -20.254800 -12.889100 -24.862500
C -20.134900 -12.300600 -23.806200
O -19.102200 -11.579600 -23.485700
H -18.485400 -11.560000 -24.159600
36
Fragment
H -33.005600 -9.956600 -18.559200
H -32.605800 -8.585200 -17.912800
H -32.587900 -8.752600 -19.472200
C -32.429200 -9.193400 -18.634100
O -31.098100 -10.008200 -16.317900
N -31.040100 -9.627700 -18.571000
C -30.534600 -10.052600 -17.370200
N -30.414900 -9.672100 -19.792800
N -29.238400 -10.545100 -17.521300
N -29.221200 -10.116600 -19.883400
C -28.603500 -10.584400 -18.741800
H -28.581000 -11.227500 -15.716200
C -28.388600 -11.124900 -16.621400
C -27.397300 -11.174400 -18.506600
N -27.285300 -11.514900 -17.174500
O -26.416400 -11.191100 -20.659800
C -26.325100 -11.490900 -19.460400
N -25.255200 -12.094000 -18.950700
H -25.241100 -12.258400 -18.063900
H -24.690300 -12.353000 -19.469600
H -25.248400 -11.560000 -21.821200
O -24.631500 -11.579600 -22.495100
C -23.598800 -12.300600 -22.174600
O -23.479000 -12.889100 -21.118300
H -23.381800 -11.181700 -24.383000
O -22.737100 -11.391200 -24.191200
H -22.672800 -13.204100 -23.726100
C -22.557800 -12.342800 -23.262400
C -21.175900 -12.342800 -22.718500
H -21.060900 -13.204100 -22.254700
O -20.996600 -11.391200 -21.789700
H -20.351900 -11.181700 -21.597800
O -20.254800 -12.889100 -24.862500
C -20.134900 -12.300600 -23.806200
O -19.102200 -11.579600 -23.485700
H -18.485400 -11.560000 -24.159600
