16
Fragment
H -11.323900 -10.683300 -47.485400
H -11.074000 -11.188800 -49.731800
C -10.557200 -11.113300 -47.788200
C -10.402600 -11.419200 -49.130700
H -9.661500 -11.252900 -46.015400
C -9.561500 -11.455300 -46.917800
C -9.277200 -12.055300 -49.588600
H -9.188300 -12.254400 -50.492800
C -8.402800 -12.096500 -47.343000
C -8.273400 -12.401700 -48.696800
O -7.597700 -12.189400 -45.148600
C -7.355000 -12.484300 -46.404100
O -7.189000 -13.049600 -49.198700
H -6.938300 -12.366000 -44.694000
H -6.629700 -13.145100 -48.606800
O -6.329800 -13.065800 -46.752300
20
Fragment
O -12.570900 -12.804200 -43.373800
N -11.759000 -12.820400 -40.425200
N -11.626900 -12.685500 -39.163800
H -11.590200 -13.592500 -45.459700
C -11.474100 -13.351800 -43.589200
H -11.270800 -12.418700 -36.841000
N -11.081400 -13.723300 -44.779000
C -10.721500 -13.346700 -41.141600
C -10.547700 -13.594300 -42.472500
N -10.454800 -13.082100 -38.545100
C -10.448100 -12.841800 -37.098900
H -10.359700 -13.677800 -36.635700
H -10.314400 -14.098600 -44.880900
H -9.710400 -12.270700 -36.872800
N -9.556600 -13.742500 -40.524400
C -9.359100 -13.642200 -39.151000
N -9.303200 -14.133200 -42.675800
C -8.726500 -14.209800 -41.503200
O -8.364700 -13.995300 -38.583800
H -7.868300 -14.536800 -41.356400
36
Fragment
H -11.323900 -10.683300 -47.485400
H -11.074000 -11.188800 -49.731800
C -10.557200 -11.113300 -47.788200
C -10.402600 -11.419200 -49.130700
H -9.661500 -11.252900 -46.015400
C -9.561500 -11.455300 -46.917800
C -9.277200 -12.055300 -49.588600
H -9.188300 -12.254400 -50.492800
C -8.402800 -12.096500 -47.343000
C -8.273400 -12.401700 -48.696800
O -7.597700 -12.189400 -45.148600
C -7.355000 -12.484300 -46.404100
O -7.189000 -13.049600 -49.198700
H -6.938300 -12.366000 -44.694000
H -6.629700 -13.145100 -48.606800
O -6.329800 -13.065800 -46.752300
O -12.570900 -12.804200 -43.373800
N -11.759000 -12.820400 -40.425200
N -11.626900 -12.685500 -39.163800
H -11.590200 -13.592500 -45.459700
C -11.474100 -13.351800 -43.589200
H -11.270800 -12.418700 -36.841000
N -11.081400 -13.723300 -44.779000
C -10.721500 -13.346700 -41.141600
C -10.547700 -13.594300 -42.472500
N -10.454800 -13.082100 -38.545100
C -10.448100 -12.841800 -37.098900
H -10.359700 -13.677800 -36.635700
H -10.314400 -14.098600 -44.880900
H -9.710400 -12.270700 -36.872800
N -9.556600 -13.742500 -40.524400
C -9.359100 -13.642200 -39.151000
N -9.303200 -14.133200 -42.675800
C -8.726500 -14.209800 -41.503200
O -8.364700 -13.995300 -38.583800
H -7.868300 -14.536800 -41.356400
