16
Fragment
H -11.323900 -10.683300 -47.485400
H -11.074000 -11.188800 -49.731800
C -10.557200 -11.113300 -47.788200
C -10.402600 -11.419200 -49.130700
H -9.661500 -11.252900 -46.015400
C -9.561500 -11.455300 -46.917800
C -9.277200 -12.055300 -49.588600
H -9.188300 -12.254400 -50.492800
C -8.402800 -12.096500 -47.343000
C -8.273400 -12.401700 -48.696800
O -7.597700 -12.189400 -45.148600
C -7.355000 -12.484300 -46.404100
O -7.189000 -13.049600 -49.198700
H -6.938300 -12.366000 -44.694000
H -6.629700 -13.145100 -48.606800
O -6.329800 -13.065800 -46.752300
16
Fragment
H -18.062900 -10.683300 -47.485400
H -17.813000 -11.188800 -49.731800
C -17.296200 -11.113300 -47.788200
C -17.141600 -11.419200 -49.130700
H -16.400500 -11.252900 -46.015400
C -16.300500 -11.455300 -46.917800
C -16.016200 -12.055300 -49.588600
H -15.927300 -12.254400 -50.492800
C -15.141800 -12.096500 -47.343000
C -15.012400 -12.401700 -48.696800
O -14.336700 -12.189400 -45.148600
C -14.094000 -12.484300 -46.404100
O -13.928000 -13.049600 -49.198700
H -13.677300 -12.366000 -44.694000
H -13.368700 -13.145100 -48.606800
O -13.068800 -13.065800 -46.752300
32
Fragment
H -11.323900 -10.683300 -47.485400
H -11.074000 -11.188800 -49.731800
C -10.557200 -11.113300 -47.788200
C -10.402600 -11.419200 -49.130700
H -9.661500 -11.252900 -46.015400
C -9.561500 -11.455300 -46.917800
C -9.277200 -12.055300 -49.588600
H -9.188300 -12.254400 -50.492800
C -8.402800 -12.096500 -47.343000
C -8.273400 -12.401700 -48.696800
O -7.597700 -12.189400 -45.148600
C -7.355000 -12.484300 -46.404100
O -7.189000 -13.049600 -49.198700
H -6.938300 -12.366000 -44.694000
H -6.629700 -13.145100 -48.606800
O -6.329800 -13.065800 -46.752300
H -18.062900 -10.683300 -47.485400
H -17.813000 -11.188800 -49.731800
C -17.296200 -11.113300 -47.788200
C -17.141600 -11.419200 -49.130700
H -16.400500 -11.252900 -46.015400
C -16.300500 -11.455300 -46.917800
C -16.016200 -12.055300 -49.588600
H -15.927300 -12.254400 -50.492800
C -15.141800 -12.096500 -47.343000
C -15.012400 -12.401700 -48.696800
O -14.336700 -12.189400 -45.148600
C -14.094000 -12.484300 -46.404100
O -13.928000 -13.049600 -49.198700
H -13.677300 -12.366000 -44.694000
H -13.368700 -13.145100 -48.606800
O -13.068800 -13.065800 -46.752300
