16
Fragment
H -11.323900 -10.683300 -47.485400
H -11.074000 -11.188800 -49.731800
C -10.557200 -11.113300 -47.788200
C -10.402600 -11.419200 -49.130700
H -9.661500 -11.252900 -46.015400
C -9.561500 -11.455300 -46.917800
C -9.277200 -12.055300 -49.588600
H -9.188300 -12.254400 -50.492800
C -8.402800 -12.096500 -47.343000
C -8.273400 -12.401700 -48.696800
O -7.597700 -12.189400 -45.148600
C -7.355000 -12.484300 -46.404100
O -7.189000 -13.049600 -49.198700
H -6.938300 -12.366000 -44.694000
H -6.629700 -13.145100 -48.606800
O -6.329800 -13.065800 -46.752300
20
Fragment
H -17.306000 -7.576200 -47.787300
O -16.809600 -8.117700 -50.559900
C -16.447700 -7.903200 -47.640500
N -15.871100 -7.979800 -46.467900
C -15.815200 -8.470800 -49.992700
N -15.617600 -8.370500 -48.619300
H -15.463900 -9.842300 -52.270900
H -14.859900 -8.014400 -44.262800
H -14.814500 -8.435200 -52.508000
C -14.726100 -9.271200 -52.044800
N -14.719500 -9.030900 -50.598600
C -14.626500 -8.518700 -46.671200
C -14.452800 -8.766300 -48.002100
N -14.092900 -8.389700 -44.364700
H -13.903400 -9.694300 -52.302700
C -13.700200 -8.761200 -45.554500
H -13.584000 -8.520500 -43.684000
N -13.547400 -9.427500 -49.979900
N -13.415200 -9.292600 -48.718500
O -12.603300 -9.308800 -45.769900
36
Fragment
H -11.323900 -10.683300 -47.485400
H -11.074000 -11.188800 -49.731800
C -10.557200 -11.113300 -47.788200
C -10.402600 -11.419200 -49.130700
H -9.661500 -11.252900 -46.015400
C -9.561500 -11.455300 -46.917800
C -9.277200 -12.055300 -49.588600
H -9.188300 -12.254400 -50.492800
C -8.402800 -12.096500 -47.343000
C -8.273400 -12.401700 -48.696800
O -7.597700 -12.189400 -45.148600
C -7.355000 -12.484300 -46.404100
O -7.189000 -13.049600 -49.198700
H -6.938300 -12.366000 -44.694000
H -6.629700 -13.145100 -48.606800
O -6.329800 -13.065800 -46.752300
H -17.306000 -7.576200 -47.787300
O -16.809600 -8.117700 -50.559900
C -16.447700 -7.903200 -47.640500
N -15.871100 -7.979800 -46.467900
C -15.815200 -8.470800 -49.992700
N -15.617600 -8.370500 -48.619300
H -15.463900 -9.842300 -52.270900
H -14.859900 -8.014400 -44.262800
H -14.814500 -8.435200 -52.508000
C -14.726100 -9.271200 -52.044800
N -14.719500 -9.030900 -50.598600
C -14.626500 -8.518700 -46.671200
C -14.452800 -8.766300 -48.002100
N -14.092900 -8.389700 -44.364700
H -13.903400 -9.694300 -52.302700
C -13.700200 -8.761200 -45.554500
H -13.584000 -8.520500 -43.684000
N -13.547400 -9.427500 -49.979900
N -13.415200 -9.292600 -48.718500
O -12.603300 -9.308800 -45.769900
