16
Fragment
H -11.323900 -10.683300 -47.485400
H -11.074000 -11.188800 -49.731800
C -10.557200 -11.113300 -47.788200
C -10.402600 -11.419200 -49.130700
H -9.661500 -11.252900 -46.015400
C -9.561500 -11.455300 -46.917800
C -9.277200 -12.055300 -49.588600
H -9.188300 -12.254400 -50.492800
C -8.402800 -12.096500 -47.343000
C -8.273400 -12.401700 -48.696800
O -7.597700 -12.189400 -45.148600
C -7.355000 -12.484300 -46.404100
O -7.189000 -13.049600 -49.198700
H -6.938300 -12.366000 -44.694000
H -6.629700 -13.145100 -48.606800
O -6.329800 -13.065800 -46.752300
20
Fragment
O -7.781300 -12.994300 -58.231000
N -6.969400 -12.978100 -55.282500
N -6.837200 -13.113000 -54.021100
H -6.800600 -12.206000 -60.317000
C -6.684500 -12.446700 -58.446500
H -6.481200 -13.379800 -51.698300
N -6.291800 -12.075200 -59.636200
C -5.931800 -12.451800 -55.998900
C -5.758100 -12.204200 -57.329800
N -5.665200 -12.716400 -53.402400
C -5.658500 -12.956700 -51.956200
H -5.570100 -12.120700 -51.493000
H -5.524700 -11.699900 -59.738200
H -4.920800 -13.527800 -51.730100
N -4.767000 -12.056000 -55.381700
C -4.569400 -12.156300 -54.008300
N -4.513500 -11.665300 -57.533000
C -3.936900 -11.588700 -56.360500
O -3.575100 -11.803200 -53.441100
H -3.078600 -11.261700 -56.213700
36
Fragment
H -11.323900 -10.683300 -47.485400
H -11.074000 -11.188800 -49.731800
C -10.557200 -11.113300 -47.788200
C -10.402600 -11.419200 -49.130700
H -9.661500 -11.252900 -46.015400
C -9.561500 -11.455300 -46.917800
C -9.277200 -12.055300 -49.588600
H -9.188300 -12.254400 -50.492800
C -8.402800 -12.096500 -47.343000
C -8.273400 -12.401700 -48.696800
O -7.597700 -12.189400 -45.148600
C -7.355000 -12.484300 -46.404100
O -7.189000 -13.049600 -49.198700
H -6.938300 -12.366000 -44.694000
H -6.629700 -13.145100 -48.606800
O -6.329800 -13.065800 -46.752300
O -7.781300 -12.994300 -58.231000
N -6.969400 -12.978100 -55.282500
N -6.837200 -13.113000 -54.021100
H -6.800600 -12.206000 -60.317000
C -6.684500 -12.446700 -58.446500
H -6.481200 -13.379800 -51.698300
N -6.291800 -12.075200 -59.636200
C -5.931800 -12.451800 -55.998900
C -5.758100 -12.204200 -57.329800
N -5.665200 -12.716400 -53.402400
C -5.658500 -12.956700 -51.956200
H -5.570100 -12.120700 -51.493000
H -5.524700 -11.699900 -59.738200
H -4.920800 -13.527800 -51.730100
N -4.767000 -12.056000 -55.381700
C -4.569400 -12.156300 -54.008300
N -4.513500 -11.665300 -57.533000
C -3.936900 -11.588700 -56.360500
O -3.575100 -11.803200 -53.441100
H -3.078600 -11.261700 -56.213700
