17
Fragment
H -21.455200 -13.771400 -26.465300
C -20.557100 -13.626300 -26.273300
N -20.213500 -13.397500 -25.016500
H -19.934800 -13.833500 -28.179800
C -19.652400 -13.660700 -27.310200
C -18.933100 -13.165200 -24.753000
H -18.683400 -12.993400 -23.873200
C -18.318100 -13.434300 -27.033900
H -18.255600 -14.700500 -29.127800
C -17.955900 -13.168400 -25.729300
N -17.506500 -14.277800 -29.113000
C -17.260300 -13.457400 -28.093700
H -17.068900 -12.993400 -25.511200
N -16.596400 -14.487700 -30.170800
H -16.464700 -13.745100 -30.590400
O -16.244600 -12.785200 -28.010000
H -15.740300 -14.685400 -29.792400
16
Fragment
N -13.922100 -14.650300 -31.703000
H -13.673500 -15.057900 -35.135500
C -13.224600 -14.629000 -32.586300
C -12.774300 -14.871900 -34.986900
C -12.315000 -14.614600 -33.705400
H -12.188700 -15.010300 -36.904100
C -11.885600 -14.848900 -36.039000
C -10.976300 -14.339100 -33.480500
H -10.674700 -14.158900 -32.619900
C -10.546700 -14.587800 -35.817600
C -10.097700 -14.332900 -34.535000
O -10.081800 -14.775300 -38.109800
C -9.551600 -14.564100 -36.932600
H -9.498900 -14.726300 -38.684600
H -9.197200 -14.156600 -34.387000
O -8.383400 -14.357800 -36.750000
33
Fragment
H -21.455200 -13.771400 -26.465300
C -20.557100 -13.626300 -26.273300
N -20.213500 -13.397500 -25.016500
H -19.934800 -13.833500 -28.179800
C -19.652400 -13.660700 -27.310200
C -18.933100 -13.165200 -24.753000
H -18.683400 -12.993400 -23.873200
C -18.318100 -13.434300 -27.033900
H -18.255600 -14.700500 -29.127800
C -17.955900 -13.168400 -25.729300
N -17.506500 -14.277800 -29.113000
C -17.260300 -13.457400 -28.093700
H -17.068900 -12.993400 -25.511200
N -16.596400 -14.487700 -30.170800
H -16.464700 -13.745100 -30.590400
O -16.244600 -12.785200 -28.010000
H -15.740300 -14.685400 -29.792400
N -13.922100 -14.650300 -31.703000
H -13.673500 -15.057900 -35.135500
C -13.224600 -14.629000 -32.586300
C -12.774300 -14.871900 -34.986900
C -12.315000 -14.614600 -33.705400
H -12.188700 -15.010300 -36.904100
C -11.885600 -14.848900 -36.039000
C -10.976300 -14.339100 -33.480500
H -10.674700 -14.158900 -32.619900
C -10.546700 -14.587800 -35.817600
C -10.097700 -14.332900 -34.535000
O -10.081800 -14.775300 -38.109800
C -9.551600 -14.564100 -36.932600
H -9.498900 -14.726300 -38.684600
H -9.197200 -14.156600 -34.387000
O -8.383400 -14.357800 -36.750000
