17
Fragment
O -6.523900 -10.095300 -27.690900
H -6.109500 -9.997700 -25.325900
N -5.319200 -9.992100 -27.787100
C -5.195600 -9.827900 -25.361600
H -4.878800 -9.709700 -23.380000
O -4.726300 -10.097900 -28.834700
C -4.540100 -9.748000 -26.562600
C -4.460600 -9.649300 -24.208600
C -3.195700 -9.477800 -26.673300
C -3.102400 -9.380200 -24.276700
O -2.933200 -9.207000 -21.920200
H -2.782800 -9.424100 -27.504400
C -2.475900 -9.288700 -25.502100
C -2.364900 -9.203500 -22.985300
H -1.566400 -9.099000 -25.543800
O -1.074400 -9.061700 -23.117700
H -0.732900 -8.963600 -22.379100
17
Fragment
H -1.631800 -8.874800 -19.720800
H -0.749600 -8.627100 -17.614500
C -0.719200 -8.721100 -19.630500
C -0.197500 -8.574400 -18.360900
N 0.028000 -8.652400 -20.734300
H 0.233100 -8.152200 -15.939500
N 1.084300 -8.091200 -15.831400
C 1.164400 -8.347100 -18.215700
C 1.325500 -8.428100 -20.591800
N 1.592700 -7.912800 -14.524400
H 1.853100 -8.369800 -21.356100
C 1.869900 -8.166700 -16.897400
H 1.926400 -7.123000 -14.452800
C 1.930500 -8.276000 -19.356200
H 2.208800 -8.497200 -14.383600
H 2.846400 -8.127500 -19.296900
O 3.083100 -8.089300 -16.836200
34
Fragment
O -6.523900 -10.095300 -27.690900
H -6.109500 -9.997700 -25.325900
N -5.319200 -9.992100 -27.787100
C -5.195600 -9.827900 -25.361600
H -4.878800 -9.709700 -23.380000
O -4.726300 -10.097900 -28.834700
C -4.540100 -9.748000 -26.562600
C -4.460600 -9.649300 -24.208600
C -3.195700 -9.477800 -26.673300
C -3.102400 -9.380200 -24.276700
O -2.933200 -9.207000 -21.920200
H -2.782800 -9.424100 -27.504400
C -2.475900 -9.288700 -25.502100
C -2.364900 -9.203500 -22.985300
H -1.566400 -9.099000 -25.543800
O -1.074400 -9.061700 -23.117700
H -0.732900 -8.963600 -22.379100
H -1.631800 -8.874800 -19.720800
H -0.749600 -8.627100 -17.614500
C -0.719200 -8.721100 -19.630500
C -0.197500 -8.574400 -18.360900
N 0.028000 -8.652400 -20.734300
H 0.233100 -8.152200 -15.939500
N 1.084300 -8.091200 -15.831400
C 1.164400 -8.347100 -18.215700
C 1.325500 -8.428100 -20.591800
N 1.592700 -7.912800 -14.524400
H 1.853100 -8.369800 -21.356100
C 1.869900 -8.166700 -16.897400
H 1.926400 -7.123000 -14.452800
C 1.930500 -8.276000 -19.356200
H 2.208800 -8.497200 -14.383600
H 2.846400 -8.127500 -19.296900
O 3.083100 -8.089300 -16.836200
