17
Fragment
O -6.523900 -10.095300 -27.690900
H -6.109500 -9.997700 -25.325900
N -5.319200 -9.992100 -27.787100
C -5.195600 -9.827900 -25.361600
H -4.878800 -9.709700 -23.380000
O -4.726300 -10.097900 -28.834700
C -4.540100 -9.748000 -26.562600
C -4.460600 -9.649300 -24.208600
C -3.195700 -9.477800 -26.673300
C -3.102400 -9.380200 -24.276700
O -2.933200 -9.207000 -21.920200
H -2.782800 -9.424100 -27.504400
C -2.475900 -9.288700 -25.502100
C -2.364900 -9.203500 -22.985300
H -1.566400 -9.099000 -25.543800
O -1.074400 -9.061700 -23.117700
H -0.732900 -8.963600 -22.379100
17
Fragment
H -4.158400 -5.828600 -21.778600
O -3.816900 -5.730500 -21.040000
H -3.324900 -5.693200 -18.614000
C -2.526500 -5.588700 -21.172500
C -2.415400 -5.503500 -18.655600
H -2.108500 -5.368100 -16.653400
O -1.958100 -5.585200 -22.237500
C -1.789000 -5.412000 -19.881000
C -1.695700 -5.314400 -17.484400
C -0.430700 -5.142900 -19.949100
C -0.351200 -5.044200 -17.595100
O -0.165100 -4.694300 -15.323000
H -0.012600 -5.082500 -20.777700
C 0.304300 -4.964300 -18.796200
N 0.427800 -4.800100 -16.370600
H 1.218200 -4.794500 -18.831800
O 1.632600 -4.696900 -16.466900
34
Fragment
O -6.523900 -10.095300 -27.690900
H -6.109500 -9.997700 -25.325900
N -5.319200 -9.992100 -27.787100
C -5.195600 -9.827900 -25.361600
H -4.878800 -9.709700 -23.380000
O -4.726300 -10.097900 -28.834700
C -4.540100 -9.748000 -26.562600
C -4.460600 -9.649300 -24.208600
C -3.195700 -9.477800 -26.673300
C -3.102400 -9.380200 -24.276700
O -2.933200 -9.207000 -21.920200
H -2.782800 -9.424100 -27.504400
C -2.475900 -9.288700 -25.502100
C -2.364900 -9.203500 -22.985300
H -1.566400 -9.099000 -25.543800
O -1.074400 -9.061700 -23.117700
H -0.732900 -8.963600 -22.379100
H -4.158400 -5.828600 -21.778600
O -3.816900 -5.730500 -21.040000
H -3.324900 -5.693200 -18.614000
C -2.526500 -5.588700 -21.172500
C -2.415400 -5.503500 -18.655600
H -2.108500 -5.368100 -16.653400
O -1.958100 -5.585200 -22.237500
C -1.789000 -5.412000 -19.881000
C -1.695700 -5.314400 -17.484400
C -0.430700 -5.142900 -19.949100
C -0.351200 -5.044200 -17.595100
O -0.165100 -4.694300 -15.323000
H -0.012600 -5.082500 -20.777700
C 0.304300 -4.964300 -18.796200
N 0.427800 -4.800100 -16.370600
H 1.218200 -4.794500 -18.831800
O 1.632600 -4.696900 -16.466900
