17
Fragment
H -21.455200 -13.771400 -26.465300
C -20.557100 -13.626300 -26.273300
N -20.213500 -13.397500 -25.016500
H -19.934800 -13.833500 -28.179800
C -19.652400 -13.660700 -27.310200
C -18.933100 -13.165200 -24.753000
H -18.683400 -12.993400 -23.873200
C -18.318100 -13.434300 -27.033900
H -18.255600 -14.700500 -29.127800
C -17.955900 -13.168400 -25.729300
N -17.506500 -14.277800 -29.113000
C -17.260300 -13.457400 -28.093700
H -17.068900 -12.993400 -25.511200
N -16.596400 -14.487700 -30.170800
H -16.464700 -13.745100 -30.590400
O -16.244600 -12.785200 -28.010000
H -15.740300 -14.685400 -29.792400
17
Fragment
H -16.777200 -10.037700 -30.209400
O -16.272900 -11.937900 -31.991700
H -16.052800 -10.978100 -29.411400
N -15.921100 -10.235400 -29.830900
H -15.448600 -11.729700 -34.490500
C -15.257200 -11.265700 -31.908000
N -15.011000 -10.445300 -30.888700
C -14.561600 -11.554700 -34.272400
H -14.261900 -10.022600 -30.873900
C -14.199400 -11.288800 -32.967800
H -13.834200 -11.729700 -36.128500
C -13.584400 -11.558000 -35.248800
C -12.865100 -11.062400 -32.691500
H -12.582700 -10.889600 -31.821900
N -12.304100 -11.325600 -34.985200
C -11.960400 -11.096800 -33.728500
H -11.062300 -10.951700 -33.536500
34
Fragment
H -21.455200 -13.771400 -26.465300
C -20.557100 -13.626300 -26.273300
N -20.213500 -13.397500 -25.016500
H -19.934800 -13.833500 -28.179800
C -19.652400 -13.660700 -27.310200
C -18.933100 -13.165200 -24.753000
H -18.683400 -12.993400 -23.873200
C -18.318100 -13.434300 -27.033900
H -18.255600 -14.700500 -29.127800
C -17.955900 -13.168400 -25.729300
N -17.506500 -14.277800 -29.113000
C -17.260300 -13.457400 -28.093700
H -17.068900 -12.993400 -25.511200
N -16.596400 -14.487700 -30.170800
H -16.464700 -13.745100 -30.590400
O -16.244600 -12.785200 -28.010000
H -15.740300 -14.685400 -29.792400
H -16.777200 -10.037700 -30.209400
O -16.272900 -11.937900 -31.991700
H -16.052800 -10.978100 -29.411400
N -15.921100 -10.235400 -29.830900
H -15.448600 -11.729700 -34.490500
C -15.257200 -11.265700 -31.908000
N -15.011000 -10.445300 -30.888700
C -14.561600 -11.554700 -34.272400
H -14.261900 -10.022600 -30.873900
C -14.199400 -11.288800 -32.967800
H -13.834200 -11.729700 -36.128500
C -13.584400 -11.558000 -35.248800
C -12.865100 -11.062400 -32.691500
H -12.582700 -10.889600 -31.821900
N -12.304100 -11.325600 -34.985200
C -11.960400 -11.096800 -33.728500
H -11.062300 -10.951700 -33.536500
