17
Fragment
H -21.455200 -13.771400 -26.465300
C -20.557100 -13.626300 -26.273300
N -20.213500 -13.397500 -25.016500
H -19.934800 -13.833500 -28.179800
C -19.652400 -13.660700 -27.310200
C -18.933100 -13.165200 -24.753000
H -18.683400 -12.993400 -23.873200
C -18.318100 -13.434300 -27.033900
H -18.255600 -14.700500 -29.127800
C -17.955900 -13.168400 -25.729300
N -17.506500 -14.277800 -29.113000
C -17.260300 -13.457400 -28.093700
H -17.068900 -12.993400 -25.511200
N -16.596400 -14.487700 -30.170800
H -16.464700 -13.745100 -30.590400
O -16.244600 -12.785200 -28.010000
H -15.740300 -14.685400 -29.792400
17
Fragment
H -20.035000 -16.441100 -30.209400
O -19.530600 -18.341200 -31.991700
H -19.310600 -17.381400 -29.411400
N -19.178800 -16.638700 -29.830900
H -18.706300 -18.133000 -34.490500
C -18.515000 -17.669100 -31.908000
N -18.268800 -16.848600 -30.888700
C -17.819400 -17.958000 -34.272400
H -17.519600 -16.425900 -30.873900
C -17.457200 -17.692200 -32.967800
H -17.091900 -18.133100 -36.128500
C -16.842100 -17.961300 -35.248800
C -16.122800 -17.465700 -32.691500
H -15.840400 -17.293000 -31.821900
N -15.561800 -17.729000 -34.985200
C -15.218200 -17.500200 -33.728500
H -14.320000 -17.355100 -33.536500
34
Fragment
H -21.455200 -13.771400 -26.465300
C -20.557100 -13.626300 -26.273300
N -20.213500 -13.397500 -25.016500
H -19.934800 -13.833500 -28.179800
C -19.652400 -13.660700 -27.310200
C -18.933100 -13.165200 -24.753000
H -18.683400 -12.993400 -23.873200
C -18.318100 -13.434300 -27.033900
H -18.255600 -14.700500 -29.127800
C -17.955900 -13.168400 -25.729300
N -17.506500 -14.277800 -29.113000
C -17.260300 -13.457400 -28.093700
H -17.068900 -12.993400 -25.511200
N -16.596400 -14.487700 -30.170800
H -16.464700 -13.745100 -30.590400
O -16.244600 -12.785200 -28.010000
H -15.740300 -14.685400 -29.792400
H -20.035000 -16.441100 -30.209400
O -19.530600 -18.341200 -31.991700
H -19.310600 -17.381400 -29.411400
N -19.178800 -16.638700 -29.830900
H -18.706300 -18.133000 -34.490500
C -18.515000 -17.669100 -31.908000
N -18.268800 -16.848600 -30.888700
C -17.819400 -17.958000 -34.272400
H -17.519600 -16.425900 -30.873900
C -17.457200 -17.692200 -32.967800
H -17.091900 -18.133100 -36.128500
C -16.842100 -17.961300 -35.248800
C -16.122800 -17.465700 -32.691500
H -15.840400 -17.293000 -31.821900
N -15.561800 -17.729000 -34.985200
C -15.218200 -17.500200 -33.728500
H -14.320000 -17.355100 -33.536500
