17
Fragment
O -6.523900 -10.095300 -27.690900
H -6.109500 -9.997700 -25.325900
N -5.319200 -9.992100 -27.787100
C -5.195600 -9.827900 -25.361600
H -4.878800 -9.709700 -23.380000
O -4.726300 -10.097900 -28.834700
C -4.540100 -9.748000 -26.562600
C -4.460600 -9.649300 -24.208600
C -3.195700 -9.477800 -26.673300
C -3.102400 -9.380200 -24.276700
O -2.933200 -9.207000 -21.920200
H -2.782800 -9.424100 -27.504400
C -2.475900 -9.288700 -25.502100
C -2.364900 -9.203500 -22.985300
H -1.566400 -9.099000 -25.543800
O -1.074400 -9.061700 -23.117700
H -0.732900 -8.963600 -22.379100
17
Fragment
O -0.917100 -6.702900 -27.321600
H -0.680400 -6.664700 -24.860800
H -0.042800 -6.295000 -29.774100
C 0.235400 -6.516200 -24.801500
H 0.239600 -7.669200 -29.704900
C 0.296000 -6.625500 -27.260300
H 0.312900 -6.422400 -22.801600
N 0.573300 -6.879400 -29.633400
C 0.840500 -6.364100 -23.565900
C 1.001600 -6.445100 -25.942100
N 1.081700 -6.701000 -28.326300
H 1.932800 -6.640000 -28.218300
N 2.138000 -6.139800 -23.423500
C 2.363400 -6.217800 -25.796800
C 2.885200 -6.071000 -24.527300
H 2.915600 -6.165100 -26.543200
H 3.797800 -5.917400 -24.436900
34
Fragment
O -6.523900 -10.095300 -27.690900
H -6.109500 -9.997700 -25.325900
N -5.319200 -9.992100 -27.787100
C -5.195600 -9.827900 -25.361600
H -4.878800 -9.709700 -23.380000
O -4.726300 -10.097900 -28.834700
C -4.540100 -9.748000 -26.562600
C -4.460600 -9.649300 -24.208600
C -3.195700 -9.477800 -26.673300
C -3.102400 -9.380200 -24.276700
O -2.933200 -9.207000 -21.920200
H -2.782800 -9.424100 -27.504400
C -2.475900 -9.288700 -25.502100
C -2.364900 -9.203500 -22.985300
H -1.566400 -9.099000 -25.543800
O -1.074400 -9.061700 -23.117700
H -0.732900 -8.963600 -22.379100
O -0.917100 -6.702900 -27.321600
H -0.680400 -6.664700 -24.860800
H -0.042800 -6.295000 -29.774100
C 0.235400 -6.516200 -24.801500
H 0.239600 -7.669200 -29.704900
C 0.296000 -6.625500 -27.260300
H 0.312900 -6.422400 -22.801600
N 0.573300 -6.879400 -29.633400
C 0.840500 -6.364100 -23.565900
C 1.001600 -6.445100 -25.942100
N 1.081700 -6.701000 -28.326300
H 1.932800 -6.640000 -28.218300
N 2.138000 -6.139800 -23.423500
C 2.363400 -6.217800 -25.796800
C 2.885200 -6.071000 -24.527300
H 2.915600 -6.165100 -26.543200
H 3.797800 -5.917400 -24.436900
