17
Fragment
H -21.455200 -13.771400 -26.465300
C -20.557100 -13.626300 -26.273300
N -20.213500 -13.397500 -25.016500
H -19.934800 -13.833500 -28.179800
C -19.652400 -13.660700 -27.310200
C -18.933100 -13.165200 -24.753000
H -18.683400 -12.993400 -23.873200
C -18.318100 -13.434300 -27.033900
H -18.255600 -14.700500 -29.127800
C -17.955900 -13.168400 -25.729300
N -17.506500 -14.277800 -29.113000
C -17.260300 -13.457400 -28.093700
H -17.068900 -12.993400 -25.511200
N -16.596400 -14.487700 -30.170800
H -16.464700 -13.745100 -30.590400
O -16.244600 -12.785200 -28.010000
H -15.740300 -14.685400 -29.792400
16
Fragment
N -25.873300 -13.272000 -16.702500
H -25.624700 -13.679600 -20.135100
C -25.175800 -13.250700 -17.585900
C -24.725500 -13.493700 -19.986400
C -24.266200 -13.236300 -18.704900
H -24.139800 -13.632100 -21.903600
C -23.836800 -13.470600 -21.038600
C -22.927400 -12.960800 -18.480100
H -22.625800 -12.780600 -17.619500
C -22.497900 -13.209500 -20.817200
C -22.048900 -12.954600 -19.534600
O -22.033000 -13.397100 -23.109400
C -21.502800 -13.185800 -21.932100
H -21.450100 -13.348100 -23.684200
H -21.148400 -12.778400 -19.386600
O -20.334600 -12.979500 -21.749600
33
Fragment
H -21.455200 -13.771400 -26.465300
C -20.557100 -13.626300 -26.273300
N -20.213500 -13.397500 -25.016500
H -19.934800 -13.833500 -28.179800
C -19.652400 -13.660700 -27.310200
C -18.933100 -13.165200 -24.753000
H -18.683400 -12.993400 -23.873200
C -18.318100 -13.434300 -27.033900
H -18.255600 -14.700500 -29.127800
C -17.955900 -13.168400 -25.729300
N -17.506500 -14.277800 -29.113000
C -17.260300 -13.457400 -28.093700
H -17.068900 -12.993400 -25.511200
N -16.596400 -14.487700 -30.170800
H -16.464700 -13.745100 -30.590400
O -16.244600 -12.785200 -28.010000
H -15.740300 -14.685400 -29.792400
N -25.873300 -13.272000 -16.702500
H -25.624700 -13.679600 -20.135100
C -25.175800 -13.250700 -17.585900
C -24.725500 -13.493700 -19.986400
C -24.266200 -13.236300 -18.704900
H -24.139800 -13.632100 -21.903600
C -23.836800 -13.470600 -21.038600
C -22.927400 -12.960800 -18.480100
H -22.625800 -12.780600 -17.619500
C -22.497900 -13.209500 -20.817200
C -22.048900 -12.954600 -19.534600
O -22.033000 -13.397100 -23.109400
C -21.502800 -13.185800 -21.932100
H -21.450100 -13.348100 -23.684200
H -21.148400 -12.778400 -19.386600
O -20.334600 -12.979500 -21.749600
