17
Fragment
H -14.228500 -3.807500 -21.644400
H -14.203100 -3.598100 -19.358000
C -13.739500 -4.420200 -21.144800
C -13.731200 -4.285900 -19.767700
H -13.625900 -5.914900 -15.080600
O -13.149900 -3.953400 -16.976100
N -13.082700 -5.383300 -21.789000
C -13.019900 -5.051800 -17.517700
C -13.010100 -5.188600 -19.012500
N -12.889800 -6.186600 -16.821800
N -12.837600 -6.185100 -15.413700
H -12.836900 -6.934700 -17.243600
C -12.388300 -6.252500 -21.057900
C -12.298000 -6.158700 -19.677800
H -12.276300 -5.585500 -15.149100
H -11.946800 -6.948400 -21.489000
H -11.757400 -6.749700 -19.204100
17
Fragment
H -18.641300 -4.326000 -20.294800
H -18.548100 -3.429300 -18.188100
C -18.067900 -3.613800 -20.122600
C -18.022500 -3.068500 -18.865900
O -17.815400 -1.764300 -16.305300
H -17.488600 -4.484600 -22.371000
N -17.310900 -3.637700 -22.424200
C -17.260800 -3.107000 -21.147100
C -17.192200 -1.972200 -18.591100
C -17.143000 -1.394300 -17.239100
H -16.548300 -3.540900 -22.826500
C -16.452500 -2.001600 -20.879700
C -16.426400 -1.457200 -19.623600
H -16.327700 -0.116600 -16.482000
O -16.241800 -0.432800 -17.111100
H -15.930100 -1.634100 -21.556100
H -15.881300 -0.722300 -19.460000
34
Fragment
H -14.228500 -3.807500 -21.644400
H -14.203100 -3.598100 -19.358000
C -13.739500 -4.420200 -21.144800
C -13.731200 -4.285900 -19.767700
H -13.625900 -5.914900 -15.080600
O -13.149900 -3.953400 -16.976100
N -13.082700 -5.383300 -21.789000
C -13.019900 -5.051800 -17.517700
C -13.010100 -5.188600 -19.012500
N -12.889800 -6.186600 -16.821800
N -12.837600 -6.185100 -15.413700
H -12.836900 -6.934700 -17.243600
C -12.388300 -6.252500 -21.057900
C -12.298000 -6.158700 -19.677800
H -12.276300 -5.585500 -15.149100
H -11.946800 -6.948400 -21.489000
H -11.757400 -6.749700 -19.204100
H -18.641300 -4.326000 -20.294800
H -18.548100 -3.429300 -18.188100
C -18.067900 -3.613800 -20.122600
C -18.022500 -3.068500 -18.865900
O -17.815400 -1.764300 -16.305300
H -17.488600 -4.484600 -22.371000
N -17.310900 -3.637700 -22.424200
C -17.260800 -3.107000 -21.147100
C -17.192200 -1.972200 -18.591100
C -17.143000 -1.394300 -17.239100
H -16.548300 -3.540900 -22.826500
C -16.452500 -2.001600 -20.879700
C -16.426400 -1.457200 -19.623600
H -16.327700 -0.116600 -16.482000
O -16.241800 -0.432800 -17.111100
H -15.930100 -1.634100 -21.556100
H -15.881300 -0.722300 -19.460000
