17
Fragment
H -14.228500 -3.807500 -21.644400
H -14.203100 -3.598100 -19.358000
C -13.739500 -4.420200 -21.144800
C -13.731200 -4.285900 -19.767700
H -13.625900 -5.914900 -15.080600
O -13.149900 -3.953400 -16.976100
N -13.082700 -5.383300 -21.789000
C -13.019900 -5.051800 -17.517700
C -13.010100 -5.188600 -19.012500
N -12.889800 -6.186600 -16.821800
N -12.837600 -6.185100 -15.413700
H -12.836900 -6.934700 -17.243600
C -12.388300 -6.252500 -21.057900
C -12.298000 -6.158700 -19.677800
H -12.276300 -5.585500 -15.149100
H -11.946800 -6.948400 -21.489000
H -11.757400 -6.749700 -19.204100
17
Fragment
H -15.870000 -9.472500 -28.027000
H -15.725500 -8.839500 -25.835000
C -15.313600 -8.767500 -27.786300
C -15.228500 -8.384300 -26.474800
H -14.943700 -9.301200 -30.162600
O -14.925100 -7.502900 -23.770200
N -14.669600 -8.479600 -30.091200
C -14.570000 -8.107600 -28.768800
C -14.413000 -7.327500 -26.080200
C -14.307900 -6.958000 -24.663600
H -14.038400 -8.175500 -30.587600
C -13.775300 -7.034100 -28.389500
C -13.706200 -6.661000 -27.068800
O -13.447700 -5.986400 -24.427000
H -13.408600 -5.846000 -23.620100
H -13.289400 -6.566700 -29.030800
H -13.169000 -5.939800 -26.832700
34
Fragment
H -14.228500 -3.807500 -21.644400
H -14.203100 -3.598100 -19.358000
C -13.739500 -4.420200 -21.144800
C -13.731200 -4.285900 -19.767700
H -13.625900 -5.914900 -15.080600
O -13.149900 -3.953400 -16.976100
N -13.082700 -5.383300 -21.789000
C -13.019900 -5.051800 -17.517700
C -13.010100 -5.188600 -19.012500
N -12.889800 -6.186600 -16.821800
N -12.837600 -6.185100 -15.413700
H -12.836900 -6.934700 -17.243600
C -12.388300 -6.252500 -21.057900
C -12.298000 -6.158700 -19.677800
H -12.276300 -5.585500 -15.149100
H -11.946800 -6.948400 -21.489000
H -11.757400 -6.749700 -19.204100
H -15.870000 -9.472500 -28.027000
H -15.725500 -8.839500 -25.835000
C -15.313600 -8.767500 -27.786300
C -15.228500 -8.384300 -26.474800
H -14.943700 -9.301200 -30.162600
O -14.925100 -7.502900 -23.770200
N -14.669600 -8.479600 -30.091200
C -14.570000 -8.107600 -28.768800
C -14.413000 -7.327500 -26.080200
C -14.307900 -6.958000 -24.663600
H -14.038400 -8.175500 -30.587600
C -13.775300 -7.034100 -28.389500
C -13.706200 -6.661000 -27.068800
O -13.447700 -5.986400 -24.427000
H -13.408600 -5.846000 -23.620100
H -13.289400 -6.566700 -29.030800
H -13.169000 -5.939800 -26.832700
