17
Fragment
O -6.523900 -10.095300 -27.690900
H -6.109500 -9.997700 -25.325900
N -5.319200 -9.992100 -27.787100
C -5.195600 -9.827900 -25.361600
H -4.878800 -9.709700 -23.380000
O -4.726300 -10.097900 -28.834700
C -4.540100 -9.748000 -26.562600
C -4.460600 -9.649300 -24.208600
C -3.195700 -9.477800 -26.673300
C -3.102400 -9.380200 -24.276700
O -2.933200 -9.207000 -21.920200
H -2.782800 -9.424100 -27.504400
C -2.475900 -9.288700 -25.502100
C -2.364900 -9.203500 -22.985300
H -1.566400 -9.099000 -25.543800
O -1.074400 -9.061700 -23.117700
H -0.732900 -8.963600 -22.379100
17
Fragment
O -13.581200 -10.095300 -27.690900
H -13.166800 -9.997700 -25.325900
N -12.376500 -9.992100 -27.787100
C -12.252900 -9.827900 -25.361600
H -11.936100 -9.709700 -23.380000
O -11.783600 -10.097900 -28.834700
C -11.597400 -9.748000 -26.562600
C -11.517900 -9.649300 -24.208600
C -10.253000 -9.477800 -26.673300
C -10.159700 -9.380200 -24.276700
O -9.990500 -9.207000 -21.920200
H -9.840100 -9.424100 -27.504400
C -9.533200 -9.288700 -25.502100
C -9.422200 -9.203500 -22.985300
H -8.623700 -9.099000 -25.543800
O -8.131700 -9.061700 -23.117700
H -7.790200 -8.963600 -22.379100
34
Fragment
O -6.523900 -10.095300 -27.690900
H -6.109500 -9.997700 -25.325900
N -5.319200 -9.992100 -27.787100
C -5.195600 -9.827900 -25.361600
H -4.878800 -9.709700 -23.380000
O -4.726300 -10.097900 -28.834700
C -4.540100 -9.748000 -26.562600
C -4.460600 -9.649300 -24.208600
C -3.195700 -9.477800 -26.673300
C -3.102400 -9.380200 -24.276700
O -2.933200 -9.207000 -21.920200
H -2.782800 -9.424100 -27.504400
C -2.475900 -9.288700 -25.502100
C -2.364900 -9.203500 -22.985300
H -1.566400 -9.099000 -25.543800
O -1.074400 -9.061700 -23.117700
H -0.732900 -8.963600 -22.379100
O -13.581200 -10.095300 -27.690900
H -13.166800 -9.997700 -25.325900
N -12.376500 -9.992100 -27.787100
C -12.252900 -9.827900 -25.361600
H -11.936100 -9.709700 -23.380000
O -11.783600 -10.097900 -28.834700
C -11.597400 -9.748000 -26.562600
C -11.517900 -9.649300 -24.208600
C -10.253000 -9.477800 -26.673300
C -10.159700 -9.380200 -24.276700
O -9.990500 -9.207000 -21.920200
H -9.840100 -9.424100 -27.504400
C -9.533200 -9.288700 -25.502100
C -9.422200 -9.203500 -22.985300
H -8.623700 -9.099000 -25.543800
O -8.131700 -9.061700 -23.117700
H -7.790200 -8.963600 -22.379100
