3
Fragment
H -12.354800 -9.931300 -28.858300
O -12.325000 -9.729300 -28.051200
H -11.625600 -9.650700 -27.579000
3
Fragment
H -15.307500 -9.847100 -29.686000
O -14.793000 -10.418300 -29.339900
H -13.982200 -10.385800 -29.121600
6
Fragment
H -12.354800 -9.931300 -28.858300
O -12.325000 -9.729300 -28.051200
H -11.625600 -9.650700 -27.579000
H -15.307500 -9.847100 -29.686000
O -14.793000 -10.418300 -29.339900
H -13.982200 -10.385800 -29.121600
