3
Fragment
H -12.354800 -9.931300 -28.858300
O -12.325000 -9.729300 -28.051200
H -11.625600 -9.650700 -27.579000
22
Fragment
O -11.793000 -10.559200 -30.995400
N -10.763100 -10.394800 -31.604900
O -10.482500 -9.516100 -32.361100
N -9.946100 -12.468500 -30.637900
N -9.707500 -11.401900 -31.422400
N -8.929500 -15.064700 -29.078400
C -8.727600 -13.006100 -30.545700
N -8.464700 -11.177500 -31.821200
C -8.259200 -14.175400 -29.827100
H -8.127200 -16.575700 -28.181000
N -7.959700 -15.885000 -28.681400
C -7.809000 -12.213800 -31.281300
C -6.907000 -14.508700 -29.842200
N -6.715900 -15.605600 -29.085700
C -6.414800 -12.549900 -31.287000
C -5.958500 -13.690000 -30.564600
N -5.362700 -11.930500 -31.817700
N -4.634900 -13.764100 -30.648500
N -4.356000 -12.713200 -31.426900
N -2.964500 -12.313100 -31.629300
O -2.836300 -11.331200 -32.320500
O -2.158200 -13.007200 -31.088700
25
Fragment
H -12.354800 -9.931300 -28.858300
O -12.325000 -9.729300 -28.051200
H -11.625600 -9.650700 -27.579000
O -11.793000 -10.559200 -30.995400
N -10.763100 -10.394800 -31.604900
O -10.482500 -9.516100 -32.361100
N -9.946100 -12.468500 -30.637900
N -9.707500 -11.401900 -31.422400
N -8.929500 -15.064700 -29.078400
C -8.727600 -13.006100 -30.545700
N -8.464700 -11.177500 -31.821200
C -8.259200 -14.175400 -29.827100
H -8.127200 -16.575700 -28.181000
N -7.959700 -15.885000 -28.681400
C -7.809000 -12.213800 -31.281300
C -6.907000 -14.508700 -29.842200
N -6.715900 -15.605600 -29.085700
C -6.414800 -12.549900 -31.287000
C -5.958500 -13.690000 -30.564600
N -5.362700 -11.930500 -31.817700
N -4.634900 -13.764100 -30.648500
N -4.356000 -12.713200 -31.426900
N -2.964500 -12.313100 -31.629300
O -2.836300 -11.331200 -32.320500
O -2.158200 -13.007200 -31.088700
