18
Fragment
H -10.192200 -7.723700 -18.094400
H -10.099100 -9.885600 -17.293800
H -9.549400 -6.905700 -16.904900
H -9.532500 -9.077900 -15.909800
C -9.363300 -7.251500 -17.835900
H -9.325800 -6.451700 -18.460400
C -9.284900 -9.809900 -16.599500
H -8.871400 -10.733200 -16.230100
N -8.165100 -8.093600 -17.965200
C -8.082800 -9.320000 -17.348700
O -7.170000 -6.478100 -19.239300
C -7.114100 -7.565400 -18.700600
C -6.948100 -10.065800 -17.413900
H -6.816900 -10.882100 -16.985000
N -5.989700 -8.368400 -18.770400
C -5.805500 -9.587600 -18.129900
H -5.345400 -8.078600 -19.238200
O -4.722700 -10.171600 -18.224800
18
Fragment
O -17.367100 -4.010900 -16.088300
H -16.744400 -6.103900 -15.074900
C -16.284300 -4.594900 -16.183200
N -16.100200 -5.814100 -15.542700
H -15.272900 -3.300400 -17.328100
C -15.141800 -4.116700 -16.899200
C -14.975700 -6.617100 -15.612400
O -14.919800 -7.704300 -15.073700
C -14.007100 -4.862500 -16.964400
N -13.924700 -6.088900 -16.347900
H -13.218400 -3.449300 -18.083000
C -12.804900 -4.372600 -17.713600
H -12.764000 -7.730800 -15.852600
C -12.726500 -6.931000 -16.477100
H -12.557300 -5.104600 -18.403200
H -12.540400 -7.276800 -17.408200
H -11.990700 -4.296900 -17.019300
H -11.897600 -6.458800 -16.218600
36
Fragment
H -10.192200 -7.723700 -18.094400
H -10.099100 -9.885600 -17.293800
H -9.549400 -6.905700 -16.904900
H -9.532500 -9.077900 -15.909800
C -9.363300 -7.251500 -17.835900
H -9.325800 -6.451700 -18.460400
C -9.284900 -9.809900 -16.599500
H -8.871400 -10.733200 -16.230100
N -8.165100 -8.093600 -17.965200
C -8.082800 -9.320000 -17.348700
O -7.170000 -6.478100 -19.239300
C -7.114100 -7.565400 -18.700600
C -6.948100 -10.065800 -17.413900
H -6.816900 -10.882100 -16.985000
N -5.989700 -8.368400 -18.770400
C -5.805500 -9.587600 -18.129900
H -5.345400 -8.078600 -19.238200
O -4.722700 -10.171600 -18.224800
O -17.367100 -4.010900 -16.088300
H -16.744400 -6.103900 -15.074900
C -16.284300 -4.594900 -16.183200
N -16.100200 -5.814100 -15.542700
H -15.272900 -3.300400 -17.328100
C -15.141800 -4.116700 -16.899200
C -14.975700 -6.617100 -15.612400
O -14.919800 -7.704300 -15.073700
C -14.007100 -4.862500 -16.964400
N -13.924700 -6.088900 -16.347900
H -13.218400 -3.449300 -18.083000
C -12.804900 -4.372600 -17.713600
H -12.764000 -7.730800 -15.852600
C -12.726500 -6.931000 -16.477100
H -12.557300 -5.104600 -18.403200
H -12.540400 -7.276800 -17.408200
H -11.990700 -4.296900 -17.019300
H -11.897600 -6.458800 -16.218600
