18
Fragment
H -10.192200 -7.723700 -18.094400
H -10.099100 -9.885600 -17.293800
H -9.549400 -6.905700 -16.904900
H -9.532500 -9.077900 -15.909800
C -9.363300 -7.251500 -17.835900
H -9.325800 -6.451700 -18.460400
C -9.284900 -9.809900 -16.599500
H -8.871400 -10.733200 -16.230100
N -8.165100 -8.093600 -17.965200
C -8.082800 -9.320000 -17.348700
O -7.170000 -6.478100 -19.239300
C -7.114100 -7.565400 -18.700600
C -6.948100 -10.065800 -17.413900
H -6.816900 -10.882100 -16.985000
N -5.989700 -8.368400 -18.770400
C -5.805500 -9.587600 -18.129900
H -5.345400 -8.078600 -19.238200
O -4.722700 -10.171600 -18.224800
18
Fragment
H -15.741300 -11.316700 -12.970300
H -15.286300 -10.811200 -14.422900
C -15.035700 -10.907400 -13.471300
H -14.820600 -9.977100 -13.084700
H -14.804800 -13.236300 -12.307000
C -13.987800 -13.003300 -12.653500
C -13.877600 -11.839100 -13.330600
H -13.061200 -9.517700 -14.320000
O -12.869000 -14.963600 -11.904300
C -12.867600 -13.886900 -12.503700
H -12.854200 -10.373100 -15.578100
N -12.683100 -11.472400 -13.915100
C -12.552000 -10.243600 -14.710000
N -11.706900 -13.435100 -13.119000
H -11.650700 -9.940500 -14.663100
C -11.554000 -12.273500 -13.817900
H -11.025800 -13.947600 -13.084700
O -10.489700 -11.962000 -14.340600
36
Fragment
H -10.192200 -7.723700 -18.094400
H -10.099100 -9.885600 -17.293800
H -9.549400 -6.905700 -16.904900
H -9.532500 -9.077900 -15.909800
C -9.363300 -7.251500 -17.835900
H -9.325800 -6.451700 -18.460400
C -9.284900 -9.809900 -16.599500
H -8.871400 -10.733200 -16.230100
N -8.165100 -8.093600 -17.965200
C -8.082800 -9.320000 -17.348700
O -7.170000 -6.478100 -19.239300
C -7.114100 -7.565400 -18.700600
C -6.948100 -10.065800 -17.413900
H -6.816900 -10.882100 -16.985000
N -5.989700 -8.368400 -18.770400
C -5.805500 -9.587600 -18.129900
H -5.345400 -8.078600 -19.238200
O -4.722700 -10.171600 -18.224800
H -15.741300 -11.316700 -12.970300
H -15.286300 -10.811200 -14.422900
C -15.035700 -10.907400 -13.471300
H -14.820600 -9.977100 -13.084700
H -14.804800 -13.236300 -12.307000
C -13.987800 -13.003300 -12.653500
C -13.877600 -11.839100 -13.330600
H -13.061200 -9.517700 -14.320000
O -12.869000 -14.963600 -11.904300
C -12.867600 -13.886900 -12.503700
H -12.854200 -10.373100 -15.578100
N -12.683100 -11.472400 -13.915100
C -12.552000 -10.243600 -14.710000
N -11.706900 -13.435100 -13.119000
H -11.650700 -9.940500 -14.663100
C -11.554000 -12.273500 -13.817900
H -11.025800 -13.947600 -13.084700
O -10.489700 -11.962000 -14.340600
