18
Fragment
H -10.192200 -7.723700 -18.094400
H -10.099100 -9.885600 -17.293800
H -9.549400 -6.905700 -16.904900
H -9.532500 -9.077900 -15.909800
C -9.363300 -7.251500 -17.835900
H -9.325800 -6.451700 -18.460400
C -9.284900 -9.809900 -16.599500
H -8.871400 -10.733200 -16.230100
N -8.165100 -8.093600 -17.965200
C -8.082800 -9.320000 -17.348700
O -7.170000 -6.478100 -19.239300
C -7.114100 -7.565400 -18.700600
C -6.948100 -10.065800 -17.413900
H -6.816900 -10.882100 -16.985000
N -5.989700 -8.368400 -18.770400
C -5.805500 -9.587600 -18.129900
H -5.345400 -8.078600 -19.238200
O -4.722700 -10.171600 -18.224800
18
Fragment
O -11.600100 -2.220500 -19.972500
H -11.064000 -0.234900 -21.228400
C -10.535800 -1.909000 -20.495200
H -10.439100 -4.242000 -19.650000
N -10.382900 -0.747400 -21.194000
C -9.537800 -3.938900 -19.603100
N -9.406700 -2.710000 -20.398000
H -9.235600 -3.809400 -18.734900
C -9.222200 -0.295600 -21.809400
O -9.220800 0.781100 -22.408700
H -9.028700 -4.664800 -19.993100
C -8.212200 -2.343400 -20.982400
C -8.102000 -1.179200 -21.659600
H -7.285000 -0.946200 -22.006100
H -7.269300 -4.205400 -21.228400
C -7.054100 -3.275100 -20.841800
H -6.803500 -3.371300 -19.890100
H -6.348500 -2.865700 -21.342700
36
Fragment
H -10.192200 -7.723700 -18.094400
H -10.099100 -9.885600 -17.293800
H -9.549400 -6.905700 -16.904900
H -9.532500 -9.077900 -15.909800
C -9.363300 -7.251500 -17.835900
H -9.325800 -6.451700 -18.460400
C -9.284900 -9.809900 -16.599500
H -8.871400 -10.733200 -16.230100
N -8.165100 -8.093600 -17.965200
C -8.082800 -9.320000 -17.348700
O -7.170000 -6.478100 -19.239300
C -7.114100 -7.565400 -18.700600
C -6.948100 -10.065800 -17.413900
H -6.816900 -10.882100 -16.985000
N -5.989700 -8.368400 -18.770400
C -5.805500 -9.587600 -18.129900
H -5.345400 -8.078600 -19.238200
O -4.722700 -10.171600 -18.224800
O -11.600100 -2.220500 -19.972500
H -11.064000 -0.234900 -21.228400
C -10.535800 -1.909000 -20.495200
H -10.439100 -4.242000 -19.650000
N -10.382900 -0.747400 -21.194000
C -9.537800 -3.938900 -19.603100
N -9.406700 -2.710000 -20.398000
H -9.235600 -3.809400 -18.734900
C -9.222200 -0.295600 -21.809400
O -9.220800 0.781100 -22.408700
H -9.028700 -4.664800 -19.993100
C -8.212200 -2.343400 -20.982400
C -8.102000 -1.179200 -21.659600
H -7.285000 -0.946200 -22.006100
H -7.269300 -4.205400 -21.228400
C -7.054100 -3.275100 -20.841800
H -6.803500 -3.371300 -19.890100
H -6.348500 -2.865700 -21.342700
