18
Fragment
H -10.192200 -7.723700 -18.094400
H -10.099100 -9.885600 -17.293800
H -9.549400 -6.905700 -16.904900
H -9.532500 -9.077900 -15.909800
C -9.363300 -7.251500 -17.835900
H -9.325800 -6.451700 -18.460400
C -9.284900 -9.809900 -16.599500
H -8.871400 -10.733200 -16.230100
N -8.165100 -8.093600 -17.965200
C -8.082800 -9.320000 -17.348700
O -7.170000 -6.478100 -19.239300
C -7.114100 -7.565400 -18.700600
C -6.948100 -10.065800 -17.413900
H -6.816900 -10.882100 -16.985000
N -5.989700 -8.368400 -18.770400
C -5.805500 -9.587600 -18.129900
H -5.345400 -8.078600 -19.238200
O -4.722700 -10.171600 -18.224800
18
Fragment
O -14.848700 -13.075900 -16.088300
H -14.226000 -15.169000 -15.074900
C -13.765900 -13.660000 -16.183200
N -13.581800 -14.879200 -15.542700
H -12.754500 -12.365500 -17.328100
C -12.623400 -13.181800 -16.899200
C -12.457300 -15.682200 -15.612400
O -12.401400 -16.769400 -15.073700
C -11.488700 -13.927600 -16.964400
N -11.406300 -15.154000 -16.347900
H -10.700000 -12.514400 -18.083000
C -10.286500 -13.437700 -17.713600
H -10.245600 -16.795800 -15.852600
C -10.208100 -15.996100 -16.477100
H -10.038900 -14.169700 -18.403200
H -10.022000 -16.341900 -17.408200
H -9.472300 -13.361900 -17.019300
H -9.379200 -15.523900 -16.218600
36
Fragment
H -10.192200 -7.723700 -18.094400
H -10.099100 -9.885600 -17.293800
H -9.549400 -6.905700 -16.904900
H -9.532500 -9.077900 -15.909800
C -9.363300 -7.251500 -17.835900
H -9.325800 -6.451700 -18.460400
C -9.284900 -9.809900 -16.599500
H -8.871400 -10.733200 -16.230100
N -8.165100 -8.093600 -17.965200
C -8.082800 -9.320000 -17.348700
O -7.170000 -6.478100 -19.239300
C -7.114100 -7.565400 -18.700600
C -6.948100 -10.065800 -17.413900
H -6.816900 -10.882100 -16.985000
N -5.989700 -8.368400 -18.770400
C -5.805500 -9.587600 -18.129900
H -5.345400 -8.078600 -19.238200
O -4.722700 -10.171600 -18.224800
O -14.848700 -13.075900 -16.088300
H -14.226000 -15.169000 -15.074900
C -13.765900 -13.660000 -16.183200
N -13.581800 -14.879200 -15.542700
H -12.754500 -12.365500 -17.328100
C -12.623400 -13.181800 -16.899200
C -12.457300 -15.682200 -15.612400
O -12.401400 -16.769400 -15.073700
C -11.488700 -13.927600 -16.964400
N -11.406300 -15.154000 -16.347900
H -10.700000 -12.514400 -18.083000
C -10.286500 -13.437700 -17.713600
H -10.245600 -16.795800 -15.852600
C -10.208100 -15.996100 -16.477100
H -10.038900 -14.169700 -18.403200
H -10.022000 -16.341900 -17.408200
H -9.472300 -13.361900 -17.019300
H -9.379200 -15.523900 -16.218600
