24
Fragment
H -27.683800 -6.597700 -18.876700
H -27.662500 -7.327900 -17.454000
C -27.191700 -6.703400 -18.042400
H -27.096500 -5.838800 -17.602100
O -26.288700 -7.243300 -20.610300
N -25.874200 -7.230400 -18.326800
C -25.508100 -7.504000 -19.691300
O -25.348900 -7.175300 -16.096700
C -25.004100 -7.441900 -17.242500
H -24.626400 -8.098600 -21.950400
N -24.257300 -8.029900 -19.989300
C -23.873700 -8.294800 -21.371900
C -23.725400 -8.006300 -17.612900
H -23.626100 -9.240600 -21.448900
C -23.384000 -8.295000 -18.983400
H -23.271000 -7.861700 -14.994100
H -23.110000 -7.724100 -21.621000
N -22.612000 -8.376000 -16.836100
C -22.447700 -8.241100 -15.375300
H -22.270300 -9.135200 -14.983900
N -22.106200 -8.841100 -19.051200
H -21.686000 -7.637000 -15.193800
C -21.685800 -8.869500 -17.744000
H -20.830900 -9.165600 -17.467800
24
Fragment
H -36.599700 -2.922000 -19.343300
C -35.744800 -3.218100 -19.067000
H -35.744600 -4.450600 -21.617300
N -35.324400 -3.246500 -17.759900
H -35.160300 -2.952400 -21.827100
C -34.982900 -3.846500 -21.435800
N -34.818600 -3.711600 -19.975000
H -34.320600 -4.363500 -15.190100
H -34.159500 -4.225900 -21.817000
C -34.046600 -3.792600 -17.827700
H -33.804500 -2.847000 -15.362200
C -33.705200 -4.081300 -19.198200
C -33.556900 -3.792800 -15.439200
N -33.173300 -4.057700 -16.821700
H -32.804200 -3.989100 -14.860600
C -32.426500 -4.645700 -19.568600
O -32.081700 -4.912300 -20.714300
C -31.922500 -4.583600 -17.119700
N -31.556400 -4.857200 -18.484300
O -31.141900 -4.844300 -16.200700
H -30.334100 -6.248800 -19.208900
C -30.238900 -5.384200 -18.768700
H -29.768100 -4.759700 -19.357100
H -29.746800 -5.489900 -17.934400
48
Fragment
H -27.683800 -6.597700 -18.876700
H -27.662500 -7.327900 -17.454000
C -27.191700 -6.703400 -18.042400
H -27.096500 -5.838800 -17.602100
O -26.288700 -7.243300 -20.610300
N -25.874200 -7.230400 -18.326800
C -25.508100 -7.504000 -19.691300
O -25.348900 -7.175300 -16.096700
C -25.004100 -7.441900 -17.242500
H -24.626400 -8.098600 -21.950400
N -24.257300 -8.029900 -19.989300
C -23.873700 -8.294800 -21.371900
C -23.725400 -8.006300 -17.612900
H -23.626100 -9.240600 -21.448900
C -23.384000 -8.295000 -18.983400
H -23.271000 -7.861700 -14.994100
H -23.110000 -7.724100 -21.621000
N -22.612000 -8.376000 -16.836100
C -22.447700 -8.241100 -15.375300
H -22.270300 -9.135200 -14.983900
N -22.106200 -8.841100 -19.051200
H -21.686000 -7.637000 -15.193800
C -21.685800 -8.869500 -17.744000
H -20.830900 -9.165600 -17.467800
H -36.599700 -2.922000 -19.343300
C -35.744800 -3.218100 -19.067000
H -35.744600 -4.450600 -21.617300
N -35.324400 -3.246500 -17.759900
H -35.160300 -2.952400 -21.827100
C -34.982900 -3.846500 -21.435800
N -34.818600 -3.711600 -19.975000
H -34.320600 -4.363500 -15.190100
H -34.159500 -4.225900 -21.817000
C -34.046600 -3.792600 -17.827700
H -33.804500 -2.847000 -15.362200
C -33.705200 -4.081300 -19.198200
C -33.556900 -3.792800 -15.439200
N -33.173300 -4.057700 -16.821700
H -32.804200 -3.989100 -14.860600
C -32.426500 -4.645700 -19.568600
O -32.081700 -4.912300 -20.714300
C -31.922500 -4.583600 -17.119700
N -31.556400 -4.857200 -18.484300
O -31.141900 -4.844300 -16.200700
H -30.334100 -6.248800 -19.208900
C -30.238900 -5.384200 -18.768700
H -29.768100 -4.759700 -19.357100
H -29.746800 -5.489900 -17.934400
