15
Fragment
H -12.184200 -14.413500 -25.027300
H -11.777700 -15.643500 -23.063800
C -11.454500 -15.044500 -25.000200
C -11.219000 -15.760300 -23.844600
H -10.824400 -14.710000 -26.940500
C -10.639400 -15.195000 -26.115100
C -10.170400 -16.688100 -23.804000
F -9.977000 -17.420500 -22.665100
C -9.601700 -16.118700 -26.095200
C -9.329100 -16.868100 -24.928700
F -8.860600 -16.282600 -27.204900
C -8.174200 -17.794400 -24.901000
O -8.032900 -18.513100 -23.764100
O -7.327100 -18.011300 -25.757600
H -7.252600 -19.081100 -23.850500
15
Fragment
H -13.008400 -23.642900 -30.234700
O -12.933900 -22.573100 -28.327700
O -12.228100 -23.074900 -30.321100
C -12.086800 -22.356200 -29.184300
F -11.400400 -20.844400 -26.880400
C -10.931900 -21.429900 -29.156600
C -10.659300 -20.680500 -27.990100
F -10.284000 -21.982400 -31.420100
C -10.090600 -21.249900 -30.281300
C -9.621600 -19.756800 -27.970100
H -9.436600 -19.271800 -27.144800
C -9.042000 -20.322100 -30.240600
C -8.806500 -19.606300 -29.085000
H -8.483300 -20.205400 -31.021500
H -8.076800 -18.975300 -29.058000
30
Fragment
H -12.184200 -14.413500 -25.027300
H -11.777700 -15.643500 -23.063800
C -11.454500 -15.044500 -25.000200
C -11.219000 -15.760300 -23.844600
H -10.824400 -14.710000 -26.940500
C -10.639400 -15.195000 -26.115100
C -10.170400 -16.688100 -23.804000
F -9.977000 -17.420500 -22.665100
C -9.601700 -16.118700 -26.095200
C -9.329100 -16.868100 -24.928700
F -8.860600 -16.282600 -27.204900
C -8.174200 -17.794400 -24.901000
O -8.032900 -18.513100 -23.764100
O -7.327100 -18.011300 -25.757600
H -7.252600 -19.081100 -23.850500
H -13.008400 -23.642900 -30.234700
O -12.933900 -22.573100 -28.327700
O -12.228100 -23.074900 -30.321100
C -12.086800 -22.356200 -29.184300
F -11.400400 -20.844400 -26.880400
C -10.931900 -21.429900 -29.156600
C -10.659300 -20.680500 -27.990100
F -10.284000 -21.982400 -31.420100
C -10.090600 -21.249900 -30.281300
C -9.621600 -19.756800 -27.970100
H -9.436600 -19.271800 -27.144800
C -9.042000 -20.322100 -30.240600
C -8.806500 -19.606300 -29.085000
H -8.483300 -20.205400 -31.021500
H -8.076800 -18.975300 -29.058000
