24
Fragment
H -27.683800 -6.597700 -18.876700
H -27.662500 -7.327900 -17.454000
C -27.191700 -6.703400 -18.042400
H -27.096500 -5.838800 -17.602100
O -26.288700 -7.243300 -20.610300
N -25.874200 -7.230400 -18.326800
C -25.508100 -7.504000 -19.691300
O -25.348900 -7.175300 -16.096700
C -25.004100 -7.441900 -17.242500
H -24.626400 -8.098600 -21.950400
N -24.257300 -8.029900 -19.989300
C -23.873700 -8.294800 -21.371900
C -23.725400 -8.006300 -17.612900
H -23.626100 -9.240600 -21.448900
C -23.384000 -8.295000 -18.983400
H -23.271000 -7.861700 -14.994100
H -23.110000 -7.724100 -21.621000
N -22.612000 -8.376000 -16.836100
C -22.447700 -8.241100 -15.375300
H -22.270300 -9.135200 -14.983900
N -22.106200 -8.841100 -19.051200
H -21.686000 -7.637000 -15.193800
C -21.685800 -8.869500 -17.744000
H -20.830900 -9.165600 -17.467800
15
Fragment
H -29.651400 -9.318000 -20.219400
O -29.023500 -9.655900 -20.899500
H -27.971500 -10.223000 -22.868900
C -27.917300 -10.156200 -20.277600
O -27.899300 -10.099900 -19.049000
C -27.149300 -10.618700 -22.552400
C -26.916000 -10.678500 -21.157800
H -26.404700 -11.071600 -24.406700
C -26.229500 -11.123800 -23.455400
C -25.712200 -11.264900 -20.689200
H -25.528400 -11.315500 -19.730700
C -25.051700 -11.692800 -23.004800
C -24.782000 -11.766600 -21.600900
H -24.396300 -12.045600 -23.653000
F -23.653900 -12.363400 -21.125600
39
Fragment
H -27.683800 -6.597700 -18.876700
H -27.662500 -7.327900 -17.454000
C -27.191700 -6.703400 -18.042400
H -27.096500 -5.838800 -17.602100
O -26.288700 -7.243300 -20.610300
N -25.874200 -7.230400 -18.326800
C -25.508100 -7.504000 -19.691300
O -25.348900 -7.175300 -16.096700
C -25.004100 -7.441900 -17.242500
H -24.626400 -8.098600 -21.950400
N -24.257300 -8.029900 -19.989300
C -23.873700 -8.294800 -21.371900
C -23.725400 -8.006300 -17.612900
H -23.626100 -9.240600 -21.448900
C -23.384000 -8.295000 -18.983400
H -23.271000 -7.861700 -14.994100
H -23.110000 -7.724100 -21.621000
N -22.612000 -8.376000 -16.836100
C -22.447700 -8.241100 -15.375300
H -22.270300 -9.135200 -14.983900
N -22.106200 -8.841100 -19.051200
H -21.686000 -7.637000 -15.193800
C -21.685800 -8.869500 -17.744000
H -20.830900 -9.165600 -17.467800
H -29.651400 -9.318000 -20.219400
O -29.023500 -9.655900 -20.899500
H -27.971500 -10.223000 -22.868900
C -27.917300 -10.156200 -20.277600
O -27.899300 -10.099900 -19.049000
C -27.149300 -10.618700 -22.552400
C -26.916000 -10.678500 -21.157800
H -26.404700 -11.071600 -24.406700
C -26.229500 -11.123800 -23.455400
C -25.712200 -11.264900 -20.689200
H -25.528400 -11.315500 -19.730700
C -25.051700 -11.692800 -23.004800
C -24.782000 -11.766600 -21.600900
H -24.396300 -12.045600 -23.653000
F -23.653900 -12.363400 -21.125600
