24
Fragment
H -27.683800 -6.597700 -18.876700
H -27.662500 -7.327900 -17.454000
C -27.191700 -6.703400 -18.042400
H -27.096500 -5.838800 -17.602100
O -26.288700 -7.243300 -20.610300
N -25.874200 -7.230400 -18.326800
C -25.508100 -7.504000 -19.691300
O -25.348900 -7.175300 -16.096700
C -25.004100 -7.441900 -17.242500
H -24.626400 -8.098600 -21.950400
N -24.257300 -8.029900 -19.989300
C -23.873700 -8.294800 -21.371900
C -23.725400 -8.006300 -17.612900
H -23.626100 -9.240600 -21.448900
C -23.384000 -8.295000 -18.983400
H -23.271000 -7.861700 -14.994100
H -23.110000 -7.724100 -21.621000
N -22.612000 -8.376000 -16.836100
C -22.447700 -8.241100 -15.375300
H -22.270300 -9.135200 -14.983900
N -22.106200 -8.841100 -19.051200
H -21.686000 -7.637000 -15.193800
C -21.685800 -8.869500 -17.744000
H -20.830900 -9.165600 -17.467800
24
Fragment
H -25.427000 -8.325500 -28.546100
C -24.572100 -8.621600 -28.269800
H -24.571800 -9.854100 -30.820100
N -24.151700 -8.650000 -26.962600
H -23.987500 -8.355900 -31.029900
C -23.810100 -9.250000 -30.638600
N -23.645800 -9.115100 -29.177700
H -23.147900 -9.767000 -24.392900
H -22.986800 -9.629400 -31.019800
C -22.873900 -9.196100 -27.030500
H -22.631700 -8.250500 -24.565000
C -22.532500 -9.484800 -28.400900
C -22.384100 -9.196300 -24.642000
N -22.000600 -9.461200 -26.024500
H -21.631500 -9.392500 -24.063400
C -21.253700 -10.049200 -28.771400
O -20.908900 -10.315800 -29.917100
C -20.749800 -9.987100 -26.322500
N -20.383700 -10.260600 -27.687100
O -19.969200 -10.247800 -25.403500
H -19.161400 -11.652300 -28.411700
C -19.066200 -10.787700 -27.971400
H -18.595400 -10.163100 -28.559900
H -18.574100 -10.893400 -27.137100
48
Fragment
H -27.683800 -6.597700 -18.876700
H -27.662500 -7.327900 -17.454000
C -27.191700 -6.703400 -18.042400
H -27.096500 -5.838800 -17.602100
O -26.288700 -7.243300 -20.610300
N -25.874200 -7.230400 -18.326800
C -25.508100 -7.504000 -19.691300
O -25.348900 -7.175300 -16.096700
C -25.004100 -7.441900 -17.242500
H -24.626400 -8.098600 -21.950400
N -24.257300 -8.029900 -19.989300
C -23.873700 -8.294800 -21.371900
C -23.725400 -8.006300 -17.612900
H -23.626100 -9.240600 -21.448900
C -23.384000 -8.295000 -18.983400
H -23.271000 -7.861700 -14.994100
H -23.110000 -7.724100 -21.621000
N -22.612000 -8.376000 -16.836100
C -22.447700 -8.241100 -15.375300
H -22.270300 -9.135200 -14.983900
N -22.106200 -8.841100 -19.051200
H -21.686000 -7.637000 -15.193800
C -21.685800 -8.869500 -17.744000
H -20.830900 -9.165600 -17.467800
H -25.427000 -8.325500 -28.546100
C -24.572100 -8.621600 -28.269800
H -24.571800 -9.854100 -30.820100
N -24.151700 -8.650000 -26.962600
H -23.987500 -8.355900 -31.029900
C -23.810100 -9.250000 -30.638600
N -23.645800 -9.115100 -29.177700
H -23.147900 -9.767000 -24.392900
H -22.986800 -9.629400 -31.019800
C -22.873900 -9.196100 -27.030500
H -22.631700 -8.250500 -24.565000
C -22.532500 -9.484800 -28.400900
C -22.384100 -9.196300 -24.642000
N -22.000600 -9.461200 -26.024500
H -21.631500 -9.392500 -24.063400
C -21.253700 -10.049200 -28.771400
O -20.908900 -10.315800 -29.917100
C -20.749800 -9.987100 -26.322500
N -20.383700 -10.260600 -27.687100
O -19.969200 -10.247800 -25.403500
H -19.161400 -11.652300 -28.411700
C -19.066200 -10.787700 -27.971400
H -18.595400 -10.163100 -28.559900
H -18.574100 -10.893400 -27.137100
