15
Fragment
H -12.184200 -14.413500 -25.027300
H -11.777700 -15.643500 -23.063800
C -11.454500 -15.044500 -25.000200
C -11.219000 -15.760300 -23.844600
H -10.824400 -14.710000 -26.940500
C -10.639400 -15.195000 -26.115100
C -10.170400 -16.688100 -23.804000
F -9.977000 -17.420500 -22.665100
C -9.601700 -16.118700 -26.095200
C -9.329100 -16.868100 -24.928700
F -8.860600 -16.282600 -27.204900
C -8.174200 -17.794400 -24.901000
O -8.032900 -18.513100 -23.764100
O -7.327100 -18.011300 -25.757600
H -7.252600 -19.081100 -23.850500
24
Fragment
H -8.962300 -24.188900 -21.520800
O -8.554300 -22.566600 -23.578700
H -8.449800 -22.352900 -26.326400
H -8.328900 -25.152300 -20.399000
C -8.164700 -24.382400 -20.978000
H -7.930700 -23.603700 -20.429900
H -7.770000 -21.137200 -25.523800
C -7.601700 -21.965400 -26.027100
C -7.525400 -23.149900 -23.929500
N -7.067200 -24.679800 -21.865700
H -7.026500 -21.778400 -26.801100
N -6.947900 -22.900100 -25.174400
C -6.809600 -24.129900 -23.138400
C -6.071600 -25.587600 -21.655600
H -5.977200 -26.042500 -20.822700
C -5.747900 -23.503300 -25.619400
C -5.639600 -24.755800 -23.614100
O -5.266900 -23.212300 -26.740400
N -5.136400 -25.608100 -22.638900
N -5.102300 -24.436900 -24.806000
H -4.054300 -26.010500 -25.402000
C -3.883300 -25.066400 -25.242700
H -3.586300 -24.642000 -26.066200
H -3.201600 -24.960400 -24.548200
39
Fragment
H -12.184200 -14.413500 -25.027300
H -11.777700 -15.643500 -23.063800
C -11.454500 -15.044500 -25.000200
C -11.219000 -15.760300 -23.844600
H -10.824400 -14.710000 -26.940500
C -10.639400 -15.195000 -26.115100
C -10.170400 -16.688100 -23.804000
F -9.977000 -17.420500 -22.665100
C -9.601700 -16.118700 -26.095200
C -9.329100 -16.868100 -24.928700
F -8.860600 -16.282600 -27.204900
C -8.174200 -17.794400 -24.901000
O -8.032900 -18.513100 -23.764100
O -7.327100 -18.011300 -25.757600
H -7.252600 -19.081100 -23.850500
H -8.962300 -24.188900 -21.520800
O -8.554300 -22.566600 -23.578700
H -8.449800 -22.352900 -26.326400
H -8.328900 -25.152300 -20.399000
C -8.164700 -24.382400 -20.978000
H -7.930700 -23.603700 -20.429900
H -7.770000 -21.137200 -25.523800
C -7.601700 -21.965400 -26.027100
C -7.525400 -23.149900 -23.929500
N -7.067200 -24.679800 -21.865700
H -7.026500 -21.778400 -26.801100
N -6.947900 -22.900100 -25.174400
C -6.809600 -24.129900 -23.138400
C -6.071600 -25.587600 -21.655600
H -5.977200 -26.042500 -20.822700
C -5.747900 -23.503300 -25.619400
C -5.639600 -24.755800 -23.614100
O -5.266900 -23.212300 -26.740400
N -5.136400 -25.608100 -22.638900
N -5.102300 -24.436900 -24.806000
H -4.054300 -26.010500 -25.402000
C -3.883300 -25.066400 -25.242700
H -3.586300 -24.642000 -26.066200
H -3.201600 -24.960400 -24.548200
