15
Fragment
H -16.206800 -8.382400 -22.883900
O -16.150800 -9.265400 -20.844300
O -15.420700 -8.949400 -22.885900
C -15.301300 -9.559400 -21.644200
H -14.549700 -10.833400 -19.508200
C -14.146200 -10.472600 -21.466800
C -13.950000 -11.046900 -20.245200
F -13.351100 -10.199900 -23.775300
C -13.208500 -10.738900 -22.540100
C -12.903900 -11.926700 -20.054600
F -12.720400 -12.466600 -18.871900
C -12.185800 -11.609800 -22.331900
C -12.010200 -12.198000 -21.080400
H -11.588600 -11.810600 -23.067800
H -11.280800 -12.809600 -20.919700
15
Fragment
H -14.698000 -17.367200 -17.951500
H -14.390200 -16.368200 -15.803300
C -13.968600 -16.755600 -17.790700
C -13.793000 -16.167400 -16.539200
F -13.258400 -17.024200 -19.999200
C -13.074900 -16.484300 -18.816600
C -12.770300 -15.296500 -16.331000
F -12.627700 -14.757500 -15.095800
C -12.028800 -15.604500 -18.626000
C -11.832600 -15.030200 -17.404300
H -11.429100 -15.391000 -19.363000
C -10.677500 -14.117000 -17.226900
O -10.558100 -13.507000 -15.985200
O -9.828000 -13.823000 -18.026900
H -9.772000 -12.940000 -15.987200
30
Fragment
H -16.206800 -8.382400 -22.883900
O -16.150800 -9.265400 -20.844300
O -15.420700 -8.949400 -22.885900
C -15.301300 -9.559400 -21.644200
H -14.549700 -10.833400 -19.508200
C -14.146200 -10.472600 -21.466800
C -13.950000 -11.046900 -20.245200
F -13.351100 -10.199900 -23.775300
C -13.208500 -10.738900 -22.540100
C -12.903900 -11.926700 -20.054600
F -12.720400 -12.466600 -18.871900
C -12.185800 -11.609800 -22.331900
C -12.010200 -12.198000 -21.080400
H -11.588600 -11.810600 -23.067800
H -11.280800 -12.809600 -20.919700
H -14.698000 -17.367200 -17.951500
H -14.390200 -16.368200 -15.803300
C -13.968600 -16.755600 -17.790700
C -13.793000 -16.167400 -16.539200
F -13.258400 -17.024200 -19.999200
C -13.074900 -16.484300 -18.816600
C -12.770300 -15.296500 -16.331000
F -12.627700 -14.757500 -15.095800
C -12.028800 -15.604500 -18.626000
C -11.832600 -15.030200 -17.404300
H -11.429100 -15.391000 -19.363000
C -10.677500 -14.117000 -17.226900
O -10.558100 -13.507000 -15.985200
O -9.828000 -13.823000 -18.026900
H -9.772000 -12.940000 -15.987200
