15
Fragment
H -12.184200 -14.413500 -25.027300
H -11.777700 -15.643500 -23.063800
C -11.454500 -15.044500 -25.000200
C -11.219000 -15.760300 -23.844600
H -10.824400 -14.710000 -26.940500
C -10.639400 -15.195000 -26.115100
C -10.170400 -16.688100 -23.804000
F -9.977000 -17.420500 -22.665100
C -9.601700 -16.118700 -26.095200
C -9.329100 -16.868100 -24.928700
F -8.860600 -16.282600 -27.204900
C -8.174200 -17.794400 -24.901000
O -8.032900 -18.513100 -23.764100
O -7.327100 -18.011300 -25.757600
H -7.252600 -19.081100 -23.850500
24
Fragment
H -8.962300 -15.065300 -21.520800
O -8.554300 -13.443000 -23.578700
H -8.449800 -13.229200 -26.326400
H -8.328900 -16.028600 -20.399000
C -8.164700 -15.258800 -20.978000
H -7.930700 -14.480100 -20.429900
H -7.770000 -12.013600 -25.523800
C -7.601700 -12.841800 -26.027100
C -7.525400 -14.026300 -23.929500
N -7.067200 -15.556100 -21.865700
H -7.026500 -12.654800 -26.801100
N -6.947900 -13.776500 -25.174400
C -6.809600 -15.006300 -23.138400
C -6.071600 -16.464000 -21.655600
H -5.977200 -16.918800 -20.822700
C -5.747900 -14.379600 -25.619400
C -5.639600 -15.632100 -23.614100
O -5.266900 -14.088700 -26.740400
N -5.136400 -16.484500 -22.638900
N -5.102300 -15.313300 -24.806000
H -4.054300 -16.886900 -25.402000
C -3.883300 -15.942800 -25.242700
H -3.586300 -15.518400 -26.066200
H -3.201600 -15.836800 -24.548200
39
Fragment
H -12.184200 -14.413500 -25.027300
H -11.777700 -15.643500 -23.063800
C -11.454500 -15.044500 -25.000200
C -11.219000 -15.760300 -23.844600
H -10.824400 -14.710000 -26.940500
C -10.639400 -15.195000 -26.115100
C -10.170400 -16.688100 -23.804000
F -9.977000 -17.420500 -22.665100
C -9.601700 -16.118700 -26.095200
C -9.329100 -16.868100 -24.928700
F -8.860600 -16.282600 -27.204900
C -8.174200 -17.794400 -24.901000
O -8.032900 -18.513100 -23.764100
O -7.327100 -18.011300 -25.757600
H -7.252600 -19.081100 -23.850500
H -8.962300 -15.065300 -21.520800
O -8.554300 -13.443000 -23.578700
H -8.449800 -13.229200 -26.326400
H -8.328900 -16.028600 -20.399000
C -8.164700 -15.258800 -20.978000
H -7.930700 -14.480100 -20.429900
H -7.770000 -12.013600 -25.523800
C -7.601700 -12.841800 -26.027100
C -7.525400 -14.026300 -23.929500
N -7.067200 -15.556100 -21.865700
H -7.026500 -12.654800 -26.801100
N -6.947900 -13.776500 -25.174400
C -6.809600 -15.006300 -23.138400
C -6.071600 -16.464000 -21.655600
H -5.977200 -16.918800 -20.822700
C -5.747900 -14.379600 -25.619400
C -5.639600 -15.632100 -23.614100
O -5.266900 -14.088700 -26.740400
N -5.136400 -16.484500 -22.638900
N -5.102300 -15.313300 -24.806000
H -4.054300 -16.886900 -25.402000
C -3.883300 -15.942800 -25.242700
H -3.586300 -15.518400 -26.066200
H -3.201600 -15.836800 -24.548200
