15
Fragment
H -12.184200 -14.413500 -25.027300
H -11.777700 -15.643500 -23.063800
C -11.454500 -15.044500 -25.000200
C -11.219000 -15.760300 -23.844600
H -10.824400 -14.710000 -26.940500
C -10.639400 -15.195000 -26.115100
C -10.170400 -16.688100 -23.804000
F -9.977000 -17.420500 -22.665100
C -9.601700 -16.118700 -26.095200
C -9.329100 -16.868100 -24.928700
F -8.860600 -16.282600 -27.204900
C -8.174200 -17.794400 -24.901000
O -8.032900 -18.513100 -23.764100
O -7.327100 -18.011300 -25.757600
H -7.252600 -19.081100 -23.850500
24
Fragment
H -17.059400 -20.398600 -29.537000
H -16.674700 -20.080200 -28.019100
C -16.377700 -20.504600 -28.842600
H -16.206700 -21.448700 -28.683300
N -15.158700 -19.875100 -29.279300
N -15.124600 -21.046300 -31.446400
O -14.994100 -18.650500 -27.344900
C -14.621400 -20.193900 -30.471200
C -14.513100 -18.941500 -28.465800
H -14.283800 -21.480700 -33.262600
C -14.189400 -21.025800 -32.429700
C -13.451500 -19.568100 -30.946800
N -13.313100 -18.338300 -28.910900
H -13.234500 -17.216600 -27.284200
N -13.193900 -20.117900 -32.219500
C -12.735600 -18.588100 -30.155800
C -12.659300 -17.403600 -28.058200
H -12.491000 -16.575400 -28.561500
H -12.330300 -19.041900 -33.655400
C -12.096300 -19.820600 -33.107300
H -11.932100 -20.590500 -33.686300
H -11.811200 -17.791100 -27.758900
O -11.706700 -18.004800 -30.506600
H -11.298700 -19.627100 -32.564400
39
Fragment
H -12.184200 -14.413500 -25.027300
H -11.777700 -15.643500 -23.063800
C -11.454500 -15.044500 -25.000200
C -11.219000 -15.760300 -23.844600
H -10.824400 -14.710000 -26.940500
C -10.639400 -15.195000 -26.115100
C -10.170400 -16.688100 -23.804000
F -9.977000 -17.420500 -22.665100
C -9.601700 -16.118700 -26.095200
C -9.329100 -16.868100 -24.928700
F -8.860600 -16.282600 -27.204900
C -8.174200 -17.794400 -24.901000
O -8.032900 -18.513100 -23.764100
O -7.327100 -18.011300 -25.757600
H -7.252600 -19.081100 -23.850500
H -17.059400 -20.398600 -29.537000
H -16.674700 -20.080200 -28.019100
C -16.377700 -20.504600 -28.842600
H -16.206700 -21.448700 -28.683300
N -15.158700 -19.875100 -29.279300
N -15.124600 -21.046300 -31.446400
O -14.994100 -18.650500 -27.344900
C -14.621400 -20.193900 -30.471200
C -14.513100 -18.941500 -28.465800
H -14.283800 -21.480700 -33.262600
C -14.189400 -21.025800 -32.429700
C -13.451500 -19.568100 -30.946800
N -13.313100 -18.338300 -28.910900
H -13.234500 -17.216600 -27.284200
N -13.193900 -20.117900 -32.219500
C -12.735600 -18.588100 -30.155800
C -12.659300 -17.403600 -28.058200
H -12.491000 -16.575400 -28.561500
H -12.330300 -19.041900 -33.655400
C -12.096300 -19.820600 -33.107300
H -11.932100 -20.590500 -33.686300
H -11.811200 -17.791100 -27.758900
O -11.706700 -18.004800 -30.506600
H -11.298700 -19.627100 -32.564400
