15
Fragment
H -12.378300 -14.749800 -24.800600
H -11.983500 -16.105500 -22.956700
C -11.602300 -15.322500 -24.789100
C -11.361000 -16.115000 -23.698300
F -10.904400 -14.536400 -26.953900
C -10.701400 -15.325500 -25.896400
C -10.276100 -16.949900 -23.676000
H -10.077200 -17.493200 -22.860900
C -9.602000 -16.126600 -25.886000
C -9.339800 -16.954400 -24.751300
F -8.812600 -16.121500 -26.977000
O -8.175200 -18.712500 -23.591800
C -8.173800 -17.846800 -24.665400
H -7.372500 -19.265600 -23.623500
O -7.209200 -17.924300 -25.423000
15
Fragment
O -13.517900 -13.344500 -28.466700
H -13.354500 -14.685700 -30.266100
C -12.553300 -13.267000 -29.224200
O -12.551900 -14.132700 -30.297800
F -11.914500 -11.541700 -26.912600
C -11.387300 -12.374500 -29.138300
C -11.125000 -11.546800 -28.003700
H -10.649900 -12.913300 -31.028700
C -10.451000 -12.370100 -30.213600
C -10.025700 -10.745700 -27.993200
F -9.822700 -9.956600 -26.935700
C -9.366100 -11.535200 -30.191300
C -9.124800 -10.742700 -29.100500
H -8.743500 -11.525600 -30.932900
H -8.348700 -10.170000 -29.089000
30
Fragment
H -12.378300 -14.749800 -24.800600
H -11.983500 -16.105500 -22.956700
C -11.602300 -15.322500 -24.789100
C -11.361000 -16.115000 -23.698300
F -10.904400 -14.536400 -26.953900
C -10.701400 -15.325500 -25.896400
C -10.276100 -16.949900 -23.676000
H -10.077200 -17.493200 -22.860900
C -9.602000 -16.126600 -25.886000
C -9.339800 -16.954400 -24.751300
F -8.812600 -16.121500 -26.977000
O -8.175200 -18.712500 -23.591800
C -8.173800 -17.846800 -24.665400
H -7.372500 -19.265600 -23.623500
O -7.209200 -17.924300 -25.423000
O -13.517900 -13.344500 -28.466700
H -13.354500 -14.685700 -30.266100
C -12.553300 -13.267000 -29.224200
O -12.551900 -14.132700 -30.297800
F -11.914500 -11.541700 -26.912600
C -11.387300 -12.374500 -29.138300
C -11.125000 -11.546800 -28.003700
H -10.649900 -12.913300 -31.028700
C -10.451000 -12.370100 -30.213600
C -10.025700 -10.745700 -27.993200
F -9.822700 -9.956600 -26.935700
C -9.366100 -11.535200 -30.191300
C -9.124800 -10.742700 -29.100500
H -8.743500 -11.525600 -30.932900
H -8.348700 -10.170000 -29.089000
