15
Fragment
H -16.206800 -8.382400 -22.883900
O -16.150800 -9.265400 -20.844300
O -15.420700 -8.949400 -22.885900
C -15.301300 -9.559400 -21.644200
H -14.549700 -10.833400 -19.508200
C -14.146200 -10.472600 -21.466800
C -13.950000 -11.046900 -20.245200
F -13.351100 -10.199900 -23.775300
C -13.208500 -10.738900 -22.540100
C -12.903900 -11.926700 -20.054600
F -12.720400 -12.466600 -18.871900
C -12.185800 -11.609800 -22.331900
C -12.010200 -12.198000 -21.080400
H -11.588600 -11.810600 -23.067800
H -11.280800 -12.809600 -20.919700
24
Fragment
H -8.718500 -11.670200 -21.671000
H -8.158100 -11.910900 -20.187800
C -7.962000 -11.521900 -21.052600
H -7.799900 -10.572700 -20.952800
N -6.908500 -10.925800 -23.729700
N -6.759100 -12.159200 -21.608600
O -6.384500 -13.426800 -19.709500
C -6.314400 -11.793200 -22.810400
H -6.206900 -10.447900 -25.576700
C -6.051100 -10.916100 -24.770400
C -6.008700 -13.097400 -20.853600
C -5.160700 -12.367700 -23.370100
N -5.002000 -11.783100 -24.634700
N -4.844200 -13.662700 -21.395800
H -4.578900 -14.776700 -19.774500
C -4.368100 -13.363500 -22.649300
H -4.289300 -12.276400 -26.416800
C -4.085200 -14.581700 -20.602800
H -3.949500 -15.406500 -21.113900
C -3.920300 -11.984100 -25.569100
H -3.437300 -11.146100 -25.686700
O -3.345400 -13.898000 -23.070800
H -3.319100 -12.662000 -25.213700
H -3.213000 -14.169600 -20.388800
39
Fragment
H -16.206800 -8.382400 -22.883900
O -16.150800 -9.265400 -20.844300
O -15.420700 -8.949400 -22.885900
C -15.301300 -9.559400 -21.644200
H -14.549700 -10.833400 -19.508200
C -14.146200 -10.472600 -21.466800
C -13.950000 -11.046900 -20.245200
F -13.351100 -10.199900 -23.775300
C -13.208500 -10.738900 -22.540100
C -12.903900 -11.926700 -20.054600
F -12.720400 -12.466600 -18.871900
C -12.185800 -11.609800 -22.331900
C -12.010200 -12.198000 -21.080400
H -11.588600 -11.810600 -23.067800
H -11.280800 -12.809600 -20.919700
H -8.718500 -11.670200 -21.671000
H -8.158100 -11.910900 -20.187800
C -7.962000 -11.521900 -21.052600
H -7.799900 -10.572700 -20.952800
N -6.908500 -10.925800 -23.729700
N -6.759100 -12.159200 -21.608600
O -6.384500 -13.426800 -19.709500
C -6.314400 -11.793200 -22.810400
H -6.206900 -10.447900 -25.576700
C -6.051100 -10.916100 -24.770400
C -6.008700 -13.097400 -20.853600
C -5.160700 -12.367700 -23.370100
N -5.002000 -11.783100 -24.634700
N -4.844200 -13.662700 -21.395800
H -4.578900 -14.776700 -19.774500
C -4.368100 -13.363500 -22.649300
H -4.289300 -12.276400 -26.416800
C -4.085200 -14.581700 -20.602800
H -3.949500 -15.406500 -21.113900
C -3.920300 -11.984100 -25.569100
H -3.437300 -11.146100 -25.686700
O -3.345400 -13.898000 -23.070800
H -3.319100 -12.662000 -25.213700
H -3.213000 -14.169600 -20.388800
