15
Fragment
H -12.378300 -14.749800 -24.800600
H -11.983500 -16.105500 -22.956700
C -11.602300 -15.322500 -24.789100
C -11.361000 -16.115000 -23.698300
F -10.904400 -14.536400 -26.953900
C -10.701400 -15.325500 -25.896400
C -10.276100 -16.949900 -23.676000
H -10.077200 -17.493200 -22.860900
C -9.602000 -16.126600 -25.886000
C -9.339800 -16.954400 -24.751300
F -8.812600 -16.121500 -26.977000
O -8.175200 -18.712500 -23.591800
C -8.173800 -17.846800 -24.665400
H -7.372500 -19.265600 -23.623500
O -7.209200 -17.924300 -25.423000
24
Fragment
H -17.293700 -20.423300 -29.279300
H -16.849300 -20.111000 -27.770200
C -16.583300 -20.529100 -28.615800
H -16.396900 -21.471200 -28.476500
N -15.392000 -19.888100 -29.102400
N -15.365400 -21.140800 -31.229500
O -15.222400 -18.547500 -27.218600
C -14.870900 -20.237200 -30.295400
C -14.737300 -18.894200 -28.322700
H -14.548600 -21.615900 -33.056500
C -14.449000 -21.129500 -32.230300
C -13.711000 -19.593200 -30.809800
N -13.563800 -18.269100 -28.815500
H -13.456200 -17.112100 -27.210300
N -13.443600 -20.181100 -32.049700
C -12.983700 -18.565800 -30.042200
C -12.922700 -17.274600 -28.021800
H -12.849500 -16.443500 -28.550900
H -12.698800 -19.587100 -33.833000
C -12.332400 -19.869800 -32.952600
H -12.028700 -17.598500 -27.779800
O -11.964200 -17.937300 -30.443300
H -11.797700 -19.139200 -32.558400
H -11.770800 -20.666100 -33.067400
39
Fragment
H -12.378300 -14.749800 -24.800600
H -11.983500 -16.105500 -22.956700
C -11.602300 -15.322500 -24.789100
C -11.361000 -16.115000 -23.698300
F -10.904400 -14.536400 -26.953900
C -10.701400 -15.325500 -25.896400
C -10.276100 -16.949900 -23.676000
H -10.077200 -17.493200 -22.860900
C -9.602000 -16.126600 -25.886000
C -9.339800 -16.954400 -24.751300
F -8.812600 -16.121500 -26.977000
O -8.175200 -18.712500 -23.591800
C -8.173800 -17.846800 -24.665400
H -7.372500 -19.265600 -23.623500
O -7.209200 -17.924300 -25.423000
H -17.293700 -20.423300 -29.279300
H -16.849300 -20.111000 -27.770200
C -16.583300 -20.529100 -28.615800
H -16.396900 -21.471200 -28.476500
N -15.392000 -19.888100 -29.102400
N -15.365400 -21.140800 -31.229500
O -15.222400 -18.547500 -27.218600
C -14.870900 -20.237200 -30.295400
C -14.737300 -18.894200 -28.322700
H -14.548600 -21.615900 -33.056500
C -14.449000 -21.129500 -32.230300
C -13.711000 -19.593200 -30.809800
N -13.563800 -18.269100 -28.815500
H -13.456200 -17.112100 -27.210300
N -13.443600 -20.181100 -32.049700
C -12.983700 -18.565800 -30.042200
C -12.922700 -17.274600 -28.021800
H -12.849500 -16.443500 -28.550900
H -12.698800 -19.587100 -33.833000
C -12.332400 -19.869800 -32.952600
H -12.028700 -17.598500 -27.779800
O -11.964200 -17.937300 -30.443300
H -11.797700 -19.139200 -32.558400
H -11.770800 -20.666100 -33.067400
