24
Fragment
H -27.683800 -6.597700 -18.876700
H -27.662500 -7.327900 -17.454000
C -27.191700 -6.703400 -18.042400
H -27.096500 -5.838800 -17.602100
O -26.288700 -7.243300 -20.610300
N -25.874200 -7.230400 -18.326800
C -25.508100 -7.504000 -19.691300
O -25.348900 -7.175300 -16.096700
C -25.004100 -7.441900 -17.242500
H -24.626400 -8.098600 -21.950400
N -24.257300 -8.029900 -19.989300
C -23.873700 -8.294800 -21.371900
C -23.725400 -8.006300 -17.612900
H -23.626100 -9.240600 -21.448900
C -23.384000 -8.295000 -18.983400
H -23.271000 -7.861700 -14.994100
H -23.110000 -7.724100 -21.621000
N -22.612000 -8.376000 -16.836100
C -22.447700 -8.241100 -15.375300
H -22.270300 -9.135200 -14.983900
N -22.106200 -8.841100 -19.051200
H -21.686000 -7.637000 -15.193800
C -21.685800 -8.869500 -17.744000
H -20.830900 -9.165600 -17.467800
24
Fragment
H -24.681100 -7.044900 -10.140500
C -23.826200 -7.340900 -9.864300
H -23.825900 -8.573400 -12.414500
N -23.405800 -7.369400 -8.557100
H -23.241600 -7.075300 -12.624400
C -23.064200 -7.969300 -12.233100
N -22.899900 -7.834400 -10.772200
H -22.402000 -8.486300 -5.987300
H -22.240900 -8.348700 -12.614200
C -22.128000 -7.915400 -8.624900
H -21.885800 -6.969800 -6.159400
C -21.786600 -8.204200 -9.995400
C -21.638200 -7.915600 -6.236400
N -21.254700 -8.180500 -7.619000
H -20.885600 -8.111900 -5.657900
C -20.507800 -8.768500 -10.365800
O -20.163000 -9.035100 -11.511600
C -20.003800 -8.706400 -7.917000
N -19.637800 -8.980000 -9.281500
O -19.223300 -8.967100 -6.998000
H -18.415500 -10.371600 -10.006200
C -18.320300 -9.507000 -9.565900
H -17.849500 -8.882500 -10.154300
H -17.828100 -9.612800 -8.731600
48
Fragment
H -27.683800 -6.597700 -18.876700
H -27.662500 -7.327900 -17.454000
C -27.191700 -6.703400 -18.042400
H -27.096500 -5.838800 -17.602100
O -26.288700 -7.243300 -20.610300
N -25.874200 -7.230400 -18.326800
C -25.508100 -7.504000 -19.691300
O -25.348900 -7.175300 -16.096700
C -25.004100 -7.441900 -17.242500
H -24.626400 -8.098600 -21.950400
N -24.257300 -8.029900 -19.989300
C -23.873700 -8.294800 -21.371900
C -23.725400 -8.006300 -17.612900
H -23.626100 -9.240600 -21.448900
C -23.384000 -8.295000 -18.983400
H -23.271000 -7.861700 -14.994100
H -23.110000 -7.724100 -21.621000
N -22.612000 -8.376000 -16.836100
C -22.447700 -8.241100 -15.375300
H -22.270300 -9.135200 -14.983900
N -22.106200 -8.841100 -19.051200
H -21.686000 -7.637000 -15.193800
C -21.685800 -8.869500 -17.744000
H -20.830900 -9.165600 -17.467800
H -24.681100 -7.044900 -10.140500
C -23.826200 -7.340900 -9.864300
H -23.825900 -8.573400 -12.414500
N -23.405800 -7.369400 -8.557100
H -23.241600 -7.075300 -12.624400
C -23.064200 -7.969300 -12.233100
N -22.899900 -7.834400 -10.772200
H -22.402000 -8.486300 -5.987300
H -22.240900 -8.348700 -12.614200
C -22.128000 -7.915400 -8.624900
H -21.885800 -6.969800 -6.159400
C -21.786600 -8.204200 -9.995400
C -21.638200 -7.915600 -6.236400
N -21.254700 -8.180500 -7.619000
H -20.885600 -8.111900 -5.657900
C -20.507800 -8.768500 -10.365800
O -20.163000 -9.035100 -11.511600
C -20.003800 -8.706400 -7.917000
N -19.637800 -8.980000 -9.281500
O -19.223300 -8.967100 -6.998000
H -18.415500 -10.371600 -10.006200
C -18.320300 -9.507000 -9.565900
H -17.849500 -8.882500 -10.154300
H -17.828100 -9.612800 -8.731600
