15
Fragment
O -14.895700 -13.362900 -20.597600
H -14.726200 -14.471500 -22.520800
C -13.938500 -13.163500 -21.343300
O -13.935800 -13.908100 -22.504500
H -13.375300 -11.539500 -19.310100
C -12.817900 -12.270700 -21.168800
C -12.695400 -11.483300 -20.003100
H -11.928400 -12.777900 -22.989500
C -11.815800 -12.241400 -22.168000
C -11.622300 -10.625500 -19.863900
H -11.525200 -10.099000 -19.044700
C -10.744000 -11.377400 -22.025200
C -10.630600 -10.573900 -20.860800
H -10.066300 -11.330100 -22.723200
H -9.868200 -9.983400 -20.753100
24
Fragment
H -7.459900 -11.225400 -21.620200
H -6.990100 -10.979500 -20.113200
C -6.739200 -11.358900 -20.972400
H -6.549500 -12.306200 -20.874200
N -5.565200 -10.699300 -21.443100
N -5.503600 -11.997200 -23.520600
O -5.386800 -9.377300 -19.574000
C -5.030500 -11.066100 -22.612100
C -4.927000 -9.696900 -20.667000
H -4.666500 -12.492900 -25.310200
C -4.611400 -11.955600 -24.531700
C -3.870500 -10.431500 -23.126200
N -3.758500 -9.065000 -21.153100
H -3.654700 -7.931000 -19.540800
N -3.604200 -11.032400 -24.351700
C -3.167000 -9.384300 -22.384700
C -3.139700 -8.052000 -20.358400
H -3.118200 -7.215300 -20.869100
H -2.900700 -10.410400 -26.103300
C -2.524400 -10.728600 -25.252400
H -2.232300 -8.336200 -20.142500
O -2.152000 -8.787200 -22.779500
H -1.988900 -11.537700 -25.401500
H -1.969400 -10.033500 -24.854300
39
Fragment
O -14.895700 -13.362900 -20.597600
H -14.726200 -14.471500 -22.520800
C -13.938500 -13.163500 -21.343300
O -13.935800 -13.908100 -22.504500
H -13.375300 -11.539500 -19.310100
C -12.817900 -12.270700 -21.168800
C -12.695400 -11.483300 -20.003100
H -11.928400 -12.777900 -22.989500
C -11.815800 -12.241400 -22.168000
C -11.622300 -10.625500 -19.863900
H -11.525200 -10.099000 -19.044700
C -10.744000 -11.377400 -22.025200
C -10.630600 -10.573900 -20.860800
H -10.066300 -11.330100 -22.723200
H -9.868200 -9.983400 -20.753100
H -7.459900 -11.225400 -21.620200
H -6.990100 -10.979500 -20.113200
C -6.739200 -11.358900 -20.972400
H -6.549500 -12.306200 -20.874200
N -5.565200 -10.699300 -21.443100
N -5.503600 -11.997200 -23.520600
O -5.386800 -9.377300 -19.574000
C -5.030500 -11.066100 -22.612100
C -4.927000 -9.696900 -20.667000
H -4.666500 -12.492900 -25.310200
C -4.611400 -11.955600 -24.531700
C -3.870500 -10.431500 -23.126200
N -3.758500 -9.065000 -21.153100
H -3.654700 -7.931000 -19.540800
N -3.604200 -11.032400 -24.351700
C -3.167000 -9.384300 -22.384700
C -3.139700 -8.052000 -20.358400
H -3.118200 -7.215300 -20.869100
H -2.900700 -10.410400 -26.103300
C -2.524400 -10.728600 -25.252400
H -2.232300 -8.336200 -20.142500
O -2.152000 -8.787200 -22.779500
H -1.988900 -11.537700 -25.401500
H -1.969400 -10.033500 -24.854300
