15
Fragment
O -14.895700 -13.362900 -20.597600
H -14.726200 -14.471500 -22.520800
C -13.938500 -13.163500 -21.343300
O -13.935800 -13.908100 -22.504500
H -13.375300 -11.539500 -19.310100
C -12.817900 -12.270700 -21.168800
C -12.695400 -11.483300 -20.003100
H -11.928400 -12.777900 -22.989500
C -11.815800 -12.241400 -22.168000
C -11.622300 -10.625500 -19.863900
H -11.525200 -10.099000 -19.044700
C -10.744000 -11.377400 -22.025200
C -10.630600 -10.573900 -20.860800
H -10.066300 -11.330100 -22.723200
H -9.868200 -9.983400 -20.753100
24
Fragment
H -18.695700 -11.225400 -21.620200
H -18.225900 -10.979500 -20.113200
C -17.975000 -11.358900 -20.972400
H -17.785300 -12.306200 -20.874200
N -16.801000 -10.699300 -21.443100
N -16.739400 -11.997200 -23.520600
O -16.622600 -9.377300 -19.574000
C -16.266300 -11.066100 -22.612100
C -16.162800 -9.696900 -20.667000
H -15.902300 -12.492900 -25.310200
C -15.847200 -11.955600 -24.531700
C -15.106300 -10.431500 -23.126200
N -14.994300 -9.065000 -21.153100
H -14.890500 -7.931000 -19.540800
N -14.840000 -11.032400 -24.351700
C -14.402800 -9.384300 -22.384700
C -14.375500 -8.052000 -20.358400
H -14.354000 -7.215300 -20.869100
H -14.136500 -10.410400 -26.103300
C -13.760200 -10.728600 -25.252400
H -13.468100 -8.336200 -20.142500
O -13.387800 -8.787200 -22.779500
H -13.224700 -11.537700 -25.401500
H -13.205200 -10.033500 -24.854300
39
Fragment
O -14.895700 -13.362900 -20.597600
H -14.726200 -14.471500 -22.520800
C -13.938500 -13.163500 -21.343300
O -13.935800 -13.908100 -22.504500
H -13.375300 -11.539500 -19.310100
C -12.817900 -12.270700 -21.168800
C -12.695400 -11.483300 -20.003100
H -11.928400 -12.777900 -22.989500
C -11.815800 -12.241400 -22.168000
C -11.622300 -10.625500 -19.863900
H -11.525200 -10.099000 -19.044700
C -10.744000 -11.377400 -22.025200
C -10.630600 -10.573900 -20.860800
H -10.066300 -11.330100 -22.723200
H -9.868200 -9.983400 -20.753100
H -18.695700 -11.225400 -21.620200
H -18.225900 -10.979500 -20.113200
C -17.975000 -11.358900 -20.972400
H -17.785300 -12.306200 -20.874200
N -16.801000 -10.699300 -21.443100
N -16.739400 -11.997200 -23.520600
O -16.622600 -9.377300 -19.574000
C -16.266300 -11.066100 -22.612100
C -16.162800 -9.696900 -20.667000
H -15.902300 -12.492900 -25.310200
C -15.847200 -11.955600 -24.531700
C -15.106300 -10.431500 -23.126200
N -14.994300 -9.065000 -21.153100
H -14.890500 -7.931000 -19.540800
N -14.840000 -11.032400 -24.351700
C -14.402800 -9.384300 -22.384700
C -14.375500 -8.052000 -20.358400
H -14.354000 -7.215300 -20.869100
H -14.136500 -10.410400 -26.103300
C -13.760200 -10.728600 -25.252400
H -13.468100 -8.336200 -20.142500
O -13.387800 -8.787200 -22.779500
H -13.224700 -11.537700 -25.401500
H -13.205200 -10.033500 -24.854300
