15
Fragment
H -11.831000 -17.193400 -24.779100
H -11.283900 -15.876000 -22.864300
C -11.053400 -16.624500 -24.797200
C -10.736600 -15.827800 -23.662400
H -10.458600 -17.150800 -26.707900
C -10.218700 -16.645900 -25.903400
C -9.649100 -14.994200 -23.680700
H -9.395700 -14.500800 -22.873200
C -9.115100 -15.806200 -25.941400
C -8.788000 -15.005000 -24.774900
F -8.345200 -15.799300 -27.052900
C -7.635900 -14.131000 -24.781200
O -7.473400 -13.409000 -23.649100
O -6.792200 -13.936000 -25.652900
H -6.684000 -12.859000 -23.743000
15
Fragment
H -12.530000 -17.391900 -30.090100
O -12.421800 -18.469000 -28.180300
O -11.740700 -17.941900 -30.184100
C -11.578100 -18.664000 -29.051900
F -10.868800 -20.332200 -26.780300
C -10.426000 -19.537900 -29.058200
C -10.099000 -20.339200 -27.891700
H -9.818300 -19.033800 -30.959900
C -9.564900 -19.527100 -30.152400
C -8.995300 -21.178800 -27.929700
H -8.755400 -21.683700 -27.125300
C -8.477400 -20.360700 -30.170700
C -8.160700 -21.157500 -29.035900
H -7.930100 -20.409000 -30.968800
H -7.383000 -21.726300 -29.054100
30
Fragment
H -11.831000 -17.193400 -24.779100
H -11.283900 -15.876000 -22.864300
C -11.053400 -16.624500 -24.797200
C -10.736600 -15.827800 -23.662400
H -10.458600 -17.150800 -26.707900
C -10.218700 -16.645900 -25.903400
C -9.649100 -14.994200 -23.680700
H -9.395700 -14.500800 -22.873200
C -9.115100 -15.806200 -25.941400
C -8.788000 -15.005000 -24.774900
F -8.345200 -15.799300 -27.052900
C -7.635900 -14.131000 -24.781200
O -7.473400 -13.409000 -23.649100
O -6.792200 -13.936000 -25.652900
H -6.684000 -12.859000 -23.743000
H -12.530000 -17.391900 -30.090100
O -12.421800 -18.469000 -28.180300
O -11.740700 -17.941900 -30.184100
C -11.578100 -18.664000 -29.051900
F -10.868800 -20.332200 -26.780300
C -10.426000 -19.537900 -29.058200
C -10.099000 -20.339200 -27.891700
H -9.818300 -19.033800 -30.959900
C -9.564900 -19.527100 -30.152400
C -8.995300 -21.178800 -27.929700
H -8.755400 -21.683700 -27.125300
C -8.477400 -20.360700 -30.170700
C -8.160700 -21.157500 -29.035900
H -7.930100 -20.409000 -30.968800
H -7.383000 -21.726300 -29.054100
