15
Fragment
H -11.831000 -17.193400 -24.779100
H -11.283900 -15.876000 -22.864300
C -11.053400 -16.624500 -24.797200
C -10.736600 -15.827800 -23.662400
H -10.458600 -17.150800 -26.707900
C -10.218700 -16.645900 -25.903400
C -9.649100 -14.994200 -23.680700
H -9.395700 -14.500800 -22.873200
C -9.115100 -15.806200 -25.941400
C -8.788000 -15.005000 -24.774900
F -8.345200 -15.799300 -27.052900
C -7.635900 -14.131000 -24.781200
O -7.473400 -13.409000 -23.649100
O -6.792200 -13.936000 -25.652900
H -6.684000 -12.859000 -23.743000
24
Fragment
H -19.876400 -16.288600 -21.479300
O -19.412500 -18.332700 -23.500500
H -19.283100 -18.707400 -26.205700
C -19.056800 -16.448200 -20.957200
H -19.034200 -17.365700 -20.634400
H -19.016000 -15.833500 -20.207000
H -18.518400 -19.884200 -25.442300
C -18.411200 -19.050000 -25.936000
C -18.369500 -17.775500 -23.843500
N -17.927400 -16.224800 -21.794100
H -17.856800 -19.198400 -26.722600
N -17.765600 -18.068900 -25.074100
C -17.666200 -16.785700 -23.062700
C -16.935500 -15.315400 -21.586500
H -16.862800 -14.835400 -20.772100
C -16.543800 -17.481300 -25.492900
C -16.474300 -16.193700 -23.517100
O -16.055000 -17.764400 -26.586000
N -15.986000 -15.313800 -22.550900
N -15.902000 -16.561700 -24.669900
H -14.818700 -15.000600 -25.174500
C -14.678200 -15.957000 -25.072600
H -14.398700 -16.346700 -25.923300
H -13.995800 -16.126400 -24.384600
39
Fragment
H -11.831000 -17.193400 -24.779100
H -11.283900 -15.876000 -22.864300
C -11.053400 -16.624500 -24.797200
C -10.736600 -15.827800 -23.662400
H -10.458600 -17.150800 -26.707900
C -10.218700 -16.645900 -25.903400
C -9.649100 -14.994200 -23.680700
H -9.395700 -14.500800 -22.873200
C -9.115100 -15.806200 -25.941400
C -8.788000 -15.005000 -24.774900
F -8.345200 -15.799300 -27.052900
C -7.635900 -14.131000 -24.781200
O -7.473400 -13.409000 -23.649100
O -6.792200 -13.936000 -25.652900
H -6.684000 -12.859000 -23.743000
H -19.876400 -16.288600 -21.479300
O -19.412500 -18.332700 -23.500500
H -19.283100 -18.707400 -26.205700
C -19.056800 -16.448200 -20.957200
H -19.034200 -17.365700 -20.634400
H -19.016000 -15.833500 -20.207000
H -18.518400 -19.884200 -25.442300
C -18.411200 -19.050000 -25.936000
C -18.369500 -17.775500 -23.843500
N -17.927400 -16.224800 -21.794100
H -17.856800 -19.198400 -26.722600
N -17.765600 -18.068900 -25.074100
C -17.666200 -16.785700 -23.062700
C -16.935500 -15.315400 -21.586500
H -16.862800 -14.835400 -20.772100
C -16.543800 -17.481300 -25.492900
C -16.474300 -16.193700 -23.517100
O -16.055000 -17.764400 -26.586000
N -15.986000 -15.313800 -22.550900
N -15.902000 -16.561700 -24.669900
H -14.818700 -15.000600 -25.174500
C -14.678200 -15.957000 -25.072600
H -14.398700 -16.346700 -25.923300
H -13.995800 -16.126400 -24.384600
