15
Fragment
H -11.831000 -17.193400 -24.779100
H -11.283900 -15.876000 -22.864300
C -11.053400 -16.624500 -24.797200
C -10.736600 -15.827800 -23.662400
H -10.458600 -17.150800 -26.707900
C -10.218700 -16.645900 -25.903400
C -9.649100 -14.994200 -23.680700
H -9.395700 -14.500800 -22.873200
C -9.115100 -15.806200 -25.941400
C -8.788000 -15.005000 -24.774900
F -8.345200 -15.799300 -27.052900
C -7.635900 -14.131000 -24.781200
O -7.473400 -13.409000 -23.649100
O -6.792200 -13.936000 -25.652900
H -6.684000 -12.859000 -23.743000
24
Fragment
H -18.626200 -20.137100 -21.758100
H -18.223300 -19.916800 -20.219400
C -17.943700 -20.306400 -21.070100
H -17.803200 -21.262800 -20.968200
N -16.720000 -19.701700 -21.472800
N -16.636000 -20.949700 -23.591800
O -16.567000 -18.499100 -19.556700
C -16.147700 -20.069700 -22.625600
C -16.078200 -18.782100 -20.649800
H -15.759200 -21.428100 -25.370600
C -15.686400 -20.948000 -24.556200
C -14.955800 -19.477700 -23.080000
N -14.856300 -18.194500 -21.068600
H -14.765200 -17.065000 -19.420100
N -14.694500 -20.038600 -24.348600
C -14.252500 -18.487900 -22.299200
C -14.210800 -17.213400 -20.206700
H -14.103600 -16.379300 -20.700400
H -13.605900 -20.429900 -25.935700
H -13.587800 -18.897800 -25.508300
C -13.565200 -19.815300 -25.185500
H -13.338800 -17.556000 -19.937000
O -13.209500 -17.930700 -22.642200
H -12.745600 -19.974800 -24.663400
39
Fragment
H -11.831000 -17.193400 -24.779100
H -11.283900 -15.876000 -22.864300
C -11.053400 -16.624500 -24.797200
C -10.736600 -15.827800 -23.662400
H -10.458600 -17.150800 -26.707900
C -10.218700 -16.645900 -25.903400
C -9.649100 -14.994200 -23.680700
H -9.395700 -14.500800 -22.873200
C -9.115100 -15.806200 -25.941400
C -8.788000 -15.005000 -24.774900
F -8.345200 -15.799300 -27.052900
C -7.635900 -14.131000 -24.781200
O -7.473400 -13.409000 -23.649100
O -6.792200 -13.936000 -25.652900
H -6.684000 -12.859000 -23.743000
H -18.626200 -20.137100 -21.758100
H -18.223300 -19.916800 -20.219400
C -17.943700 -20.306400 -21.070100
H -17.803200 -21.262800 -20.968200
N -16.720000 -19.701700 -21.472800
N -16.636000 -20.949700 -23.591800
O -16.567000 -18.499100 -19.556700
C -16.147700 -20.069700 -22.625600
C -16.078200 -18.782100 -20.649800
H -15.759200 -21.428100 -25.370600
C -15.686400 -20.948000 -24.556200
C -14.955800 -19.477700 -23.080000
N -14.856300 -18.194500 -21.068600
H -14.765200 -17.065000 -19.420100
N -14.694500 -20.038600 -24.348600
C -14.252500 -18.487900 -22.299200
C -14.210800 -17.213400 -20.206700
H -14.103600 -16.379300 -20.700400
H -13.605900 -20.429900 -25.935700
H -13.587800 -18.897800 -25.508300
C -13.565200 -19.815300 -25.185500
H -13.338800 -17.556000 -19.937000
O -13.209500 -17.930700 -22.642200
H -12.745600 -19.974800 -24.663400
