15
Fragment
O -14.895700 -13.362900 -20.597600
H -14.726200 -14.471500 -22.520800
C -13.938500 -13.163500 -21.343300
O -13.935800 -13.908100 -22.504500
H -13.375300 -11.539500 -19.310100
C -12.817900 -12.270700 -21.168800
C -12.695400 -11.483300 -20.003100
H -11.928400 -12.777900 -22.989500
C -11.815800 -12.241400 -22.168000
C -11.622300 -10.625500 -19.863900
H -11.525200 -10.099000 -19.044700
C -10.744000 -11.377400 -22.025200
C -10.630600 -10.573900 -20.860800
H -10.066300 -11.330100 -22.723200
H -9.868200 -9.983400 -20.753100
24
Fragment
H -20.698500 -11.538600 -13.919800
H -20.228600 -11.784500 -12.412800
C -19.977700 -11.405100 -13.272100
H -19.788000 -10.457800 -13.173800
N -18.803800 -12.064700 -13.742700
N -18.742200 -10.766800 -15.820300
O -18.625400 -13.386700 -11.873700
C -18.269000 -11.697900 -14.911800
C -18.165500 -13.067100 -12.966700
H -17.905100 -10.271100 -17.609800
C -17.849900 -10.808400 -16.831300
C -17.109000 -12.332500 -15.425800
N -16.997100 -13.699000 -13.452700
H -16.893300 -14.833000 -11.840400
N -16.842700 -11.731600 -16.651300
C -16.405500 -13.379700 -14.684300
C -16.378300 -14.712000 -12.658000
H -16.356800 -15.548700 -13.168700
H -16.139200 -12.353600 -18.403000
C -15.762900 -12.035400 -17.552100
H -15.470800 -14.427800 -12.442100
O -15.390600 -13.976800 -15.079200
H -15.227400 -11.226300 -17.701200
H -15.207900 -12.730500 -17.154000
39
Fragment
O -14.895700 -13.362900 -20.597600
H -14.726200 -14.471500 -22.520800
C -13.938500 -13.163500 -21.343300
O -13.935800 -13.908100 -22.504500
H -13.375300 -11.539500 -19.310100
C -12.817900 -12.270700 -21.168800
C -12.695400 -11.483300 -20.003100
H -11.928400 -12.777900 -22.989500
C -11.815800 -12.241400 -22.168000
C -11.622300 -10.625500 -19.863900
H -11.525200 -10.099000 -19.044700
C -10.744000 -11.377400 -22.025200
C -10.630600 -10.573900 -20.860800
H -10.066300 -11.330100 -22.723200
H -9.868200 -9.983400 -20.753100
H -20.698500 -11.538600 -13.919800
H -20.228600 -11.784500 -12.412800
C -19.977700 -11.405100 -13.272100
H -19.788000 -10.457800 -13.173800
N -18.803800 -12.064700 -13.742700
N -18.742200 -10.766800 -15.820300
O -18.625400 -13.386700 -11.873700
C -18.269000 -11.697900 -14.911800
C -18.165500 -13.067100 -12.966700
H -17.905100 -10.271100 -17.609800
C -17.849900 -10.808400 -16.831300
C -17.109000 -12.332500 -15.425800
N -16.997100 -13.699000 -13.452700
H -16.893300 -14.833000 -11.840400
N -16.842700 -11.731600 -16.651300
C -16.405500 -13.379700 -14.684300
C -16.378300 -14.712000 -12.658000
H -16.356800 -15.548700 -13.168700
H -16.139200 -12.353600 -18.403000
C -15.762900 -12.035400 -17.552100
H -15.470800 -14.427800 -12.442100
O -15.390600 -13.976800 -15.079200
H -15.227400 -11.226300 -17.701200
H -15.207900 -12.730500 -17.154000
