32
Fragment
H -19.281900 -19.914500 -11.328900
H -18.866400 -16.680300 -12.774600
H -18.652700 -15.137500 -12.401200
O -18.581000 -19.890700 -13.644900
N -18.522600 -19.514000 -11.415500
H -18.249900 -15.470700 -14.684900
H -18.230200 -18.981200 -10.713300
C -18.188900 -15.962500 -12.690800
C -18.074000 -19.310800 -12.667100
C -17.536900 -15.723900 -14.047000
C -17.179800 -16.353900 -11.654500
H -17.130700 -14.618200 -10.585200
N -17.017100 -18.457400 -12.812300
H -16.933600 -14.944600 -13.959100
C -16.747400 -15.484300 -10.655900
C -16.741800 -16.855300 -14.667200
C -16.582200 -17.602300 -11.734000
C -16.533500 -18.120500 -14.124000
H -16.237500 -15.733300 -16.304300
C -16.129000 -16.591600 -15.912500
C -15.781500 -19.072000 -14.797300
C -15.762600 -15.876000 -9.767200
H -15.650100 -19.927800 -14.405900
C -15.583600 -17.994100 -10.868600
H -15.485400 -15.280800 -9.081000
C -15.384200 -17.530600 -16.573600
C -15.221100 -18.792000 -16.028700
H -15.180200 -18.849700 -10.958600
C -15.175000 -17.129800 -9.867400
H -14.979200 -17.316300 -17.406400
H -14.729500 -19.458000 -16.495900
H -14.499000 -17.392600 -9.253800
32
Fragment
H -14.751500 -15.810100 -20.533000
H -14.521000 -13.744700 -13.290900
H -14.271300 -15.886400 -12.380400
C -14.075500 -16.072900 -19.919400
H -14.070300 -14.352900 -18.828200
C -14.029400 -14.410700 -13.758100
C -13.866400 -15.672100 -13.213200
H -13.765200 -17.921900 -20.705800
C -13.666900 -15.208600 -18.918200
H -13.600400 -13.274900 -15.380900
C -13.487900 -17.326700 -20.019600
C -13.469000 -14.130700 -14.989500
C -13.121500 -16.611100 -13.874300
H -13.013000 -17.469400 -13.482500
C -12.717000 -15.082200 -15.662800
C -12.668300 -15.600400 -18.052800
C -12.508700 -16.347400 -15.119600
C -12.503100 -17.718400 -19.130900
H -12.316900 -18.258100 -15.827700
N -12.233400 -14.745300 -16.974500
H -12.119800 -18.584400 -19.201600
C -12.070800 -16.848800 -18.132300
C -11.713700 -17.478800 -15.739800
C -11.176500 -13.891900 -17.119700
C -11.061600 -17.240200 -17.096000
H -11.020300 -14.221500 -19.073500
H -11.000600 -17.732000 -15.101900
N -10.727900 -13.688700 -18.371300
O -10.669500 -13.312000 -16.141900
H -10.597800 -18.065200 -17.385600
H -10.384200 -16.522400 -17.012200
H -9.968600 -13.288200 -18.457900
64
Fragment
H -19.281900 -19.914500 -11.328900
H -18.866400 -16.680300 -12.774600
H -18.652700 -15.137500 -12.401200
O -18.581000 -19.890700 -13.644900
N -18.522600 -19.514000 -11.415500
H -18.249900 -15.470700 -14.684900
H -18.230200 -18.981200 -10.713300
C -18.188900 -15.962500 -12.690800
C -18.074000 -19.310800 -12.667100
C -17.536900 -15.723900 -14.047000
C -17.179800 -16.353900 -11.654500
H -17.130700 -14.618200 -10.585200
N -17.017100 -18.457400 -12.812300
H -16.933600 -14.944600 -13.959100
C -16.747400 -15.484300 -10.655900
C -16.741800 -16.855300 -14.667200
C -16.582200 -17.602300 -11.734000
C -16.533500 -18.120500 -14.124000
H -16.237500 -15.733300 -16.304300
C -16.129000 -16.591600 -15.912500
C -15.781500 -19.072000 -14.797300
C -15.762600 -15.876000 -9.767200
H -15.650100 -19.927800 -14.405900
C -15.583600 -17.994100 -10.868600
H -15.485400 -15.280800 -9.081000
C -15.384200 -17.530600 -16.573600
C -15.221100 -18.792000 -16.028700
H -15.180200 -18.849700 -10.958600
C -15.175000 -17.129800 -9.867400
H -14.979200 -17.316300 -17.406400
H -14.729500 -19.458000 -16.495900
H -14.499000 -17.392600 -9.253800
H -14.751500 -15.810100 -20.533000
H -14.521000 -13.744700 -13.290900
H -14.271300 -15.886400 -12.380400
C -14.075500 -16.072900 -19.919400
H -14.070300 -14.352900 -18.828200
C -14.029400 -14.410700 -13.758100
C -13.866400 -15.672100 -13.213200
H -13.765200 -17.921900 -20.705800
C -13.666900 -15.208600 -18.918200
H -13.600400 -13.274900 -15.380900
C -13.487900 -17.326700 -20.019600
C -13.469000 -14.130700 -14.989500
C -13.121500 -16.611100 -13.874300
H -13.013000 -17.469400 -13.482500
C -12.717000 -15.082200 -15.662800
C -12.668300 -15.600400 -18.052800
C -12.508700 -16.347400 -15.119600
C -12.503100 -17.718400 -19.130900
H -12.316900 -18.258100 -15.827700
N -12.233400 -14.745300 -16.974500
H -12.119800 -18.584400 -19.201600
C -12.070800 -16.848800 -18.132300
C -11.713700 -17.478800 -15.739800
C -11.176500 -13.891900 -17.119700
C -11.061600 -17.240200 -17.096000
H -11.020300 -14.221500 -19.073500
H -11.000600 -17.732000 -15.101900
N -10.727900 -13.688700 -18.371300
O -10.669500 -13.312000 -16.141900
H -10.597800 -18.065200 -17.385600
H -10.384200 -16.522400 -17.012200
H -9.968600 -13.288200 -18.457900
