32
Fragment
H -19.281900 -19.914500 -11.328900
H -18.866400 -16.680300 -12.774600
H -18.652700 -15.137500 -12.401200
O -18.581000 -19.890700 -13.644900
N -18.522600 -19.514000 -11.415500
H -18.249900 -15.470700 -14.684900
H -18.230200 -18.981200 -10.713300
C -18.188900 -15.962500 -12.690800
C -18.074000 -19.310800 -12.667100
C -17.536900 -15.723900 -14.047000
C -17.179800 -16.353900 -11.654500
H -17.130700 -14.618200 -10.585200
N -17.017100 -18.457400 -12.812300
H -16.933600 -14.944600 -13.959100
C -16.747400 -15.484300 -10.655900
C -16.741800 -16.855300 -14.667200
C -16.582200 -17.602300 -11.734000
C -16.533500 -18.120500 -14.124000
H -16.237500 -15.733300 -16.304300
C -16.129000 -16.591600 -15.912500
C -15.781500 -19.072000 -14.797300
C -15.762600 -15.876000 -9.767200
H -15.650100 -19.927800 -14.405900
C -15.583600 -17.994100 -10.868600
H -15.485400 -15.280800 -9.081000
C -15.384200 -17.530600 -16.573600
C -15.221100 -18.792000 -16.028700
H -15.180200 -18.849700 -10.958600
C -15.175000 -17.129800 -9.867400
H -14.979200 -17.316300 -17.406400
H -14.729500 -19.458000 -16.495900
H -14.499000 -17.392600 -9.253800
32
Fragment
H -18.137600 -17.369100 -1.400000
H -17.722100 -14.134800 -2.845600
H -17.508400 -12.592100 -2.472300
O -17.436700 -17.345200 -3.716000
N -17.378300 -16.968600 -1.486600
H -17.105600 -12.925300 -4.756000
H -17.085900 -16.435700 -0.784400
C -17.044600 -13.417100 -2.761800
C -16.929800 -16.765300 -2.738200
C -16.392600 -13.178400 -4.118000
C -16.035500 -13.808500 -1.725500
H -15.986400 -12.072800 -0.656300
N -15.872900 -15.912000 -2.883400
H -15.789300 -12.399100 -4.030200
C -15.603100 -12.938900 -0.727000
C -15.597500 -14.309800 -4.738300
C -15.437900 -15.056900 -1.805100
C -15.389200 -15.575000 -4.195100
H -15.093200 -13.187900 -6.375400
C -14.984700 -14.046200 -5.983600
C -14.637200 -16.526500 -4.868400
C -14.618300 -13.330600 0.161700
H -14.505800 -17.382400 -4.477000
C -14.439300 -15.448600 -0.939700
H -14.341100 -12.735400 0.847900
C -14.239900 -14.985200 -6.644600
C -14.076800 -16.246500 -6.099700
H -14.035900 -16.304300 -1.029600
C -14.030800 -14.584300 0.061600
H -13.835000 -14.770900 -7.477500
H -13.585200 -16.912600 -6.567000
H -13.354800 -14.847200 0.675200
64
Fragment
H -19.281900 -19.914500 -11.328900
H -18.866400 -16.680300 -12.774600
H -18.652700 -15.137500 -12.401200
O -18.581000 -19.890700 -13.644900
N -18.522600 -19.514000 -11.415500
H -18.249900 -15.470700 -14.684900
H -18.230200 -18.981200 -10.713300
C -18.188900 -15.962500 -12.690800
C -18.074000 -19.310800 -12.667100
C -17.536900 -15.723900 -14.047000
C -17.179800 -16.353900 -11.654500
H -17.130700 -14.618200 -10.585200
N -17.017100 -18.457400 -12.812300
H -16.933600 -14.944600 -13.959100
C -16.747400 -15.484300 -10.655900
C -16.741800 -16.855300 -14.667200
C -16.582200 -17.602300 -11.734000
C -16.533500 -18.120500 -14.124000
H -16.237500 -15.733300 -16.304300
C -16.129000 -16.591600 -15.912500
C -15.781500 -19.072000 -14.797300
C -15.762600 -15.876000 -9.767200
H -15.650100 -19.927800 -14.405900
C -15.583600 -17.994100 -10.868600
H -15.485400 -15.280800 -9.081000
C -15.384200 -17.530600 -16.573600
C -15.221100 -18.792000 -16.028700
H -15.180200 -18.849700 -10.958600
C -15.175000 -17.129800 -9.867400
H -14.979200 -17.316300 -17.406400
H -14.729500 -19.458000 -16.495900
H -14.499000 -17.392600 -9.253800
H -18.137600 -17.369100 -1.400000
H -17.722100 -14.134800 -2.845600
H -17.508400 -12.592100 -2.472300
O -17.436700 -17.345200 -3.716000
N -17.378300 -16.968600 -1.486600
H -17.105600 -12.925300 -4.756000
H -17.085900 -16.435700 -0.784400
C -17.044600 -13.417100 -2.761800
C -16.929800 -16.765300 -2.738200
C -16.392600 -13.178400 -4.118000
C -16.035500 -13.808500 -1.725500
H -15.986400 -12.072800 -0.656300
N -15.872900 -15.912000 -2.883400
H -15.789300 -12.399100 -4.030200
C -15.603100 -12.938900 -0.727000
C -15.597500 -14.309800 -4.738300
C -15.437900 -15.056900 -1.805100
C -15.389200 -15.575000 -4.195100
H -15.093200 -13.187900 -6.375400
C -14.984700 -14.046200 -5.983600
C -14.637200 -16.526500 -4.868400
C -14.618300 -13.330600 0.161700
H -14.505800 -17.382400 -4.477000
C -14.439300 -15.448600 -0.939700
H -14.341100 -12.735400 0.847900
C -14.239900 -14.985200 -6.644600
C -14.076800 -16.246500 -6.099700
H -14.035900 -16.304300 -1.029600
C -14.030800 -14.584300 0.061600
H -13.835000 -14.770900 -7.477500
H -13.585200 -16.912600 -6.567000
H -13.354800 -14.847200 0.675200
