15
Fragment
O -11.185800 -24.221800 -9.855200
H -10.781600 -26.621000 -9.826600
N -10.028400 -24.164400 -10.261200
C -9.928000 -26.606300 -10.195100
H -9.670100 -28.591800 -10.244200
O -9.463900 -23.094100 -10.476000
C -9.315400 -25.398700 -10.488700
C -9.267300 -27.779400 -10.450900
C -8.039600 -25.354200 -11.013300
C -7.989300 -27.761700 -11.022100
H -7.631300 -24.536600 -11.186200
O -7.398400 -28.919600 -11.297100
C -7.380000 -26.527600 -11.277700
H -6.763900 -28.789100 -11.800000
H -6.519400 -26.503400 -11.629600
15
Fragment
H -11.605900 -33.278800 -9.319600
H -11.361300 -30.993100 -9.149200
C -10.745200 -33.254600 -9.671500
O -10.726900 -30.862600 -9.652100
H -10.493900 -35.245600 -9.763000
C -10.135900 -32.020500 -9.927100
C -10.085600 -34.428000 -9.935900
C -8.857900 -32.002800 -10.498300
C -8.809800 -34.383500 -10.460500
O -8.661300 -36.688100 -10.473200
H -8.455100 -31.190400 -10.705000
C -8.197300 -33.175900 -10.754100
N -8.096800 -35.617800 -10.688000
H -7.343700 -33.161200 -11.122600
O -6.939500 -35.560400 -11.094000
30
Fragment
O -11.185800 -24.221800 -9.855200
H -10.781600 -26.621000 -9.826600
N -10.028400 -24.164400 -10.261200
C -9.928000 -26.606300 -10.195100
H -9.670100 -28.591800 -10.244200
O -9.463900 -23.094100 -10.476000
C -9.315400 -25.398700 -10.488700
C -9.267300 -27.779400 -10.450900
C -8.039600 -25.354200 -11.013300
C -7.989300 -27.761700 -11.022100
H -7.631300 -24.536600 -11.186200
O -7.398400 -28.919600 -11.297100
C -7.380000 -26.527600 -11.277700
H -6.763900 -28.789100 -11.800000
H -6.519400 -26.503400 -11.629600
H -11.605900 -33.278800 -9.319600
H -11.361300 -30.993100 -9.149200
C -10.745200 -33.254600 -9.671500
O -10.726900 -30.862600 -9.652100
H -10.493900 -35.245600 -9.763000
C -10.135900 -32.020500 -9.927100
C -10.085600 -34.428000 -9.935900
C -8.857900 -32.002800 -10.498300
C -8.809800 -34.383500 -10.460500
O -8.661300 -36.688100 -10.473200
H -8.455100 -31.190400 -10.705000
C -8.197300 -33.175900 -10.754100
N -8.096800 -35.617800 -10.688000
H -7.343700 -33.161200 -11.122600
O -6.939500 -35.560400 -11.094000
