15
Fragment
O -11.185800 -24.221800 -9.855200
H -10.781600 -26.621000 -9.826600
N -10.028400 -24.164400 -10.261200
C -9.928000 -26.606300 -10.195100
H -9.670100 -28.591800 -10.244200
O -9.463900 -23.094100 -10.476000
C -9.315400 -25.398700 -10.488700
C -9.267300 -27.779400 -10.450900
C -8.039600 -25.354200 -11.013300
C -7.989300 -27.761700 -11.022100
H -7.631300 -24.536600 -11.186200
O -7.398400 -28.919600 -11.297100
C -7.380000 -26.527600 -11.277700
H -6.763900 -28.789100 -11.800000
H -6.519400 -26.503400 -11.629600
16
Fragment
H -14.022800 -19.879600 -10.536800
H -13.809800 -20.096800 -12.078600
C -13.353000 -19.991400 -11.229500
H -13.103600 -21.985900 -10.906200
H -12.959400 -18.187700 -11.438300
C -12.530400 -21.204100 -10.945300
N -12.486900 -18.807700 -11.276300
H -12.425800 -18.518500 -9.289600
H -11.887300 -21.336300 -11.659600
N -11.826200 -21.047100 -9.672900
C -11.782800 -18.650700 -10.003900
H -11.353700 -21.667100 -9.510900
H -11.209600 -17.868900 -10.043100
C -10.960200 -19.863400 -9.719700
H -10.503300 -19.758000 -8.870600
H -10.290400 -19.975200 -10.412500
31
Fragment
O -11.185800 -24.221800 -9.855200
H -10.781600 -26.621000 -9.826600
N -10.028400 -24.164400 -10.261200
C -9.928000 -26.606300 -10.195100
H -9.670100 -28.591800 -10.244200
O -9.463900 -23.094100 -10.476000
C -9.315400 -25.398700 -10.488700
C -9.267300 -27.779400 -10.450900
C -8.039600 -25.354200 -11.013300
C -7.989300 -27.761700 -11.022100
H -7.631300 -24.536600 -11.186200
O -7.398400 -28.919600 -11.297100
C -7.380000 -26.527600 -11.277700
H -6.763900 -28.789100 -11.800000
H -6.519400 -26.503400 -11.629600
H -14.022800 -19.879600 -10.536800
H -13.809800 -20.096800 -12.078600
C -13.353000 -19.991400 -11.229500
H -13.103600 -21.985900 -10.906200
H -12.959400 -18.187700 -11.438300
C -12.530400 -21.204100 -10.945300
N -12.486900 -18.807700 -11.276300
H -12.425800 -18.518500 -9.289600
H -11.887300 -21.336300 -11.659600
N -11.826200 -21.047100 -9.672900
C -11.782800 -18.650700 -10.003900
H -11.353700 -21.667100 -9.510900
H -11.209600 -17.868900 -10.043100
C -10.960200 -19.863400 -9.719700
H -10.503300 -19.758000 -8.870600
H -10.290400 -19.975200 -10.412500
