15
Fragment
O -11.185800 -24.221800 -9.855200
H -10.781600 -26.621000 -9.826600
N -10.028400 -24.164400 -10.261200
C -9.928000 -26.606300 -10.195100
H -9.670100 -28.591800 -10.244200
O -9.463900 -23.094100 -10.476000
C -9.315400 -25.398700 -10.488700
C -9.267300 -27.779400 -10.450900
C -8.039600 -25.354200 -11.013300
C -7.989300 -27.761700 -11.022100
H -7.631300 -24.536600 -11.186200
O -7.398400 -28.919600 -11.297100
C -7.380000 -26.527600 -11.277700
H -6.763900 -28.789100 -11.800000
H -6.519400 -26.503400 -11.629600
15
Fragment
O -17.373700 -24.221800 -9.855200
H -16.969500 -26.621000 -9.826600
N -16.216300 -24.164400 -10.261200
C -16.115900 -26.606300 -10.195100
H -15.858000 -28.591800 -10.244200
O -15.651800 -23.094100 -10.476000
C -15.503300 -25.398700 -10.488700
C -15.455200 -27.779400 -10.450900
C -14.227500 -25.354200 -11.013300
C -14.177200 -27.761700 -11.022100
H -13.819200 -24.536600 -11.186200
O -13.586300 -28.919600 -11.297100
C -13.567900 -26.527600 -11.277700
H -12.951800 -28.789100 -11.800000
H -12.707300 -26.503400 -11.629600
30
Fragment
O -11.185800 -24.221800 -9.855200
H -10.781600 -26.621000 -9.826600
N -10.028400 -24.164400 -10.261200
C -9.928000 -26.606300 -10.195100
H -9.670100 -28.591800 -10.244200
O -9.463900 -23.094100 -10.476000
C -9.315400 -25.398700 -10.488700
C -9.267300 -27.779400 -10.450900
C -8.039600 -25.354200 -11.013300
C -7.989300 -27.761700 -11.022100
H -7.631300 -24.536600 -11.186200
O -7.398400 -28.919600 -11.297100
C -7.380000 -26.527600 -11.277700
H -6.763900 -28.789100 -11.800000
H -6.519400 -26.503400 -11.629600
O -17.373700 -24.221800 -9.855200
H -16.969500 -26.621000 -9.826600
N -16.216300 -24.164400 -10.261200
C -16.115900 -26.606300 -10.195100
H -15.858000 -28.591800 -10.244200
O -15.651800 -23.094100 -10.476000
C -15.503300 -25.398700 -10.488700
C -15.455200 -27.779400 -10.450900
C -14.227500 -25.354200 -11.013300
C -14.177200 -27.761700 -11.022100
H -13.819200 -24.536600 -11.186200
O -13.586300 -28.919600 -11.297100
C -13.567900 -26.527600 -11.277700
H -12.951800 -28.789100 -11.800000
H -12.707300 -26.503400 -11.629600
