15
Fragment
O -11.185800 -24.221800 -9.855200
H -10.781600 -26.621000 -9.826600
N -10.028400 -24.164400 -10.261200
C -9.928000 -26.606300 -10.195100
H -9.670100 -28.591800 -10.244200
O -9.463900 -23.094100 -10.476000
C -9.315400 -25.398700 -10.488700
C -9.267300 -27.779400 -10.450900
C -8.039600 -25.354200 -11.013300
C -7.989300 -27.761700 -11.022100
H -7.631300 -24.536600 -11.186200
O -7.398400 -28.919600 -11.297100
C -7.380000 -26.527600 -11.277700
H -6.763900 -28.789100 -11.800000
H -6.519400 -26.503400 -11.629600
16
Fragment
H -7.834900 -19.879600 -10.536800
H -7.621900 -20.096800 -12.078600
C -7.165100 -19.991400 -11.229500
H -6.915700 -21.985900 -10.906200
H -6.771500 -18.187700 -11.438300
C -6.342500 -21.204100 -10.945300
N -6.299000 -18.807700 -11.276300
H -6.237900 -18.518500 -9.289600
H -5.699400 -21.336300 -11.659600
N -5.638300 -21.047100 -9.672900
C -5.594900 -18.650700 -10.003900
H -5.165800 -21.667100 -9.510900
H -5.021700 -17.868900 -10.043100
C -4.772300 -19.863400 -9.719700
H -4.315400 -19.758000 -8.870600
H -4.102500 -19.975200 -10.412500
31
Fragment
O -11.185800 -24.221800 -9.855200
H -10.781600 -26.621000 -9.826600
N -10.028400 -24.164400 -10.261200
C -9.928000 -26.606300 -10.195100
H -9.670100 -28.591800 -10.244200
O -9.463900 -23.094100 -10.476000
C -9.315400 -25.398700 -10.488700
C -9.267300 -27.779400 -10.450900
C -8.039600 -25.354200 -11.013300
C -7.989300 -27.761700 -11.022100
H -7.631300 -24.536600 -11.186200
O -7.398400 -28.919600 -11.297100
C -7.380000 -26.527600 -11.277700
H -6.763900 -28.789100 -11.800000
H -6.519400 -26.503400 -11.629600
H -7.834900 -19.879600 -10.536800
H -7.621900 -20.096800 -12.078600
C -7.165100 -19.991400 -11.229500
H -6.915700 -21.985900 -10.906200
H -6.771500 -18.187700 -11.438300
C -6.342500 -21.204100 -10.945300
N -6.299000 -18.807700 -11.276300
H -6.237900 -18.518500 -9.289600
H -5.699400 -21.336300 -11.659600
N -5.638300 -21.047100 -9.672900
C -5.594900 -18.650700 -10.003900
H -5.165800 -21.667100 -9.510900
H -5.021700 -17.868900 -10.043100
C -4.772300 -19.863400 -9.719700
H -4.315400 -19.758000 -8.870600
H -4.102500 -19.975200 -10.412500
