15
Fragment
O -11.185800 -24.221800 -9.855200
H -10.781600 -26.621000 -9.826600
N -10.028400 -24.164400 -10.261200
C -9.928000 -26.606300 -10.195100
H -9.670100 -28.591800 -10.244200
O -9.463900 -23.094100 -10.476000
C -9.315400 -25.398700 -10.488700
C -9.267300 -27.779400 -10.450900
C -8.039600 -25.354200 -11.013300
C -7.989300 -27.761700 -11.022100
H -7.631300 -24.536600 -11.186200
O -7.398400 -28.919600 -11.297100
C -7.380000 -26.527600 -11.277700
H -6.763900 -28.789100 -11.800000
H -6.519400 -26.503400 -11.629600
16
Fragment
H -13.949700 -29.938900 -14.028300
H -13.736700 -29.721700 -15.570200
C -13.279900 -29.827100 -14.721000
H -13.030500 -27.832600 -14.397700
H -12.886300 -31.630800 -14.929800
C -12.457300 -28.614400 -14.436800
N -12.413900 -31.010800 -14.767800
H -12.352700 -31.300000 -12.781100
H -11.814300 -28.482200 -15.151200
N -11.753100 -28.771400 -13.164500
C -11.709700 -31.167800 -13.495500
H -11.280700 -28.151400 -13.002500
H -11.136500 -31.949600 -13.534600
C -10.887100 -29.955100 -13.211300
H -10.430200 -30.060500 -12.362100
H -10.217300 -29.843300 -13.904000
31
Fragment
O -11.185800 -24.221800 -9.855200
H -10.781600 -26.621000 -9.826600
N -10.028400 -24.164400 -10.261200
C -9.928000 -26.606300 -10.195100
H -9.670100 -28.591800 -10.244200
O -9.463900 -23.094100 -10.476000
C -9.315400 -25.398700 -10.488700
C -9.267300 -27.779400 -10.450900
C -8.039600 -25.354200 -11.013300
C -7.989300 -27.761700 -11.022100
H -7.631300 -24.536600 -11.186200
O -7.398400 -28.919600 -11.297100
C -7.380000 -26.527600 -11.277700
H -6.763900 -28.789100 -11.800000
H -6.519400 -26.503400 -11.629600
H -13.949700 -29.938900 -14.028300
H -13.736700 -29.721700 -15.570200
C -13.279900 -29.827100 -14.721000
H -13.030500 -27.832600 -14.397700
H -12.886300 -31.630800 -14.929800
C -12.457300 -28.614400 -14.436800
N -12.413900 -31.010800 -14.767800
H -12.352700 -31.300000 -12.781100
H -11.814300 -28.482200 -15.151200
N -11.753100 -28.771400 -13.164500
C -11.709700 -31.167800 -13.495500
H -11.280700 -28.151400 -13.002500
H -11.136500 -31.949600 -13.534600
C -10.887100 -29.955100 -13.211300
H -10.430200 -30.060500 -12.362100
H -10.217300 -29.843300 -13.904000
