26
Fragment
H -16.488800 -14.937900 -22.148100
C -15.529200 -14.813700 -22.206900
H -15.361500 -14.020000 -22.738000
H -15.036100 -15.367000 -20.423300
O -15.010600 -16.065900 -24.149800
N -14.971900 -14.621000 -20.842500
C -14.900100 -16.028600 -22.893900
H -14.876000 -15.318700 -24.458900
O -14.376400 -16.886400 -22.188600
C -13.548700 -14.159200 -20.907400
H -13.522100 -13.271100 -21.297400
H -13.049500 -14.753900 -21.489500
C -12.887600 -14.121000 -19.574600
H -12.606100 -12.168000 -19.325700
N -12.541800 -15.190200 -18.894500
N -12.495600 -12.960500 -18.993900
C -11.865100 -14.698700 -17.785100
C -11.824400 -13.299900 -17.840000
H -11.310500 -16.296400 -16.654200
C -11.285100 -15.369300 -16.712000
C -11.210800 -12.533800 -16.856100
H -11.191500 -11.605500 -16.899200
C -10.670700 -14.611200 -15.739800
C -10.632200 -13.222800 -15.813300
H -10.271100 -15.039200 -15.016600
H -10.204800 -12.746600 -15.138100
26
Fragment
H -8.235800 -13.819800 -17.248100
C -7.276200 -13.944100 -17.306900
H -7.108500 -14.737800 -17.838000
H -6.783200 -13.390800 -15.523300
O -6.757700 -12.691800 -19.249800
N -6.718900 -14.136700 -15.942500
C -6.647100 -12.729100 -17.993800
H -6.623000 -13.439100 -19.558900
O -6.123400 -11.871300 -17.288600
C -5.295700 -14.598600 -16.007400
H -5.269100 -15.486600 -16.397400
H -4.796600 -14.003900 -16.589500
C -4.634600 -14.636800 -14.674600
H -4.353200 -16.589800 -14.425600
N -4.288900 -13.567600 -13.994400
N -4.242600 -15.797200 -14.093900
C -3.612100 -14.059100 -12.885100
C -3.571400 -15.457900 -12.940000
H -3.057600 -12.461300 -11.754200
C -3.032100 -13.388500 -11.812000
C -2.957800 -16.224000 -11.956000
H -2.938600 -17.152300 -11.999200
C -2.417700 -14.146500 -10.839800
C -2.379300 -15.534900 -10.913300
H -2.018100 -13.718600 -10.116600
H -1.951800 -16.011200 -10.238100
52
Fragment
H -16.488800 -14.937900 -22.148100
C -15.529200 -14.813700 -22.206900
H -15.361500 -14.020000 -22.738000
H -15.036100 -15.367000 -20.423300
O -15.010600 -16.065900 -24.149800
N -14.971900 -14.621000 -20.842500
C -14.900100 -16.028600 -22.893900
H -14.876000 -15.318700 -24.458900
O -14.376400 -16.886400 -22.188600
C -13.548700 -14.159200 -20.907400
H -13.522100 -13.271100 -21.297400
H -13.049500 -14.753900 -21.489500
C -12.887600 -14.121000 -19.574600
H -12.606100 -12.168000 -19.325700
N -12.541800 -15.190200 -18.894500
N -12.495600 -12.960500 -18.993900
C -11.865100 -14.698700 -17.785100
C -11.824400 -13.299900 -17.840000
H -11.310500 -16.296400 -16.654200
C -11.285100 -15.369300 -16.712000
C -11.210800 -12.533800 -16.856100
H -11.191500 -11.605500 -16.899200
C -10.670700 -14.611200 -15.739800
C -10.632200 -13.222800 -15.813300
H -10.271100 -15.039200 -15.016600
H -10.204800 -12.746600 -15.138100
H -8.235800 -13.819800 -17.248100
C -7.276200 -13.944100 -17.306900
H -7.108500 -14.737800 -17.838000
H -6.783200 -13.390800 -15.523300
O -6.757700 -12.691800 -19.249800
N -6.718900 -14.136700 -15.942500
C -6.647100 -12.729100 -17.993800
H -6.623000 -13.439100 -19.558900
O -6.123400 -11.871300 -17.288600
C -5.295700 -14.598600 -16.007400
H -5.269100 -15.486600 -16.397400
H -4.796600 -14.003900 -16.589500
C -4.634600 -14.636800 -14.674600
H -4.353200 -16.589800 -14.425600
N -4.288900 -13.567600 -13.994400
N -4.242600 -15.797200 -14.093900
C -3.612100 -14.059100 -12.885100
C -3.571400 -15.457900 -12.940000
H -3.057600 -12.461300 -11.754200
C -3.032100 -13.388500 -11.812000
C -2.957800 -16.224000 -11.956000
H -2.938600 -17.152300 -11.999200
C -2.417700 -14.146500 -10.839800
C -2.379300 -15.534900 -10.913300
H -2.018100 -13.718600 -10.116600
H -1.951800 -16.011200 -10.238100
