26
Fragment
H -16.488800 -14.937900 -22.148100
C -15.529200 -14.813700 -22.206900
H -15.361500 -14.020000 -22.738000
H -15.036100 -15.367000 -20.423300
O -15.010600 -16.065900 -24.149800
N -14.971900 -14.621000 -20.842500
C -14.900100 -16.028600 -22.893900
H -14.876000 -15.318700 -24.458900
O -14.376400 -16.886400 -22.188600
C -13.548700 -14.159200 -20.907400
H -13.522100 -13.271100 -21.297400
H -13.049500 -14.753900 -21.489500
C -12.887600 -14.121000 -19.574600
H -12.606100 -12.168000 -19.325700
N -12.541800 -15.190200 -18.894500
N -12.495600 -12.960500 -18.993900
C -11.865100 -14.698700 -17.785100
C -11.824400 -13.299900 -17.840000
H -11.310500 -16.296400 -16.654200
C -11.285100 -15.369300 -16.712000
C -11.210800 -12.533800 -16.856100
H -11.191500 -11.605500 -16.899200
C -10.670700 -14.611200 -15.739800
C -10.632200 -13.222800 -15.813300
H -10.271100 -15.039200 -15.016600
H -10.204800 -12.746600 -15.138100
3
Fragment
H -14.510900 -11.158000 -15.680100
O -13.920000 -10.956000 -15.124600
H -13.769800 -11.698700 -14.700000
29
Fragment
H -16.488800 -14.937900 -22.148100
C -15.529200 -14.813700 -22.206900
H -15.361500 -14.020000 -22.738000
H -15.036100 -15.367000 -20.423300
O -15.010600 -16.065900 -24.149800
N -14.971900 -14.621000 -20.842500
C -14.900100 -16.028600 -22.893900
H -14.876000 -15.318700 -24.458900
O -14.376400 -16.886400 -22.188600
C -13.548700 -14.159200 -20.907400
H -13.522100 -13.271100 -21.297400
H -13.049500 -14.753900 -21.489500
C -12.887600 -14.121000 -19.574600
H -12.606100 -12.168000 -19.325700
N -12.541800 -15.190200 -18.894500
N -12.495600 -12.960500 -18.993900
C -11.865100 -14.698700 -17.785100
C -11.824400 -13.299900 -17.840000
H -11.310500 -16.296400 -16.654200
C -11.285100 -15.369300 -16.712000
C -11.210800 -12.533800 -16.856100
H -11.191500 -11.605500 -16.899200
C -10.670700 -14.611200 -15.739800
C -10.632200 -13.222800 -15.813300
H -10.271100 -15.039200 -15.016600
H -10.204800 -12.746600 -15.138100
H -14.510900 -11.158000 -15.680100
O -13.920000 -10.956000 -15.124600
H -13.769800 -11.698700 -14.700000
