26
Fragment
H -16.488800 -14.937900 -22.148100
C -15.529200 -14.813700 -22.206900
H -15.361500 -14.020000 -22.738000
H -15.036100 -15.367000 -20.423300
O -15.010600 -16.065900 -24.149800
N -14.971900 -14.621000 -20.842500
C -14.900100 -16.028600 -22.893900
H -14.876000 -15.318700 -24.458900
O -14.376400 -16.886400 -22.188600
C -13.548700 -14.159200 -20.907400
H -13.522100 -13.271100 -21.297400
H -13.049500 -14.753900 -21.489500
C -12.887600 -14.121000 -19.574600
H -12.606100 -12.168000 -19.325700
N -12.541800 -15.190200 -18.894500
N -12.495600 -12.960500 -18.993900
C -11.865100 -14.698700 -17.785100
C -11.824400 -13.299900 -17.840000
H -11.310500 -16.296400 -16.654200
C -11.285100 -15.369300 -16.712000
C -11.210800 -12.533800 -16.856100
H -11.191500 -11.605500 -16.899200
C -10.670700 -14.611200 -15.739800
C -10.632200 -13.222800 -15.813300
H -10.271100 -15.039200 -15.016600
H -10.204800 -12.746600 -15.138100
26
Fragment
H -9.359200 -14.937900 -12.348000
C -8.399700 -14.813700 -12.406800
H -8.231900 -14.020000 -12.938000
H -7.906600 -15.367000 -10.623200
O -7.881100 -16.065900 -14.349800
N -7.842300 -14.621000 -11.042500
C -7.770500 -16.028600 -13.093800
H -7.746400 -15.318700 -14.658900
O -7.246800 -16.886400 -12.388600
C -6.419100 -14.159200 -11.107400
H -6.392500 -13.271100 -11.497400
H -5.920000 -14.753900 -11.689500
C -5.758000 -14.121000 -9.774600
H -5.476600 -12.168000 -9.525600
N -5.412300 -15.190200 -9.094400
N -5.366000 -12.960500 -9.193900
C -4.735600 -14.698700 -7.985100
C -4.694900 -13.299900 -8.039900
H -4.181000 -16.296400 -6.854100
C -4.155500 -15.369300 -6.912000
C -4.081200 -12.533800 -7.056000
H -4.062000 -11.605500 -7.099100
C -3.541100 -14.611200 -5.939800
C -3.502700 -13.222800 -6.013300
H -3.141500 -15.039200 -5.216600
H -3.075200 -12.746600 -5.338100
52
Fragment
H -16.488800 -14.937900 -22.148100
C -15.529200 -14.813700 -22.206900
H -15.361500 -14.020000 -22.738000
H -15.036100 -15.367000 -20.423300
O -15.010600 -16.065900 -24.149800
N -14.971900 -14.621000 -20.842500
C -14.900100 -16.028600 -22.893900
H -14.876000 -15.318700 -24.458900
O -14.376400 -16.886400 -22.188600
C -13.548700 -14.159200 -20.907400
H -13.522100 -13.271100 -21.297400
H -13.049500 -14.753900 -21.489500
C -12.887600 -14.121000 -19.574600
H -12.606100 -12.168000 -19.325700
N -12.541800 -15.190200 -18.894500
N -12.495600 -12.960500 -18.993900
C -11.865100 -14.698700 -17.785100
C -11.824400 -13.299900 -17.840000
H -11.310500 -16.296400 -16.654200
C -11.285100 -15.369300 -16.712000
C -11.210800 -12.533800 -16.856100
H -11.191500 -11.605500 -16.899200
C -10.670700 -14.611200 -15.739800
C -10.632200 -13.222800 -15.813300
H -10.271100 -15.039200 -15.016600
H -10.204800 -12.746600 -15.138100
H -9.359200 -14.937900 -12.348000
C -8.399700 -14.813700 -12.406800
H -8.231900 -14.020000 -12.938000
H -7.906600 -15.367000 -10.623200
O -7.881100 -16.065900 -14.349800
N -7.842300 -14.621000 -11.042500
C -7.770500 -16.028600 -13.093800
H -7.746400 -15.318700 -14.658900
O -7.246800 -16.886400 -12.388600
C -6.419100 -14.159200 -11.107400
H -6.392500 -13.271100 -11.497400
H -5.920000 -14.753900 -11.689500
C -5.758000 -14.121000 -9.774600
H -5.476600 -12.168000 -9.525600
N -5.412300 -15.190200 -9.094400
N -5.366000 -12.960500 -9.193900
C -4.735600 -14.698700 -7.985100
C -4.694900 -13.299900 -8.039900
H -4.181000 -16.296400 -6.854100
C -4.155500 -15.369300 -6.912000
C -4.081200 -12.533800 -7.056000
H -4.062000 -11.605500 -7.099100
C -3.541100 -14.611200 -5.939800
C -3.502700 -13.222800 -6.013300
H -3.141500 -15.039200 -5.216600
H -3.075200 -12.746600 -5.338100
