26
Fragment
H -16.488800 -14.937900 -22.148100
C -15.529200 -14.813700 -22.206900
H -15.361500 -14.020000 -22.738000
H -15.036100 -15.367000 -20.423300
O -15.010600 -16.065900 -24.149800
N -14.971900 -14.621000 -20.842500
C -14.900100 -16.028600 -22.893900
H -14.876000 -15.318700 -24.458900
O -14.376400 -16.886400 -22.188600
C -13.548700 -14.159200 -20.907400
H -13.522100 -13.271100 -21.297400
H -13.049500 -14.753900 -21.489500
C -12.887600 -14.121000 -19.574600
H -12.606100 -12.168000 -19.325700
N -12.541800 -15.190200 -18.894500
N -12.495600 -12.960500 -18.993900
C -11.865100 -14.698700 -17.785100
C -11.824400 -13.299900 -17.840000
H -11.310500 -16.296400 -16.654200
C -11.285100 -15.369300 -16.712000
C -11.210800 -12.533800 -16.856100
H -11.191500 -11.605500 -16.899200
C -10.670700 -14.611200 -15.739800
C -10.632200 -13.222800 -15.813300
H -10.271100 -15.039200 -15.016600
H -10.204800 -12.746600 -15.138100
26
Fragment
H -11.183900 -10.259600 -14.262000
H -11.117600 -7.967000 -14.383500
C -10.756400 -9.783400 -13.586800
C -10.718000 -8.395000 -13.660300
H -10.197100 -11.400700 -12.500900
C -10.177900 -10.472400 -12.544000
C -10.103600 -7.636900 -12.688100
H -10.078100 -6.709800 -12.745900
C -9.564300 -9.706300 -11.560100
C -9.523500 -8.307500 -11.615000
N -8.893100 -10.045700 -10.406200
N -8.846800 -7.816000 -10.505600
H -8.782500 -10.838200 -10.074400
C -8.501100 -8.885200 -9.825500
H -8.339100 -8.252300 -7.910600
H -7.866600 -9.735100 -8.102700
C -7.840000 -8.847000 -8.492700
O -7.012300 -6.119800 -7.211500
H -6.512700 -7.687500 -4.941200
C -6.488600 -6.977600 -6.506200
N -6.416800 -8.385200 -8.557600
O -6.378000 -6.940300 -5.250300
H -6.352500 -7.639200 -8.976800
H -6.027200 -8.986200 -6.662100
C -5.859400 -8.192500 -7.193200
H -4.899900 -8.068300 -7.252000
52
Fragment
H -16.488800 -14.937900 -22.148100
C -15.529200 -14.813700 -22.206900
H -15.361500 -14.020000 -22.738000
H -15.036100 -15.367000 -20.423300
O -15.010600 -16.065900 -24.149800
N -14.971900 -14.621000 -20.842500
C -14.900100 -16.028600 -22.893900
H -14.876000 -15.318700 -24.458900
O -14.376400 -16.886400 -22.188600
C -13.548700 -14.159200 -20.907400
H -13.522100 -13.271100 -21.297400
H -13.049500 -14.753900 -21.489500
C -12.887600 -14.121000 -19.574600
H -12.606100 -12.168000 -19.325700
N -12.541800 -15.190200 -18.894500
N -12.495600 -12.960500 -18.993900
C -11.865100 -14.698700 -17.785100
C -11.824400 -13.299900 -17.840000
H -11.310500 -16.296400 -16.654200
C -11.285100 -15.369300 -16.712000
C -11.210800 -12.533800 -16.856100
H -11.191500 -11.605500 -16.899200
C -10.670700 -14.611200 -15.739800
C -10.632200 -13.222800 -15.813300
H -10.271100 -15.039200 -15.016600
H -10.204800 -12.746600 -15.138100
H -11.183900 -10.259600 -14.262000
H -11.117600 -7.967000 -14.383500
C -10.756400 -9.783400 -13.586800
C -10.718000 -8.395000 -13.660300
H -10.197100 -11.400700 -12.500900
C -10.177900 -10.472400 -12.544000
C -10.103600 -7.636900 -12.688100
H -10.078100 -6.709800 -12.745900
C -9.564300 -9.706300 -11.560100
C -9.523500 -8.307500 -11.615000
N -8.893100 -10.045700 -10.406200
N -8.846800 -7.816000 -10.505600
H -8.782500 -10.838200 -10.074400
C -8.501100 -8.885200 -9.825500
H -8.339100 -8.252300 -7.910600
H -7.866600 -9.735100 -8.102700
C -7.840000 -8.847000 -8.492700
O -7.012300 -6.119800 -7.211500
H -6.512700 -7.687500 -4.941200
C -6.488600 -6.977600 -6.506200
N -6.416800 -8.385200 -8.557600
O -6.378000 -6.940300 -5.250300
H -6.352500 -7.639200 -8.976800
H -6.027200 -8.986200 -6.662100
C -5.859400 -8.192500 -7.193200
H -4.899900 -8.068300 -7.252000
