26
Fragment
H -21.460600 -19.142200 -28.536900
H -20.919300 -21.104600 -27.393300
C -20.586900 -19.256800 -28.181400
C -20.271800 -20.415500 -27.489800
H -19.850600 -17.479200 -28.851300
C -19.635200 -18.262900 -28.358500
C -18.999500 -20.565700 -26.935400
O -18.746900 -21.721700 -26.254900
C -18.369600 -18.417600 -27.815400
C -18.036100 -19.554300 -27.063900
H -17.895900 -21.806300 -25.976000
H -17.716000 -17.741400 -27.954900
N -16.788800 -19.814200 -26.445500
H -16.105900 -18.036900 -26.714400
C -15.903300 -18.897600 -26.367600
C -14.596400 -19.122100 -25.768900
N -14.247800 -20.307800 -25.248900
C -13.539800 -18.200000 -25.650600
H -13.532600 -17.296700 -25.943200
N -12.986600 -20.127600 -24.807100
H -12.563900 -20.836000 -24.469600
C -12.520100 -18.876400 -25.023300
C -11.154400 -18.452400 -24.588100
H -11.072300 -18.561300 -23.617000
H -11.014000 -17.511300 -24.824700
H -10.481700 -19.005900 -25.037400
26
Fragment
H -31.546400 -19.142200 -28.536900
H -31.005100 -21.104600 -27.393300
C -30.672700 -19.256800 -28.181400
C -30.357600 -20.415500 -27.489800
H -29.936400 -17.479200 -28.851300
C -29.721000 -18.262900 -28.358500
C -29.085300 -20.565700 -26.935400
O -28.832700 -21.721700 -26.254900
C -28.455400 -18.417600 -27.815400
C -28.121900 -19.554300 -27.063900
H -27.981700 -21.806300 -25.976000
H -27.801800 -17.741400 -27.954900
N -26.874600 -19.814200 -26.445500
H -26.191700 -18.036900 -26.714400
C -25.989100 -18.897600 -26.367600
C -24.682200 -19.122100 -25.768900
N -24.333600 -20.307800 -25.248900
C -23.625600 -18.200000 -25.650600
H -23.618400 -17.296700 -25.943200
N -23.072400 -20.127600 -24.807100
H -22.649700 -20.836000 -24.469600
C -22.605900 -18.876400 -25.023300
C -21.240200 -18.452400 -24.588100
H -21.158100 -18.561300 -23.617000
H -21.099800 -17.511300 -24.824700
H -20.567500 -19.005900 -25.037400
52
Fragment
H -21.460600 -19.142200 -28.536900
H -20.919300 -21.104600 -27.393300
C -20.586900 -19.256800 -28.181400
C -20.271800 -20.415500 -27.489800
H -19.850600 -17.479200 -28.851300
C -19.635200 -18.262900 -28.358500
C -18.999500 -20.565700 -26.935400
O -18.746900 -21.721700 -26.254900
C -18.369600 -18.417600 -27.815400
C -18.036100 -19.554300 -27.063900
H -17.895900 -21.806300 -25.976000
H -17.716000 -17.741400 -27.954900
N -16.788800 -19.814200 -26.445500
H -16.105900 -18.036900 -26.714400
C -15.903300 -18.897600 -26.367600
C -14.596400 -19.122100 -25.768900
N -14.247800 -20.307800 -25.248900
C -13.539800 -18.200000 -25.650600
H -13.532600 -17.296700 -25.943200
N -12.986600 -20.127600 -24.807100
H -12.563900 -20.836000 -24.469600
C -12.520100 -18.876400 -25.023300
C -11.154400 -18.452400 -24.588100
H -11.072300 -18.561300 -23.617000
H -11.014000 -17.511300 -24.824700
H -10.481700 -19.005900 -25.037400
H -31.546400 -19.142200 -28.536900
H -31.005100 -21.104600 -27.393300
C -30.672700 -19.256800 -28.181400
C -30.357600 -20.415500 -27.489800
H -29.936400 -17.479200 -28.851300
C -29.721000 -18.262900 -28.358500
C -29.085300 -20.565700 -26.935400
O -28.832700 -21.721700 -26.254900
C -28.455400 -18.417600 -27.815400
C -28.121900 -19.554300 -27.063900
H -27.981700 -21.806300 -25.976000
H -27.801800 -17.741400 -27.954900
N -26.874600 -19.814200 -26.445500
H -26.191700 -18.036900 -26.714400
C -25.989100 -18.897600 -26.367600
C -24.682200 -19.122100 -25.768900
N -24.333600 -20.307800 -25.248900
C -23.625600 -18.200000 -25.650600
H -23.618400 -17.296700 -25.943200
N -23.072400 -20.127600 -24.807100
H -22.649700 -20.836000 -24.469600
C -22.605900 -18.876400 -25.023300
C -21.240200 -18.452400 -24.588100
H -21.158100 -18.561300 -23.617000
H -21.099800 -17.511300 -24.824700
H -20.567500 -19.005900 -25.037400
