26
Fragment
H -21.460600 -19.142200 -28.536900
H -20.919300 -21.104600 -27.393300
C -20.586900 -19.256800 -28.181400
C -20.271800 -20.415500 -27.489800
H -19.850600 -17.479200 -28.851300
C -19.635200 -18.262900 -28.358500
C -18.999500 -20.565700 -26.935400
O -18.746900 -21.721700 -26.254900
C -18.369600 -18.417600 -27.815400
C -18.036100 -19.554300 -27.063900
H -17.895900 -21.806300 -25.976000
H -17.716000 -17.741400 -27.954900
N -16.788800 -19.814200 -26.445500
H -16.105900 -18.036900 -26.714400
C -15.903300 -18.897600 -26.367600
C -14.596400 -19.122100 -25.768900
N -14.247800 -20.307800 -25.248900
C -13.539800 -18.200000 -25.650600
H -13.532600 -17.296700 -25.943200
N -12.986600 -20.127600 -24.807100
H -12.563900 -20.836000 -24.469600
C -12.520100 -18.876400 -25.023300
C -11.154400 -18.452400 -24.588100
H -11.072300 -18.561300 -23.617000
H -11.014000 -17.511300 -24.824700
H -10.481700 -19.005900 -25.037400
26
Fragment
H -9.200300 -15.835500 -25.987000
H -8.997400 -16.403500 -23.729600
C -8.351400 -15.791800 -25.563800
C -8.232000 -16.131600 -24.221400
H -7.586500 -16.523000 -21.847700
H -7.326900 -15.154400 -27.207200
C -7.240200 -15.388800 -26.290100
C -6.988800 -16.073200 -23.601500
O -6.796700 -16.383600 -22.287800
C -5.998500 -15.330900 -25.667500
C -5.856200 -15.665900 -24.322300
H -5.236800 -15.059300 -26.165300
N -4.618900 -15.692500 -23.629300
H -3.910000 -14.131400 -24.529000
C -3.732900 -14.800400 -23.877100
H -2.469600 -16.593700 -22.107400
C -2.463500 -14.798600 -23.176600
N -2.069900 -15.796000 -22.350600
C -1.476100 -13.820400 -23.121600
H -1.454900 -12.995300 -23.592000
N -0.887000 -15.519900 -21.766700
C -0.520800 -14.312100 -22.223600
H 0.638100 -12.719000 -21.678800
C 0.765200 -13.684600 -21.784800
H 1.043100 -14.073600 -20.929400
H 1.456300 -13.850000 -22.459400
52
Fragment
H -21.460600 -19.142200 -28.536900
H -20.919300 -21.104600 -27.393300
C -20.586900 -19.256800 -28.181400
C -20.271800 -20.415500 -27.489800
H -19.850600 -17.479200 -28.851300
C -19.635200 -18.262900 -28.358500
C -18.999500 -20.565700 -26.935400
O -18.746900 -21.721700 -26.254900
C -18.369600 -18.417600 -27.815400
C -18.036100 -19.554300 -27.063900
H -17.895900 -21.806300 -25.976000
H -17.716000 -17.741400 -27.954900
N -16.788800 -19.814200 -26.445500
H -16.105900 -18.036900 -26.714400
C -15.903300 -18.897600 -26.367600
C -14.596400 -19.122100 -25.768900
N -14.247800 -20.307800 -25.248900
C -13.539800 -18.200000 -25.650600
H -13.532600 -17.296700 -25.943200
N -12.986600 -20.127600 -24.807100
H -12.563900 -20.836000 -24.469600
C -12.520100 -18.876400 -25.023300
C -11.154400 -18.452400 -24.588100
H -11.072300 -18.561300 -23.617000
H -11.014000 -17.511300 -24.824700
H -10.481700 -19.005900 -25.037400
H -9.200300 -15.835500 -25.987000
H -8.997400 -16.403500 -23.729600
C -8.351400 -15.791800 -25.563800
C -8.232000 -16.131600 -24.221400
H -7.586500 -16.523000 -21.847700
H -7.326900 -15.154400 -27.207200
C -7.240200 -15.388800 -26.290100
C -6.988800 -16.073200 -23.601500
O -6.796700 -16.383600 -22.287800
C -5.998500 -15.330900 -25.667500
C -5.856200 -15.665900 -24.322300
H -5.236800 -15.059300 -26.165300
N -4.618900 -15.692500 -23.629300
H -3.910000 -14.131400 -24.529000
C -3.732900 -14.800400 -23.877100
H -2.469600 -16.593700 -22.107400
C -2.463500 -14.798600 -23.176600
N -2.069900 -15.796000 -22.350600
C -1.476100 -13.820400 -23.121600
H -1.454900 -12.995300 -23.592000
N -0.887000 -15.519900 -21.766700
C -0.520800 -14.312100 -22.223600
H 0.638100 -12.719000 -21.678800
C 0.765200 -13.684600 -21.784800
H 1.043100 -14.073600 -20.929400
H 1.456300 -13.850000 -22.459400
