26
Fragment
H -21.460600 -19.142200 -28.536900
H -20.919300 -21.104600 -27.393300
C -20.586900 -19.256800 -28.181400
C -20.271800 -20.415500 -27.489800
H -19.850600 -17.479200 -28.851300
C -19.635200 -18.262900 -28.358500
C -18.999500 -20.565700 -26.935400
O -18.746900 -21.721700 -26.254900
C -18.369600 -18.417600 -27.815400
C -18.036100 -19.554300 -27.063900
H -17.895900 -21.806300 -25.976000
H -17.716000 -17.741400 -27.954900
N -16.788800 -19.814200 -26.445500
H -16.105900 -18.036900 -26.714400
C -15.903300 -18.897600 -26.367600
C -14.596400 -19.122100 -25.768900
N -14.247800 -20.307800 -25.248900
C -13.539800 -18.200000 -25.650600
H -13.532600 -17.296700 -25.943200
N -12.986600 -20.127600 -24.807100
H -12.563900 -20.836000 -24.469600
C -12.520100 -18.876400 -25.023300
C -11.154400 -18.452400 -24.588100
H -11.072300 -18.561300 -23.617000
H -11.014000 -17.511300 -24.824700
H -10.481700 -19.005900 -25.037400
26
Fragment
H -23.892800 -16.293000 -33.808700
H -23.689900 -15.725000 -31.551400
C -23.043900 -16.336700 -33.385600
C -22.924500 -15.996900 -32.043200
H -22.279000 -15.605500 -29.669400
H -22.019400 -16.974100 -35.028900
C -21.932700 -16.739700 -34.111900
C -21.681300 -16.055300 -31.423200
O -21.489200 -15.744900 -30.109500
C -20.691000 -16.797600 -33.489300
C -20.548700 -16.462600 -32.144100
H -19.929300 -17.069200 -33.987100
N -19.311400 -16.436000 -31.451100
H -18.602400 -17.997100 -32.350700
C -18.425400 -17.328100 -31.698900
H -17.162100 -15.534800 -29.929100
C -17.156000 -17.329900 -30.998400
N -16.762400 -16.332500 -30.172400
C -16.168600 -18.308100 -30.943300
H -16.147400 -19.133200 -31.413700
N -15.579500 -16.608600 -29.588400
C -15.213300 -17.816400 -30.045400
H -14.054400 -19.409500 -29.500500
C -13.927300 -18.443900 -29.606600
H -13.649300 -18.054900 -28.751200
H -13.236200 -18.278500 -30.281100
52
Fragment
H -21.460600 -19.142200 -28.536900
H -20.919300 -21.104600 -27.393300
C -20.586900 -19.256800 -28.181400
C -20.271800 -20.415500 -27.489800
H -19.850600 -17.479200 -28.851300
C -19.635200 -18.262900 -28.358500
C -18.999500 -20.565700 -26.935400
O -18.746900 -21.721700 -26.254900
C -18.369600 -18.417600 -27.815400
C -18.036100 -19.554300 -27.063900
H -17.895900 -21.806300 -25.976000
H -17.716000 -17.741400 -27.954900
N -16.788800 -19.814200 -26.445500
H -16.105900 -18.036900 -26.714400
C -15.903300 -18.897600 -26.367600
C -14.596400 -19.122100 -25.768900
N -14.247800 -20.307800 -25.248900
C -13.539800 -18.200000 -25.650600
H -13.532600 -17.296700 -25.943200
N -12.986600 -20.127600 -24.807100
H -12.563900 -20.836000 -24.469600
C -12.520100 -18.876400 -25.023300
C -11.154400 -18.452400 -24.588100
H -11.072300 -18.561300 -23.617000
H -11.014000 -17.511300 -24.824700
H -10.481700 -19.005900 -25.037400
H -23.892800 -16.293000 -33.808700
H -23.689900 -15.725000 -31.551400
C -23.043900 -16.336700 -33.385600
C -22.924500 -15.996900 -32.043200
H -22.279000 -15.605500 -29.669400
H -22.019400 -16.974100 -35.028900
C -21.932700 -16.739700 -34.111900
C -21.681300 -16.055300 -31.423200
O -21.489200 -15.744900 -30.109500
C -20.691000 -16.797600 -33.489300
C -20.548700 -16.462600 -32.144100
H -19.929300 -17.069200 -33.987100
N -19.311400 -16.436000 -31.451100
H -18.602400 -17.997100 -32.350700
C -18.425400 -17.328100 -31.698900
H -17.162100 -15.534800 -29.929100
C -17.156000 -17.329900 -30.998400
N -16.762400 -16.332500 -30.172400
C -16.168600 -18.308100 -30.943300
H -16.147400 -19.133200 -31.413700
N -15.579500 -16.608600 -29.588400
C -15.213300 -17.816400 -30.045400
H -14.054400 -19.409500 -29.500500
C -13.927300 -18.443900 -29.606600
H -13.649300 -18.054900 -28.751200
H -13.236200 -18.278500 -30.281100
