26
Fragment
H -21.460600 -19.142200 -28.536900
H -20.919300 -21.104600 -27.393300
C -20.586900 -19.256800 -28.181400
C -20.271800 -20.415500 -27.489800
H -19.850600 -17.479200 -28.851300
C -19.635200 -18.262900 -28.358500
C -18.999500 -20.565700 -26.935400
O -18.746900 -21.721700 -26.254900
C -18.369600 -18.417600 -27.815400
C -18.036100 -19.554300 -27.063900
H -17.895900 -21.806300 -25.976000
H -17.716000 -17.741400 -27.954900
N -16.788800 -19.814200 -26.445500
H -16.105900 -18.036900 -26.714400
C -15.903300 -18.897600 -26.367600
C -14.596400 -19.122100 -25.768900
N -14.247800 -20.307800 -25.248900
C -13.539800 -18.200000 -25.650600
H -13.532600 -17.296700 -25.943200
N -12.986600 -20.127600 -24.807100
H -12.563900 -20.836000 -24.469600
C -12.520100 -18.876400 -25.023300
C -11.154400 -18.452400 -24.588100
H -11.072300 -18.561300 -23.617000
H -11.014000 -17.511300 -24.824700
H -10.481700 -19.005900 -25.037400
26
Fragment
H -11.374800 -19.142200 -28.536900
H -10.833500 -21.104600 -27.393300
C -10.501100 -19.256800 -28.181400
C -10.186000 -20.415500 -27.489800
H -9.764800 -17.479200 -28.851300
C -9.549400 -18.262900 -28.358500
C -8.913700 -20.565700 -26.935400
O -8.661100 -21.721700 -26.254900
C -8.283800 -18.417600 -27.815400
C -7.950300 -19.554300 -27.063900
H -7.810100 -21.806300 -25.976000
H -7.630200 -17.741400 -27.954900
N -6.703000 -19.814200 -26.445500
H -6.020100 -18.036900 -26.714400
C -5.817500 -18.897600 -26.367600
C -4.510600 -19.122100 -25.768900
N -4.162000 -20.307800 -25.248900
C -3.454000 -18.200000 -25.650600
H -3.446800 -17.296700 -25.943200
N -2.900800 -20.127600 -24.807100
H -2.478100 -20.836000 -24.469600
C -2.434300 -18.876400 -25.023300
C -1.068600 -18.452400 -24.588100
H -0.986500 -18.561300 -23.617000
H -0.928200 -17.511300 -24.824700
H -0.395900 -19.005900 -25.037400
52
Fragment
H -21.460600 -19.142200 -28.536900
H -20.919300 -21.104600 -27.393300
C -20.586900 -19.256800 -28.181400
C -20.271800 -20.415500 -27.489800
H -19.850600 -17.479200 -28.851300
C -19.635200 -18.262900 -28.358500
C -18.999500 -20.565700 -26.935400
O -18.746900 -21.721700 -26.254900
C -18.369600 -18.417600 -27.815400
C -18.036100 -19.554300 -27.063900
H -17.895900 -21.806300 -25.976000
H -17.716000 -17.741400 -27.954900
N -16.788800 -19.814200 -26.445500
H -16.105900 -18.036900 -26.714400
C -15.903300 -18.897600 -26.367600
C -14.596400 -19.122100 -25.768900
N -14.247800 -20.307800 -25.248900
C -13.539800 -18.200000 -25.650600
H -13.532600 -17.296700 -25.943200
N -12.986600 -20.127600 -24.807100
H -12.563900 -20.836000 -24.469600
C -12.520100 -18.876400 -25.023300
C -11.154400 -18.452400 -24.588100
H -11.072300 -18.561300 -23.617000
H -11.014000 -17.511300 -24.824700
H -10.481700 -19.005900 -25.037400
H -11.374800 -19.142200 -28.536900
H -10.833500 -21.104600 -27.393300
C -10.501100 -19.256800 -28.181400
C -10.186000 -20.415500 -27.489800
H -9.764800 -17.479200 -28.851300
C -9.549400 -18.262900 -28.358500
C -8.913700 -20.565700 -26.935400
O -8.661100 -21.721700 -26.254900
C -8.283800 -18.417600 -27.815400
C -7.950300 -19.554300 -27.063900
H -7.810100 -21.806300 -25.976000
H -7.630200 -17.741400 -27.954900
N -6.703000 -19.814200 -26.445500
H -6.020100 -18.036900 -26.714400
C -5.817500 -18.897600 -26.367600
C -4.510600 -19.122100 -25.768900
N -4.162000 -20.307800 -25.248900
C -3.454000 -18.200000 -25.650600
H -3.446800 -17.296700 -25.943200
N -2.900800 -20.127600 -24.807100
H -2.478100 -20.836000 -24.469600
C -2.434300 -18.876400 -25.023300
C -1.068600 -18.452400 -24.588100
H -0.986500 -18.561300 -23.617000
H -0.928200 -17.511300 -24.824700
H -0.395900 -19.005900 -25.037400
