26
Fragment
H -21.460600 -19.142200 -28.536900
H -20.919300 -21.104600 -27.393300
C -20.586900 -19.256800 -28.181400
C -20.271800 -20.415500 -27.489800
H -19.850600 -17.479200 -28.851300
C -19.635200 -18.262900 -28.358500
C -18.999500 -20.565700 -26.935400
O -18.746900 -21.721700 -26.254900
C -18.369600 -18.417600 -27.815400
C -18.036100 -19.554300 -27.063900
H -17.895900 -21.806300 -25.976000
H -17.716000 -17.741400 -27.954900
N -16.788800 -19.814200 -26.445500
H -16.105900 -18.036900 -26.714400
C -15.903300 -18.897600 -26.367600
C -14.596400 -19.122100 -25.768900
N -14.247800 -20.307800 -25.248900
C -13.539800 -18.200000 -25.650600
H -13.532600 -17.296700 -25.943200
N -12.986600 -20.127600 -24.807100
H -12.563900 -20.836000 -24.469600
C -12.520100 -18.876400 -25.023300
C -11.154400 -18.452400 -24.588100
H -11.072300 -18.561300 -23.617000
H -11.014000 -17.511300 -24.824700
H -10.481700 -19.005900 -25.037400
26
Fragment
H -21.765100 -12.580200 -29.714800
H -21.232800 -11.085600 -29.927600
H -21.174500 -12.135600 -31.135200
C -21.092400 -12.026700 -30.164100
C -19.726800 -12.450700 -29.728900
H -19.683000 -14.410300 -30.282700
N -19.260300 -13.701900 -29.945100
H -18.714200 -10.871000 -28.809100
C -18.707100 -11.774300 -29.101600
N -17.999100 -13.882100 -29.503300
C -17.650400 -12.696400 -28.983300
C -16.343500 -12.471900 -28.384600
H -16.141000 -11.611200 -28.037800
N -15.458000 -13.388500 -28.306700
H -14.530900 -11.315700 -26.797300
H -14.350900 -15.380600 -28.776200
C -14.210800 -13.128600 -27.688400
C -13.877200 -11.991900 -26.936800
O -13.499900 -15.296000 -28.497300
C -13.247400 -14.140000 -27.816800
C -12.611700 -11.837200 -26.393700
H -12.396300 -11.053500 -25.900900
C -11.975000 -13.989800 -27.262400
C -11.660000 -12.831100 -26.570800
H -11.327600 -14.678900 -27.358900
H -10.786200 -12.716500 -26.215400
52
Fragment
H -21.460600 -19.142200 -28.536900
H -20.919300 -21.104600 -27.393300
C -20.586900 -19.256800 -28.181400
C -20.271800 -20.415500 -27.489800
H -19.850600 -17.479200 -28.851300
C -19.635200 -18.262900 -28.358500
C -18.999500 -20.565700 -26.935400
O -18.746900 -21.721700 -26.254900
C -18.369600 -18.417600 -27.815400
C -18.036100 -19.554300 -27.063900
H -17.895900 -21.806300 -25.976000
H -17.716000 -17.741400 -27.954900
N -16.788800 -19.814200 -26.445500
H -16.105900 -18.036900 -26.714400
C -15.903300 -18.897600 -26.367600
C -14.596400 -19.122100 -25.768900
N -14.247800 -20.307800 -25.248900
C -13.539800 -18.200000 -25.650600
H -13.532600 -17.296700 -25.943200
N -12.986600 -20.127600 -24.807100
H -12.563900 -20.836000 -24.469600
C -12.520100 -18.876400 -25.023300
C -11.154400 -18.452400 -24.588100
H -11.072300 -18.561300 -23.617000
H -11.014000 -17.511300 -24.824700
H -10.481700 -19.005900 -25.037400
H -21.765100 -12.580200 -29.714800
H -21.232800 -11.085600 -29.927600
H -21.174500 -12.135600 -31.135200
C -21.092400 -12.026700 -30.164100
C -19.726800 -12.450700 -29.728900
H -19.683000 -14.410300 -30.282700
N -19.260300 -13.701900 -29.945100
H -18.714200 -10.871000 -28.809100
C -18.707100 -11.774300 -29.101600
N -17.999100 -13.882100 -29.503300
C -17.650400 -12.696400 -28.983300
C -16.343500 -12.471900 -28.384600
H -16.141000 -11.611200 -28.037800
N -15.458000 -13.388500 -28.306700
H -14.530900 -11.315700 -26.797300
H -14.350900 -15.380600 -28.776200
C -14.210800 -13.128600 -27.688400
C -13.877200 -11.991900 -26.936800
O -13.499900 -15.296000 -28.497300
C -13.247400 -14.140000 -27.816800
C -12.611700 -11.837200 -26.393700
H -12.396300 -11.053500 -25.900900
C -11.975000 -13.989800 -27.262400
C -11.660000 -12.831100 -26.570800
H -11.327600 -14.678900 -27.358900
H -10.786200 -12.716500 -26.215400
