25
Fragment
O -3.853900 -8.562300 -33.145700
O -3.747200 -8.060500 -31.065300
N -3.233400 -8.482500 -32.096400
H -2.685100 -9.378800 -34.481200
C -1.854800 -8.903800 -32.062800
N -1.817400 -9.604600 -34.395600
H -1.626900 -8.380200 -30.128000
H -1.264900 -10.938400 -35.650500
C -1.207000 -9.446500 -33.200900
C -1.190800 -8.755600 -30.858100
N -1.115800 -10.092900 -35.486500
C -0.527000 -9.250300 -36.342000
O -0.486100 -8.045000 -36.128200
H -0.377400 -9.595400 -38.337300
H 0.042200 -10.836000 -37.475700
C 0.093800 -9.879800 -37.551400
C 0.100900 -9.160000 -30.746700
C 0.140400 -9.855800 -33.027600
O 0.194900 -8.399200 -28.580300
H 0.598400 -10.222100 -33.749900
N 0.756500 -9.043500 -29.455200
C 0.782600 -9.726000 -31.831400
H 1.013500 -9.613000 -37.614200
H 1.662800 -10.010400 -31.737300
O 1.834300 -9.598900 -29.295500
25
Fragment
O -8.031600 -13.127400 -42.001400
H -7.860100 -13.538900 -39.559600
H -7.210700 -13.141500 -33.682700
C -6.979900 -13.254500 -39.465500
N -6.953700 -12.572000 -41.841700
H -6.795700 -13.750600 -37.547000
O -6.392200 -11.927700 -42.716600
C -6.337600 -13.384300 -38.269300
C -6.298100 -12.688500 -40.550200
C -6.291000 -13.408300 -33.745400
H -6.239500 -14.364500 -33.821200
H -5.819800 -13.123900 -32.959500
O -5.711200 -11.573500 -35.168700
C -5.670200 -12.778800 -34.954800
N -5.081400 -13.621400 -35.810400
C -5.006500 -12.284100 -40.438800
C -4.990300 -12.975000 -38.095900
H -4.932400 -14.466800 -35.646400
H -4.570400 -11.908700 -41.168800
N -4.379900 -13.133100 -36.901200
C -4.342500 -12.432300 -39.234100
H -3.512100 -12.907300 -36.815700
N -2.963900 -12.011000 -39.200400
O -2.450100 -11.589000 -40.231600
O -2.343300 -12.090800 -38.151200
50
Fragment
O -3.853900 -8.562300 -33.145700
O -3.747200 -8.060500 -31.065300
N -3.233400 -8.482500 -32.096400
H -2.685100 -9.378800 -34.481200
C -1.854800 -8.903800 -32.062800
N -1.817400 -9.604600 -34.395600
H -1.626900 -8.380200 -30.128000
H -1.264900 -10.938400 -35.650500
C -1.207000 -9.446500 -33.200900
C -1.190800 -8.755600 -30.858100
N -1.115800 -10.092900 -35.486500
C -0.527000 -9.250300 -36.342000
O -0.486100 -8.045000 -36.128200
H -0.377400 -9.595400 -38.337300
H 0.042200 -10.836000 -37.475700
C 0.093800 -9.879800 -37.551400
C 0.100900 -9.160000 -30.746700
C 0.140400 -9.855800 -33.027600
O 0.194900 -8.399200 -28.580300
H 0.598400 -10.222100 -33.749900
N 0.756500 -9.043500 -29.455200
C 0.782600 -9.726000 -31.831400
H 1.013500 -9.613000 -37.614200
H 1.662800 -10.010400 -31.737300
O 1.834300 -9.598900 -29.295500
O -8.031600 -13.127400 -42.001400
H -7.860100 -13.538900 -39.559600
H -7.210700 -13.141500 -33.682700
C -6.979900 -13.254500 -39.465500
N -6.953700 -12.572000 -41.841700
H -6.795700 -13.750600 -37.547000
O -6.392200 -11.927700 -42.716600
C -6.337600 -13.384300 -38.269300
C -6.298100 -12.688500 -40.550200
C -6.291000 -13.408300 -33.745400
H -6.239500 -14.364500 -33.821200
H -5.819800 -13.123900 -32.959500
O -5.711200 -11.573500 -35.168700
C -5.670200 -12.778800 -34.954800
N -5.081400 -13.621400 -35.810400
C -5.006500 -12.284100 -40.438800
C -4.990300 -12.975000 -38.095900
H -4.932400 -14.466800 -35.646400
H -4.570400 -11.908700 -41.168800
N -4.379900 -13.133100 -36.901200
C -4.342500 -12.432300 -39.234100
H -3.512100 -12.907300 -36.815700
N -2.963900 -12.011000 -39.200400
O -2.450100 -11.589000 -40.231600
O -2.343300 -12.090800 -38.151200
