25
Fragment
O -3.853900 -8.562300 -33.145700
O -3.747200 -8.060500 -31.065300
N -3.233400 -8.482500 -32.096400
H -2.685100 -9.378800 -34.481200
C -1.854800 -8.903800 -32.062800
N -1.817400 -9.604600 -34.395600
H -1.626900 -8.380200 -30.128000
H -1.264900 -10.938400 -35.650500
C -1.207000 -9.446500 -33.200900
C -1.190800 -8.755600 -30.858100
N -1.115800 -10.092900 -35.486500
C -0.527000 -9.250300 -36.342000
O -0.486100 -8.045000 -36.128200
H -0.377400 -9.595400 -38.337300
H 0.042200 -10.836000 -37.475700
C 0.093800 -9.879800 -37.551400
C 0.100900 -9.160000 -30.746700
C 0.140400 -9.855800 -33.027600
O 0.194900 -8.399200 -28.580300
H 0.598400 -10.222100 -33.749900
N 0.756500 -9.043500 -29.455200
C 0.782600 -9.726000 -31.831400
H 1.013500 -9.613000 -37.614200
H 1.662800 -10.010400 -31.737300
O 1.834300 -9.598900 -29.295500
25
Fragment
O -11.547400 -4.515100 -31.816100
H -11.375900 -4.103600 -29.374300
H -10.726600 -4.501000 -23.497400
C -10.495700 -4.388000 -29.280200
N -10.469500 -5.070500 -31.656400
H -10.311500 -3.891900 -27.361700
O -9.908000 -5.714800 -32.531300
C -9.853400 -4.258200 -28.084000
C -9.814000 -4.954000 -30.364900
C -9.806800 -4.234200 -23.560100
H -9.755300 -3.278000 -23.635900
H -9.335700 -4.518600 -22.774300
O -9.227000 -6.069000 -24.983400
C -9.186000 -4.863700 -24.769500
N -8.597300 -4.021100 -25.625100
C -8.522300 -5.358400 -30.253500
C -8.506100 -4.667500 -27.910700
H -8.448200 -3.175700 -25.461100
H -8.086200 -5.733800 -30.983600
N -7.895700 -4.509400 -26.716000
C -7.858300 -5.210200 -29.048800
H -7.028000 -4.735200 -26.630400
N -6.479700 -5.631500 -29.015200
O -5.965900 -6.053500 -30.046300
O -5.859100 -5.551700 -27.965900
50
Fragment
O -3.853900 -8.562300 -33.145700
O -3.747200 -8.060500 -31.065300
N -3.233400 -8.482500 -32.096400
H -2.685100 -9.378800 -34.481200
C -1.854800 -8.903800 -32.062800
N -1.817400 -9.604600 -34.395600
H -1.626900 -8.380200 -30.128000
H -1.264900 -10.938400 -35.650500
C -1.207000 -9.446500 -33.200900
C -1.190800 -8.755600 -30.858100
N -1.115800 -10.092900 -35.486500
C -0.527000 -9.250300 -36.342000
O -0.486100 -8.045000 -36.128200
H -0.377400 -9.595400 -38.337300
H 0.042200 -10.836000 -37.475700
C 0.093800 -9.879800 -37.551400
C 0.100900 -9.160000 -30.746700
C 0.140400 -9.855800 -33.027600
O 0.194900 -8.399200 -28.580300
H 0.598400 -10.222100 -33.749900
N 0.756500 -9.043500 -29.455200
C 0.782600 -9.726000 -31.831400
H 1.013500 -9.613000 -37.614200
H 1.662800 -10.010400 -31.737300
O 1.834300 -9.598900 -29.295500
O -11.547400 -4.515100 -31.816100
H -11.375900 -4.103600 -29.374300
H -10.726600 -4.501000 -23.497400
C -10.495700 -4.388000 -29.280200
N -10.469500 -5.070500 -31.656400
H -10.311500 -3.891900 -27.361700
O -9.908000 -5.714800 -32.531300
C -9.853400 -4.258200 -28.084000
C -9.814000 -4.954000 -30.364900
C -9.806800 -4.234200 -23.560100
H -9.755300 -3.278000 -23.635900
H -9.335700 -4.518600 -22.774300
O -9.227000 -6.069000 -24.983400
C -9.186000 -4.863700 -24.769500
N -8.597300 -4.021100 -25.625100
C -8.522300 -5.358400 -30.253500
C -8.506100 -4.667500 -27.910700
H -8.448200 -3.175700 -25.461100
H -8.086200 -5.733800 -30.983600
N -7.895700 -4.509400 -26.716000
C -7.858300 -5.210200 -29.048800
H -7.028000 -4.735200 -26.630400
N -6.479700 -5.631500 -29.015200
O -5.965900 -6.053500 -30.046300
O -5.859100 -5.551700 -27.965900
