27
Fragment
H -7.412200 -7.177600 -32.711600
O -7.399600 -14.892400 -24.943100
O -7.371300 -8.030900 -30.461500
N -7.317600 -8.052200 -32.715500
N -7.298700 -13.679800 -24.756800
C -7.297400 -8.675600 -31.501800
O -7.268100 -13.166600 -23.642800
C -7.203300 -8.660500 -33.946600
C -7.196100 -12.792300 -25.922200
O -7.192500 -8.022000 -34.985700
C -7.187200 -10.130400 -31.521200
H -7.160500 -9.510400 -29.176200
C -7.158200 -11.446300 -25.771500
C -7.156200 -13.387000 -27.166200
H -7.154200 -11.060300 -24.902400
H -7.154100 -14.333300 -27.244600
N -7.142600 -10.384300 -29.276400
N -7.136000 -10.903600 -30.461100
C -7.127100 -10.642200 -26.889200
C -7.120600 -11.230700 -28.145000
C -7.118100 -12.595200 -28.292400
H -7.108700 -9.696500 -26.802700
C -7.098100 -10.844100 -32.805700
N -7.095600 -10.035300 -33.931300
H -7.090800 -12.987300 -29.157800
H -7.019100 -10.436900 -34.709500
O -7.017400 -12.056700 -32.941200
27
Fragment
O -7.590200 -15.478200 -13.092600
H -7.588500 -13.858400 -11.324300
H -7.516800 -16.408800 -16.876000
N -7.512000 -13.456800 -12.102500
C -7.509500 -14.265600 -13.228100
H -7.498900 -13.118000 -19.231100
C -7.489500 -16.016700 -17.741400
C -7.487000 -14.652200 -17.888700
C -7.480600 -14.063700 -19.144500
N -7.471600 -14.325100 -15.572700
N -7.465000 -13.805800 -16.757400
H -7.453500 -17.754800 -18.789100
H -7.453400 -14.481800 -21.131300
C -7.451400 -16.808500 -18.867600
C -7.449400 -14.867800 -20.262200
H -7.447100 -12.931900 -16.857600
C -7.420400 -13.551900 -14.512600
O -7.415100 -11.443500 -11.048100
C -7.411500 -16.213800 -20.111600
C -7.404300 -12.082000 -12.087200
O -7.339500 -16.588100 -22.391000
C -7.310200 -12.097100 -14.531900
N -7.308900 -17.101300 -21.277000
N -7.290100 -11.473700 -13.318300
O -7.236300 -11.452400 -15.572300
O -7.208000 -18.313900 -21.090600
H -7.195400 -10.599100 -13.322200
54
Fragment
H -7.412200 -7.177600 -32.711600
O -7.399600 -14.892400 -24.943100
O -7.371300 -8.030900 -30.461500
N -7.317600 -8.052200 -32.715500
N -7.298700 -13.679800 -24.756800
C -7.297400 -8.675600 -31.501800
O -7.268100 -13.166600 -23.642800
C -7.203300 -8.660500 -33.946600
C -7.196100 -12.792300 -25.922200
O -7.192500 -8.022000 -34.985700
C -7.187200 -10.130400 -31.521200
H -7.160500 -9.510400 -29.176200
C -7.158200 -11.446300 -25.771500
C -7.156200 -13.387000 -27.166200
H -7.154200 -11.060300 -24.902400
H -7.154100 -14.333300 -27.244600
N -7.142600 -10.384300 -29.276400
N -7.136000 -10.903600 -30.461100
C -7.127100 -10.642200 -26.889200
C -7.120600 -11.230700 -28.145000
C -7.118100 -12.595200 -28.292400
H -7.108700 -9.696500 -26.802700
C -7.098100 -10.844100 -32.805700
N -7.095600 -10.035300 -33.931300
H -7.090800 -12.987300 -29.157800
H -7.019100 -10.436900 -34.709500
O -7.017400 -12.056700 -32.941200
O -7.590200 -15.478200 -13.092600
H -7.588500 -13.858400 -11.324300
H -7.516800 -16.408800 -16.876000
N -7.512000 -13.456800 -12.102500
C -7.509500 -14.265600 -13.228100
H -7.498900 -13.118000 -19.231100
C -7.489500 -16.016700 -17.741400
C -7.487000 -14.652200 -17.888700
C -7.480600 -14.063700 -19.144500
N -7.471600 -14.325100 -15.572700
N -7.465000 -13.805800 -16.757400
H -7.453500 -17.754800 -18.789100
H -7.453400 -14.481800 -21.131300
C -7.451400 -16.808500 -18.867600
C -7.449400 -14.867800 -20.262200
H -7.447100 -12.931900 -16.857600
C -7.420400 -13.551900 -14.512600
O -7.415100 -11.443500 -11.048100
C -7.411500 -16.213800 -20.111600
C -7.404300 -12.082000 -12.087200
O -7.339500 -16.588100 -22.391000
C -7.310200 -12.097100 -14.531900
N -7.308900 -17.101300 -21.277000
N -7.290100 -11.473700 -13.318300
O -7.236300 -11.452400 -15.572300
O -7.208000 -18.313900 -21.090600
H -7.195400 -10.599100 -13.322200
