27
Fragment
H -7.412200 -7.177600 -32.711600
O -7.399600 -14.892400 -24.943100
O -7.371300 -8.030900 -30.461500
N -7.317600 -8.052200 -32.715500
N -7.298700 -13.679800 -24.756800
C -7.297400 -8.675600 -31.501800
O -7.268100 -13.166600 -23.642800
C -7.203300 -8.660500 -33.946600
C -7.196100 -12.792300 -25.922200
O -7.192500 -8.022000 -34.985700
C -7.187200 -10.130400 -31.521200
H -7.160500 -9.510400 -29.176200
C -7.158200 -11.446300 -25.771500
C -7.156200 -13.387000 -27.166200
H -7.154200 -11.060300 -24.902400
H -7.154100 -14.333300 -27.244600
N -7.142600 -10.384300 -29.276400
N -7.136000 -10.903600 -30.461100
C -7.127100 -10.642200 -26.889200
C -7.120600 -11.230700 -28.145000
C -7.118100 -12.595200 -28.292400
H -7.108700 -9.696500 -26.802700
C -7.098100 -10.844100 -32.805700
N -7.095600 -10.035300 -33.931300
H -7.090800 -12.987300 -29.157800
H -7.019100 -10.436900 -34.709500
O -7.017400 -12.056700 -32.941200
27
Fragment
H -10.333700 -9.929900 -41.918300
O -10.321100 -2.215100 -34.149900
O -10.292800 -9.076600 -39.668200
N -10.239100 -9.055300 -41.922200
N -10.220200 -3.427700 -33.963500
C -10.218900 -8.431900 -40.708600
O -10.189600 -3.940900 -32.849500
C -10.124800 -8.447000 -43.153300
C -10.117700 -4.315200 -35.128900
O -10.114000 -9.085500 -44.192400
C -10.108700 -6.977100 -40.727900
H -10.082000 -7.597100 -38.383000
C -10.079700 -5.661200 -34.978300
C -10.077700 -3.720500 -36.372900
H -10.075700 -6.047200 -34.109200
H -10.075600 -2.774200 -36.451400
N -10.064200 -6.723200 -38.483100
N -10.057600 -6.203900 -39.667800
C -10.048600 -6.465300 -36.096000
C -10.042100 -5.876800 -37.351800
C -10.039600 -4.512300 -37.499100
H -10.030200 -7.411000 -36.009500
C -10.019600 -6.263400 -42.012400
N -10.017200 -7.072200 -43.138100
H -10.012300 -4.120200 -38.364500
H -9.940700 -6.670600 -43.916200
O -9.938900 -5.050800 -42.148000
54
Fragment
H -7.412200 -7.177600 -32.711600
O -7.399600 -14.892400 -24.943100
O -7.371300 -8.030900 -30.461500
N -7.317600 -8.052200 -32.715500
N -7.298700 -13.679800 -24.756800
C -7.297400 -8.675600 -31.501800
O -7.268100 -13.166600 -23.642800
C -7.203300 -8.660500 -33.946600
C -7.196100 -12.792300 -25.922200
O -7.192500 -8.022000 -34.985700
C -7.187200 -10.130400 -31.521200
H -7.160500 -9.510400 -29.176200
C -7.158200 -11.446300 -25.771500
C -7.156200 -13.387000 -27.166200
H -7.154200 -11.060300 -24.902400
H -7.154100 -14.333300 -27.244600
N -7.142600 -10.384300 -29.276400
N -7.136000 -10.903600 -30.461100
C -7.127100 -10.642200 -26.889200
C -7.120600 -11.230700 -28.145000
C -7.118100 -12.595200 -28.292400
H -7.108700 -9.696500 -26.802700
C -7.098100 -10.844100 -32.805700
N -7.095600 -10.035300 -33.931300
H -7.090800 -12.987300 -29.157800
H -7.019100 -10.436900 -34.709500
O -7.017400 -12.056700 -32.941200
H -10.333700 -9.929900 -41.918300
O -10.321100 -2.215100 -34.149900
O -10.292800 -9.076600 -39.668200
N -10.239100 -9.055300 -41.922200
N -10.220200 -3.427700 -33.963500
C -10.218900 -8.431900 -40.708600
O -10.189600 -3.940900 -32.849500
C -10.124800 -8.447000 -43.153300
C -10.117700 -4.315200 -35.128900
O -10.114000 -9.085500 -44.192400
C -10.108700 -6.977100 -40.727900
H -10.082000 -7.597100 -38.383000
C -10.079700 -5.661200 -34.978300
C -10.077700 -3.720500 -36.372900
H -10.075700 -6.047200 -34.109200
H -10.075600 -2.774200 -36.451400
N -10.064200 -6.723200 -38.483100
N -10.057600 -6.203900 -39.667800
C -10.048600 -6.465300 -36.096000
C -10.042100 -5.876800 -37.351800
C -10.039600 -4.512300 -37.499100
H -10.030200 -7.411000 -36.009500
C -10.019600 -6.263400 -42.012400
N -10.017200 -7.072200 -43.138100
H -10.012300 -4.120200 -38.364500
H -9.940700 -6.670600 -43.916200
O -9.938900 -5.050800 -42.148000
