27
Fragment
H -7.412200 -7.177600 -32.711600
O -7.399600 -14.892400 -24.943100
O -7.371300 -8.030900 -30.461500
N -7.317600 -8.052200 -32.715500
N -7.298700 -13.679800 -24.756800
C -7.297400 -8.675600 -31.501800
O -7.268100 -13.166600 -23.642800
C -7.203300 -8.660500 -33.946600
C -7.196100 -12.792300 -25.922200
O -7.192500 -8.022000 -34.985700
C -7.187200 -10.130400 -31.521200
H -7.160500 -9.510400 -29.176200
C -7.158200 -11.446300 -25.771500
C -7.156200 -13.387000 -27.166200
H -7.154200 -11.060300 -24.902400
H -7.154100 -14.333300 -27.244600
N -7.142600 -10.384300 -29.276400
N -7.136000 -10.903600 -30.461100
C -7.127100 -10.642200 -26.889200
C -7.120600 -11.230700 -28.145000
C -7.118100 -12.595200 -28.292400
H -7.108700 -9.696500 -26.802700
C -7.098100 -10.844100 -32.805700
N -7.095600 -10.035300 -33.931300
H -7.090800 -12.987300 -29.157800
H -7.019100 -10.436900 -34.709500
O -7.017400 -12.056700 -32.941200
27
Fragment
H -10.333700 -16.772900 -41.918300
O -10.321100 -9.058100 -34.149900
O -10.292800 -15.919600 -39.668200
N -10.239100 -15.898300 -41.922200
N -10.220200 -10.270700 -33.963500
C -10.218900 -15.274900 -40.708600
O -10.189600 -10.783900 -32.849500
C -10.124800 -15.290000 -43.153300
C -10.117700 -11.158200 -35.128900
O -10.114000 -15.928500 -44.192400
C -10.108700 -13.820100 -40.727900
H -10.082000 -14.440100 -38.383000
C -10.079700 -12.504200 -34.978300
C -10.077700 -10.563500 -36.372900
H -10.075700 -12.890200 -34.109200
H -10.075600 -9.617200 -36.451400
N -10.064200 -13.566200 -38.483100
N -10.057600 -13.046900 -39.667800
C -10.048600 -13.308300 -36.096000
C -10.042100 -12.719800 -37.351800
C -10.039600 -11.355300 -37.499100
H -10.030200 -14.254000 -36.009500
C -10.019600 -13.106400 -42.012400
N -10.017200 -13.915200 -43.138100
H -10.012300 -10.963200 -38.364500
H -9.940700 -13.513600 -43.916200
O -9.938900 -11.893800 -42.148000
54
Fragment
H -7.412200 -7.177600 -32.711600
O -7.399600 -14.892400 -24.943100
O -7.371300 -8.030900 -30.461500
N -7.317600 -8.052200 -32.715500
N -7.298700 -13.679800 -24.756800
C -7.297400 -8.675600 -31.501800
O -7.268100 -13.166600 -23.642800
C -7.203300 -8.660500 -33.946600
C -7.196100 -12.792300 -25.922200
O -7.192500 -8.022000 -34.985700
C -7.187200 -10.130400 -31.521200
H -7.160500 -9.510400 -29.176200
C -7.158200 -11.446300 -25.771500
C -7.156200 -13.387000 -27.166200
H -7.154200 -11.060300 -24.902400
H -7.154100 -14.333300 -27.244600
N -7.142600 -10.384300 -29.276400
N -7.136000 -10.903600 -30.461100
C -7.127100 -10.642200 -26.889200
C -7.120600 -11.230700 -28.145000
C -7.118100 -12.595200 -28.292400
H -7.108700 -9.696500 -26.802700
C -7.098100 -10.844100 -32.805700
N -7.095600 -10.035300 -33.931300
H -7.090800 -12.987300 -29.157800
H -7.019100 -10.436900 -34.709500
O -7.017400 -12.056700 -32.941200
H -10.333700 -16.772900 -41.918300
O -10.321100 -9.058100 -34.149900
O -10.292800 -15.919600 -39.668200
N -10.239100 -15.898300 -41.922200
N -10.220200 -10.270700 -33.963500
C -10.218900 -15.274900 -40.708600
O -10.189600 -10.783900 -32.849500
C -10.124800 -15.290000 -43.153300
C -10.117700 -11.158200 -35.128900
O -10.114000 -15.928500 -44.192400
C -10.108700 -13.820100 -40.727900
H -10.082000 -14.440100 -38.383000
C -10.079700 -12.504200 -34.978300
C -10.077700 -10.563500 -36.372900
H -10.075700 -12.890200 -34.109200
H -10.075600 -9.617200 -36.451400
N -10.064200 -13.566200 -38.483100
N -10.057600 -13.046900 -39.667800
C -10.048600 -13.308300 -36.096000
C -10.042100 -12.719800 -37.351800
C -10.039600 -11.355300 -37.499100
H -10.030200 -14.254000 -36.009500
C -10.019600 -13.106400 -42.012400
N -10.017200 -13.915200 -43.138100
H -10.012300 -10.963200 -38.364500
H -9.940700 -13.513600 -43.916200
O -9.938900 -11.893800 -42.148000
