27
Fragment
H -7.412200 -7.177600 -32.711600
O -7.399600 -14.892400 -24.943100
O -7.371300 -8.030900 -30.461500
N -7.317600 -8.052200 -32.715500
N -7.298700 -13.679800 -24.756800
C -7.297400 -8.675600 -31.501800
O -7.268100 -13.166600 -23.642800
C -7.203300 -8.660500 -33.946600
C -7.196100 -12.792300 -25.922200
O -7.192500 -8.022000 -34.985700
C -7.187200 -10.130400 -31.521200
H -7.160500 -9.510400 -29.176200
C -7.158200 -11.446300 -25.771500
C -7.156200 -13.387000 -27.166200
H -7.154200 -11.060300 -24.902400
H -7.154100 -14.333300 -27.244600
N -7.142600 -10.384300 -29.276400
N -7.136000 -10.903600 -30.461100
C -7.127100 -10.642200 -26.889200
C -7.120600 -11.230700 -28.145000
C -7.118100 -12.595200 -28.292400
H -7.108700 -9.696500 -26.802700
C -7.098100 -10.844100 -32.805700
N -7.095600 -10.035300 -33.931300
H -7.090800 -12.987300 -29.157800
H -7.019100 -10.436900 -34.709500
O -7.017400 -12.056700 -32.941200
27
Fragment
O -4.312200 -8.635200 -31.506100
H -4.310500 -7.015400 -29.737800
H -4.238900 -9.565800 -35.289500
N -4.234000 -6.613800 -30.516000
C -4.231600 -7.422600 -31.641600
H -4.220900 -6.275000 -37.644600
C -4.211600 -9.173700 -36.154900
C -4.209100 -7.809200 -36.302200
C -4.202600 -7.220700 -37.558000
N -4.193600 -7.482100 -33.986200
N -4.187000 -6.962800 -35.170900
H -4.175600 -10.911800 -37.202600
H -4.175400 -7.638800 -39.544800
C -4.173500 -9.965500 -37.281100
C -4.171500 -8.024800 -38.675700
H -4.169200 -6.088900 -35.271100
C -4.142400 -6.708900 -32.926100
O -4.137100 -4.600500 -29.461600
C -4.133500 -9.370800 -38.525100
C -4.126400 -5.239000 -30.500700
O -4.061600 -9.745100 -40.804500
C -4.032300 -5.254100 -32.945400
N -4.030900 -10.258300 -39.690500
N -4.012100 -4.630700 -31.731800
O -3.958400 -4.609400 -33.985800
O -3.930000 -11.470900 -39.504200
H -3.917500 -3.756100 -31.735700
54
Fragment
H -7.412200 -7.177600 -32.711600
O -7.399600 -14.892400 -24.943100
O -7.371300 -8.030900 -30.461500
N -7.317600 -8.052200 -32.715500
N -7.298700 -13.679800 -24.756800
C -7.297400 -8.675600 -31.501800
O -7.268100 -13.166600 -23.642800
C -7.203300 -8.660500 -33.946600
C -7.196100 -12.792300 -25.922200
O -7.192500 -8.022000 -34.985700
C -7.187200 -10.130400 -31.521200
H -7.160500 -9.510400 -29.176200
C -7.158200 -11.446300 -25.771500
C -7.156200 -13.387000 -27.166200
H -7.154200 -11.060300 -24.902400
H -7.154100 -14.333300 -27.244600
N -7.142600 -10.384300 -29.276400
N -7.136000 -10.903600 -30.461100
C -7.127100 -10.642200 -26.889200
C -7.120600 -11.230700 -28.145000
C -7.118100 -12.595200 -28.292400
H -7.108700 -9.696500 -26.802700
C -7.098100 -10.844100 -32.805700
N -7.095600 -10.035300 -33.931300
H -7.090800 -12.987300 -29.157800
H -7.019100 -10.436900 -34.709500
O -7.017400 -12.056700 -32.941200
O -4.312200 -8.635200 -31.506100
H -4.310500 -7.015400 -29.737800
H -4.238900 -9.565800 -35.289500
N -4.234000 -6.613800 -30.516000
C -4.231600 -7.422600 -31.641600
H -4.220900 -6.275000 -37.644600
C -4.211600 -9.173700 -36.154900
C -4.209100 -7.809200 -36.302200
C -4.202600 -7.220700 -37.558000
N -4.193600 -7.482100 -33.986200
N -4.187000 -6.962800 -35.170900
H -4.175600 -10.911800 -37.202600
H -4.175400 -7.638800 -39.544800
C -4.173500 -9.965500 -37.281100
C -4.171500 -8.024800 -38.675700
H -4.169200 -6.088900 -35.271100
C -4.142400 -6.708900 -32.926100
O -4.137100 -4.600500 -29.461600
C -4.133500 -9.370800 -38.525100
C -4.126400 -5.239000 -30.500700
O -4.061600 -9.745100 -40.804500
C -4.032300 -5.254100 -32.945400
N -4.030900 -10.258300 -39.690500
N -4.012100 -4.630700 -31.731800
O -3.958400 -4.609400 -33.985800
O -3.930000 -11.470900 -39.504200
H -3.917500 -3.756100 -31.735700
