12
Fragment
O -16.438900 -12.661700 -16.538300
C -15.361200 -12.994700 -16.056900
H -15.306500 -11.823000 -14.586200
H -14.901600 -14.333300 -17.399800
N -14.859400 -12.429000 -14.918400
N -14.595500 -13.970400 -16.621200
C -13.654100 -12.743400 -14.344100
C -13.398000 -14.390400 -16.123200
O -13.218500 -12.168800 -13.373400
N -12.978900 -13.752300 -14.984300
O -12.754400 -15.285700 -16.654000
H -12.274000 -14.018500 -14.654600
12
Fragment
O -14.135300 -15.352900 -11.650600
H -13.920600 -14.558100 -9.327500
H -13.163500 -15.767400 -8.562100
C -13.131100 -15.084100 -9.090700
C -12.947500 -15.600100 -11.423100
H -12.530600 -14.628500 -8.511100
N -12.371500 -15.499200 -10.247600
H -12.333500 -15.933200 -12.103300
H -10.972800 -16.583200 -9.521400
C -10.972700 -15.858100 -10.060200
H -10.628100 -16.099500 -11.021600
H -10.554500 -15.138100 -9.633700
24
Fragment
O -16.438900 -12.661700 -16.538300
C -15.361200 -12.994700 -16.056900
H -15.306500 -11.823000 -14.586200
H -14.901600 -14.333300 -17.399800
N -14.859400 -12.429000 -14.918400
N -14.595500 -13.970400 -16.621200
C -13.654100 -12.743400 -14.344100
C -13.398000 -14.390400 -16.123200
O -13.218500 -12.168800 -13.373400
N -12.978900 -13.752300 -14.984300
O -12.754400 -15.285700 -16.654000
H -12.274000 -14.018500 -14.654600
O -14.135300 -15.352900 -11.650600
H -13.920600 -14.558100 -9.327500
H -13.163500 -15.767400 -8.562100
C -13.131100 -15.084100 -9.090700
C -12.947500 -15.600100 -11.423100
H -12.530600 -14.628500 -8.511100
N -12.371500 -15.499200 -10.247600
H -12.333500 -15.933200 -12.103300
H -10.972800 -16.583200 -9.521400
C -10.972700 -15.858100 -10.060200
H -10.628100 -16.099500 -11.021600
H -10.554500 -15.138100 -9.633700
