24
Fragment
H -19.321700 -24.239500 -21.594400
H -18.576800 -25.296800 -22.537600
H -18.568300 -23.742000 -22.916100
C -18.548000 -24.385800 -22.177400
O -18.349700 -25.087000 -19.553200
C -17.344900 -24.578900 -20.045300
N -17.308500 -24.204000 -21.403200
H -17.267500 -24.335700 -16.810900
H -16.876700 -25.837100 -17.206400
C -16.523800 -24.952200 -16.975700
O -16.283900 -23.445100 -23.292200
C -16.212000 -23.680200 -22.103400
C -16.112800 -24.294900 -19.392700
H -15.971200 -25.020800 -16.168800
N -15.711000 -24.450500 -18.079900
N -15.060400 -23.460200 -21.376400
C -15.028700 -23.756200 -20.039700
C -14.447200 -24.009200 -18.031500
H -14.037700 -22.813100 -22.992200
N -13.974600 -23.584100 -19.213000
H -13.931300 -23.997600 -17.233700
C -13.876700 -22.887400 -22.028500
H -13.696900 -21.997400 -21.658000
H -13.102500 -23.467900 -21.870500
24
Fragment
H -14.555500 -27.491800 -12.224000
H -13.961100 -28.962200 -12.436600
C -13.781200 -28.072200 -12.066100
H -13.726600 -26.962100 -16.860900
N -13.683400 -27.375600 -14.881600
H -13.620300 -28.146600 -11.102300
C -13.210700 -26.950500 -16.063100
C -12.629200 -27.203500 -14.054900
N -12.597500 -27.499500 -12.718200
N -11.946900 -26.509200 -16.014700
H -11.686800 -25.938900 -17.925800
C -11.545100 -26.664800 -14.701900
C -11.445900 -27.279500 -11.991200
O -11.374000 -27.514600 -10.802400
C -11.134100 -26.007400 -17.118900
H -10.781300 -25.122500 -16.888200
H -10.390500 -26.623900 -17.283700
N -10.349400 -26.755600 -12.691400
C -10.313000 -26.380800 -14.049200
O -9.308200 -25.872700 -14.541300
C -9.109900 -26.573900 -11.917200
H -9.089600 -27.217700 -11.178500
H -9.081100 -25.662900 -11.556900
H -8.336200 -26.720200 -12.500200
48
Fragment
H -19.321700 -24.239500 -21.594400
H -18.576800 -25.296800 -22.537600
H -18.568300 -23.742000 -22.916100
C -18.548000 -24.385800 -22.177400
O -18.349700 -25.087000 -19.553200
C -17.344900 -24.578900 -20.045300
N -17.308500 -24.204000 -21.403200
H -17.267500 -24.335700 -16.810900
H -16.876700 -25.837100 -17.206400
C -16.523800 -24.952200 -16.975700
O -16.283900 -23.445100 -23.292200
C -16.212000 -23.680200 -22.103400
C -16.112800 -24.294900 -19.392700
H -15.971200 -25.020800 -16.168800
N -15.711000 -24.450500 -18.079900
N -15.060400 -23.460200 -21.376400
C -15.028700 -23.756200 -20.039700
C -14.447200 -24.009200 -18.031500
H -14.037700 -22.813100 -22.992200
N -13.974600 -23.584100 -19.213000
H -13.931300 -23.997600 -17.233700
C -13.876700 -22.887400 -22.028500
H -13.696900 -21.997400 -21.658000
H -13.102500 -23.467900 -21.870500
H -14.555500 -27.491800 -12.224000
H -13.961100 -28.962200 -12.436600
C -13.781200 -28.072200 -12.066100
H -13.726600 -26.962100 -16.860900
N -13.683400 -27.375600 -14.881600
H -13.620300 -28.146600 -11.102300
C -13.210700 -26.950500 -16.063100
C -12.629200 -27.203500 -14.054900
N -12.597500 -27.499500 -12.718200
N -11.946900 -26.509200 -16.014700
H -11.686800 -25.938900 -17.925800
C -11.545100 -26.664800 -14.701900
C -11.445900 -27.279500 -11.991200
O -11.374000 -27.514600 -10.802400
C -11.134100 -26.007400 -17.118900
H -10.781300 -25.122500 -16.888200
H -10.390500 -26.623900 -17.283700
N -10.349400 -26.755600 -12.691400
C -10.313000 -26.380800 -14.049200
O -9.308200 -25.872700 -14.541300
C -9.109900 -26.573900 -11.917200
H -9.089600 -27.217700 -11.178500
H -9.081100 -25.662900 -11.556900
H -8.336200 -26.720200 -12.500200
