24
Fragment
H -19.321700 -24.239500 -21.594400
H -18.576800 -25.296800 -22.537600
H -18.568300 -23.742000 -22.916100
C -18.548000 -24.385800 -22.177400
O -18.349700 -25.087000 -19.553200
C -17.344900 -24.578900 -20.045300
N -17.308500 -24.204000 -21.403200
H -17.267500 -24.335700 -16.810900
H -16.876700 -25.837100 -17.206400
C -16.523800 -24.952200 -16.975700
O -16.283900 -23.445100 -23.292200
C -16.212000 -23.680200 -22.103400
C -16.112800 -24.294900 -19.392700
H -15.971200 -25.020800 -16.168800
N -15.711000 -24.450500 -18.079900
N -15.060400 -23.460200 -21.376400
C -15.028700 -23.756200 -20.039700
C -14.447200 -24.009200 -18.031500
H -14.037700 -22.813100 -22.992200
N -13.974600 -23.584100 -19.213000
H -13.931300 -23.997600 -17.233700
C -13.876700 -22.887400 -22.028500
H -13.696900 -21.997400 -21.658000
H -13.102500 -23.467900 -21.870500
24
Fragment
H -11.993100 -21.047900 -23.588900
H -11.398700 -22.518300 -23.801400
C -11.218800 -21.628300 -23.430900
H -11.164200 -20.518200 -28.225800
N -11.121000 -20.931700 -26.246500
H -11.057900 -21.702700 -22.467200
C -10.648300 -20.506600 -27.427900
C -10.066800 -20.759600 -25.419800
N -10.035100 -21.055600 -24.083000
N -9.384500 -20.065300 -27.379500
H -9.124400 -19.495000 -29.290600
C -8.982700 -20.220800 -26.066800
C -8.883500 -20.835600 -23.356000
O -8.811600 -21.070700 -22.167300
C -8.571700 -19.563500 -28.483700
H -8.218900 -18.678600 -28.253000
H -7.828100 -20.180000 -28.648500
N -7.787000 -20.311700 -24.056200
C -7.750600 -19.936900 -25.414100
O -6.745800 -19.428800 -25.906200
C -6.547500 -20.130000 -23.282000
H -6.527200 -20.773800 -22.543300
H -6.518700 -19.219000 -22.921800
H -5.773800 -20.276300 -23.865100
48
Fragment
H -19.321700 -24.239500 -21.594400
H -18.576800 -25.296800 -22.537600
H -18.568300 -23.742000 -22.916100
C -18.548000 -24.385800 -22.177400
O -18.349700 -25.087000 -19.553200
C -17.344900 -24.578900 -20.045300
N -17.308500 -24.204000 -21.403200
H -17.267500 -24.335700 -16.810900
H -16.876700 -25.837100 -17.206400
C -16.523800 -24.952200 -16.975700
O -16.283900 -23.445100 -23.292200
C -16.212000 -23.680200 -22.103400
C -16.112800 -24.294900 -19.392700
H -15.971200 -25.020800 -16.168800
N -15.711000 -24.450500 -18.079900
N -15.060400 -23.460200 -21.376400
C -15.028700 -23.756200 -20.039700
C -14.447200 -24.009200 -18.031500
H -14.037700 -22.813100 -22.992200
N -13.974600 -23.584100 -19.213000
H -13.931300 -23.997600 -17.233700
C -13.876700 -22.887400 -22.028500
H -13.696900 -21.997400 -21.658000
H -13.102500 -23.467900 -21.870500
H -11.993100 -21.047900 -23.588900
H -11.398700 -22.518300 -23.801400
C -11.218800 -21.628300 -23.430900
H -11.164200 -20.518200 -28.225800
N -11.121000 -20.931700 -26.246500
H -11.057900 -21.702700 -22.467200
C -10.648300 -20.506600 -27.427900
C -10.066800 -20.759600 -25.419800
N -10.035100 -21.055600 -24.083000
N -9.384500 -20.065300 -27.379500
H -9.124400 -19.495000 -29.290600
C -8.982700 -20.220800 -26.066800
C -8.883500 -20.835600 -23.356000
O -8.811600 -21.070700 -22.167300
C -8.571700 -19.563500 -28.483700
H -8.218900 -18.678600 -28.253000
H -7.828100 -20.180000 -28.648500
N -7.787000 -20.311700 -24.056200
C -7.750600 -19.936900 -25.414100
O -6.745800 -19.428800 -25.906200
C -6.547500 -20.130000 -23.282000
H -6.527200 -20.773800 -22.543300
H -6.518700 -19.219000 -22.921800
H -5.773800 -20.276300 -23.865100
