24
Fragment
H -19.321700 -24.239500 -21.594400
H -18.576800 -25.296800 -22.537600
H -18.568300 -23.742000 -22.916100
C -18.548000 -24.385800 -22.177400
O -18.349700 -25.087000 -19.553200
C -17.344900 -24.578900 -20.045300
N -17.308500 -24.204000 -21.403200
H -17.267500 -24.335700 -16.810900
H -16.876700 -25.837100 -17.206400
C -16.523800 -24.952200 -16.975700
O -16.283900 -23.445100 -23.292200
C -16.212000 -23.680200 -22.103400
C -16.112800 -24.294900 -19.392700
H -15.971200 -25.020800 -16.168800
N -15.711000 -24.450500 -18.079900
N -15.060400 -23.460200 -21.376400
C -15.028700 -23.756200 -20.039700
C -14.447200 -24.009200 -18.031500
H -14.037700 -22.813100 -22.992200
N -13.974600 -23.584100 -19.213000
H -13.931300 -23.997600 -17.233700
C -13.876700 -22.887400 -22.028500
H -13.696900 -21.997400 -21.658000
H -13.102500 -23.467900 -21.870500
24
Fragment
H -25.967100 -29.788500 -24.091200
H -25.297400 -30.832300 -25.101600
H -25.284800 -29.269000 -25.441400
C -25.231200 -29.932300 -24.722000
O -24.850800 -30.572600 -22.086500
N -23.955500 -29.790600 -24.022200
C -23.880500 -30.130500 -22.684300
H -23.019100 -29.741500 -20.085100
H -23.015300 -31.267100 -20.568100
C -22.861700 -29.286900 -24.684500
N -22.829700 -28.956200 -25.966800
N -22.651000 -29.955800 -22.055200
C -22.572800 -30.397200 -20.660200
C -21.681000 -29.070400 -24.000300
H -21.633700 -30.479400 -20.395400
C -21.513400 -28.466000 -26.041400
C -21.505300 -29.388300 -22.639900
H -21.151900 -28.115700 -26.847200
N -20.768600 -28.522000 -24.860600
O -20.458800 -29.221400 -21.969400
C -19.443100 -28.057500 -24.683300
H -19.429400 -27.367000 -23.987800
H -19.114400 -27.679600 -25.525500
H -18.869100 -28.804200 -24.414000
48
Fragment
H -19.321700 -24.239500 -21.594400
H -18.576800 -25.296800 -22.537600
H -18.568300 -23.742000 -22.916100
C -18.548000 -24.385800 -22.177400
O -18.349700 -25.087000 -19.553200
C -17.344900 -24.578900 -20.045300
N -17.308500 -24.204000 -21.403200
H -17.267500 -24.335700 -16.810900
H -16.876700 -25.837100 -17.206400
C -16.523800 -24.952200 -16.975700
O -16.283900 -23.445100 -23.292200
C -16.212000 -23.680200 -22.103400
C -16.112800 -24.294900 -19.392700
H -15.971200 -25.020800 -16.168800
N -15.711000 -24.450500 -18.079900
N -15.060400 -23.460200 -21.376400
C -15.028700 -23.756200 -20.039700
C -14.447200 -24.009200 -18.031500
H -14.037700 -22.813100 -22.992200
N -13.974600 -23.584100 -19.213000
H -13.931300 -23.997600 -17.233700
C -13.876700 -22.887400 -22.028500
H -13.696900 -21.997400 -21.658000
H -13.102500 -23.467900 -21.870500
H -25.967100 -29.788500 -24.091200
H -25.297400 -30.832300 -25.101600
H -25.284800 -29.269000 -25.441400
C -25.231200 -29.932300 -24.722000
O -24.850800 -30.572600 -22.086500
N -23.955500 -29.790600 -24.022200
C -23.880500 -30.130500 -22.684300
H -23.019100 -29.741500 -20.085100
H -23.015300 -31.267100 -20.568100
C -22.861700 -29.286900 -24.684500
N -22.829700 -28.956200 -25.966800
N -22.651000 -29.955800 -22.055200
C -22.572800 -30.397200 -20.660200
C -21.681000 -29.070400 -24.000300
H -21.633700 -30.479400 -20.395400
C -21.513400 -28.466000 -26.041400
C -21.505300 -29.388300 -22.639900
H -21.151900 -28.115700 -26.847200
N -20.768600 -28.522000 -24.860600
O -20.458800 -29.221400 -21.969400
C -19.443100 -28.057500 -24.683300
H -19.429400 -27.367000 -23.987800
H -19.114400 -27.679600 -25.525500
H -18.869100 -28.804200 -24.414000
