39
Fragment
H -19.022200 -16.906700 -27.197400
O -18.921600 -12.572600 -28.691900
O -18.768800 -14.970000 -27.543300
H -18.689500 -16.054200 -25.884000
C -18.479700 -16.175900 -26.833900
H -18.400600 -11.225600 -27.324000
C -18.383600 -13.619100 -29.406500
C -18.318100 -14.890800 -28.828700
H -18.131700 -12.367400 -33.111200
O -17.959100 -12.132500 -31.148500
C -17.956600 -11.919000 -27.856400
C -17.919500 -13.423100 -30.708800
C -17.823700 -15.974800 -29.548900
H -17.776000 -16.834600 -29.148300
H -17.689100 -21.895400 -29.901100
H -17.577600 -10.929600 -32.679400
H -17.544500 -12.575900 -27.258500
C -17.538900 -11.891000 -32.492000
H -17.529700 -16.393200 -26.932900
H -17.526200 -20.905800 -28.655500
C -17.441700 -14.501700 -31.443100
C -17.398100 -15.784500 -30.865700
H -17.265200 -11.507900 -28.415900
N -17.179800 -18.880400 -30.200400
H -17.145000 -14.373500 -32.335800
C -17.098400 -21.244700 -29.468900
C -16.876500 -16.880300 -31.672300
C -16.839900 -20.120700 -30.395300
C -16.769500 -18.191200 -31.365100
H -16.619700 -12.209800 -32.609300
H -16.567200 -16.638600 -32.537000
H -16.458400 -22.232000 -32.265700
H -16.250700 -21.677800 -29.236500
N -16.198200 -20.349000 -31.606700
C -16.143300 -19.160700 -32.297100
C -15.703000 -21.629600 -32.104300
O -15.659200 -18.992400 -33.406200
H -15.213800 -21.487200 -32.941600
H -15.103000 -22.028100 -31.440600
39
Fragment
H -14.032500 -28.572500 -27.197400
O -13.931900 -24.238300 -28.691900
O -13.779000 -26.635700 -27.543300
H -13.699800 -27.719900 -25.884000
C -13.490000 -27.841600 -26.833900
H -13.410900 -22.891300 -27.324000
C -13.393900 -25.284800 -29.406500
C -13.328400 -26.556500 -28.828700
H -13.141900 -24.033200 -33.111200
O -12.969300 -23.798200 -31.148500
C -12.966900 -23.584700 -27.856400
C -12.929800 -25.088900 -30.708800
C -12.833900 -27.640500 -29.548900
H -12.786200 -28.500300 -29.148300
H -12.699300 -33.561100 -29.901100
H -12.587900 -22.595300 -32.679400
H -12.554800 -24.241600 -27.258500
C -12.549200 -23.556700 -32.492000
H -12.540000 -28.059000 -26.932900
H -12.536500 -32.571500 -28.655500
C -12.452000 -26.167400 -31.443100
C -12.408400 -27.450200 -30.865700
H -12.275500 -23.173600 -28.415900
N -12.190100 -30.546100 -30.200400
H -12.155300 -26.039200 -32.335800
C -12.108600 -32.910400 -29.468900
C -11.886700 -28.546100 -31.672300
C -11.850200 -31.786400 -30.395300
C -11.779800 -29.856900 -31.365100
H -11.629900 -23.875500 -32.609300
H -11.577500 -28.304300 -32.537000
H -11.468700 -33.897700 -32.265700
H -11.261000 -33.343600 -29.236500
N -11.208400 -32.014700 -31.606700
C -11.153600 -30.826400 -32.297100
C -10.713300 -33.295400 -32.104300
O -10.669400 -30.658200 -33.406200
H -10.224100 -33.152900 -32.941600
H -10.113200 -33.693800 -31.440600
78
Fragment
H -19.022200 -16.906700 -27.197400
O -18.921600 -12.572600 -28.691900
O -18.768800 -14.970000 -27.543300
H -18.689500 -16.054200 -25.884000
C -18.479700 -16.175900 -26.833900
H -18.400600 -11.225600 -27.324000
C -18.383600 -13.619100 -29.406500
C -18.318100 -14.890800 -28.828700
H -18.131700 -12.367400 -33.111200
O -17.959100 -12.132500 -31.148500
C -17.956600 -11.919000 -27.856400
C -17.919500 -13.423100 -30.708800
C -17.823700 -15.974800 -29.548900
H -17.776000 -16.834600 -29.148300
H -17.689100 -21.895400 -29.901100
H -17.577600 -10.929600 -32.679400
H -17.544500 -12.575900 -27.258500
C -17.538900 -11.891000 -32.492000
H -17.529700 -16.393200 -26.932900
H -17.526200 -20.905800 -28.655500
C -17.441700 -14.501700 -31.443100
C -17.398100 -15.784500 -30.865700
H -17.265200 -11.507900 -28.415900
N -17.179800 -18.880400 -30.200400
H -17.145000 -14.373500 -32.335800
C -17.098400 -21.244700 -29.468900
C -16.876500 -16.880300 -31.672300
C -16.839900 -20.120700 -30.395300
C -16.769500 -18.191200 -31.365100
H -16.619700 -12.209800 -32.609300
H -16.567200 -16.638600 -32.537000
H -16.458400 -22.232000 -32.265700
H -16.250700 -21.677800 -29.236500
N -16.198200 -20.349000 -31.606700
C -16.143300 -19.160700 -32.297100
C -15.703000 -21.629600 -32.104300
O -15.659200 -18.992400 -33.406200
H -15.213800 -21.487200 -32.941600
H -15.103000 -22.028100 -31.440600
H -14.032500 -28.572500 -27.197400
O -13.931900 -24.238300 -28.691900
O -13.779000 -26.635700 -27.543300
H -13.699800 -27.719900 -25.884000
C -13.490000 -27.841600 -26.833900
H -13.410900 -22.891300 -27.324000
C -13.393900 -25.284800 -29.406500
C -13.328400 -26.556500 -28.828700
H -13.141900 -24.033200 -33.111200
O -12.969300 -23.798200 -31.148500
C -12.966900 -23.584700 -27.856400
C -12.929800 -25.088900 -30.708800
C -12.833900 -27.640500 -29.548900
H -12.786200 -28.500300 -29.148300
H -12.699300 -33.561100 -29.901100
H -12.587900 -22.595300 -32.679400
H -12.554800 -24.241600 -27.258500
C -12.549200 -23.556700 -32.492000
H -12.540000 -28.059000 -26.932900
H -12.536500 -32.571500 -28.655500
C -12.452000 -26.167400 -31.443100
C -12.408400 -27.450200 -30.865700
H -12.275500 -23.173600 -28.415900
N -12.190100 -30.546100 -30.200400
H -12.155300 -26.039200 -32.335800
C -12.108600 -32.910400 -29.468900
C -11.886700 -28.546100 -31.672300
C -11.850200 -31.786400 -30.395300
C -11.779800 -29.856900 -31.365100
H -11.629900 -23.875500 -32.609300
H -11.577500 -28.304300 -32.537000
H -11.468700 -33.897700 -32.265700
H -11.261000 -33.343600 -29.236500
N -11.208400 -32.014700 -31.606700
C -11.153600 -30.826400 -32.297100
C -10.713300 -33.295400 -32.104300
O -10.669400 -30.658200 -33.406200
H -10.224100 -33.152900 -32.941600
H -10.113200 -33.693800 -31.440600
