39
Fragment
H -19.022200 -16.906700 -27.197400
O -18.921600 -12.572600 -28.691900
O -18.768800 -14.970000 -27.543300
H -18.689500 -16.054200 -25.884000
C -18.479700 -16.175900 -26.833900
H -18.400600 -11.225600 -27.324000
C -18.383600 -13.619100 -29.406500
C -18.318100 -14.890800 -28.828700
H -18.131700 -12.367400 -33.111200
O -17.959100 -12.132500 -31.148500
C -17.956600 -11.919000 -27.856400
C -17.919500 -13.423100 -30.708800
C -17.823700 -15.974800 -29.548900
H -17.776000 -16.834600 -29.148300
H -17.689100 -21.895400 -29.901100
H -17.577600 -10.929600 -32.679400
H -17.544500 -12.575900 -27.258500
C -17.538900 -11.891000 -32.492000
H -17.529700 -16.393200 -26.932900
H -17.526200 -20.905800 -28.655500
C -17.441700 -14.501700 -31.443100
C -17.398100 -15.784500 -30.865700
H -17.265200 -11.507900 -28.415900
N -17.179800 -18.880400 -30.200400
H -17.145000 -14.373500 -32.335800
C -17.098400 -21.244700 -29.468900
C -16.876500 -16.880300 -31.672300
C -16.839900 -20.120700 -30.395300
C -16.769500 -18.191200 -31.365100
H -16.619700 -12.209800 -32.609300
H -16.567200 -16.638600 -32.537000
H -16.458400 -22.232000 -32.265700
H -16.250700 -21.677800 -29.236500
N -16.198200 -20.349000 -31.606700
C -16.143300 -19.160700 -32.297100
C -15.703000 -21.629600 -32.104300
O -15.659200 -18.992400 -33.406200
H -15.213800 -21.487200 -32.941600
H -15.103000 -22.028100 -31.440600
39
Fragment
H -17.036600 -1.956900 -36.377800
H -16.925800 -2.497800 -34.876700
O -16.480400 -4.992500 -34.412200
C -16.436600 -2.355300 -35.714000
C -15.996300 -4.824300 -35.521200
N -15.941400 -3.636000 -36.211600
H -15.888900 -2.307200 -38.581900
H -15.681200 -1.753000 -35.552600
H -15.572400 -7.346400 -35.281400
H -15.519900 -11.775200 -35.209000
C -15.370100 -5.793800 -36.453300
C -15.299700 -3.864300 -37.423100
C -15.263100 -7.104700 -36.146000
C -15.041200 -2.740300 -38.349500
H -14.994600 -9.611500 -35.482600
N -14.959800 -5.104600 -37.617900
H -14.874400 -12.477100 -39.402500
C -14.741500 -8.200500 -36.952600
C -14.697900 -9.483300 -36.375300
H -14.613400 -3.079200 -39.162800
H -14.609900 -7.591800 -40.885400
C -14.600700 -12.094000 -35.326300
H -14.595100 -11.409100 -40.559900
H -14.562000 -13.055400 -35.138900
H -14.450600 -2.089600 -37.917200
H -14.363600 -7.150400 -38.670000
C -14.315900 -8.010200 -38.269400
C -14.220100 -10.561900 -37.109500
C -14.183000 -12.066000 -39.962000
O -14.180500 -11.852500 -36.669800
H -14.007900 -11.617600 -34.707200
C -13.821500 -9.094200 -38.989700
C -13.756000 -10.365900 -38.411900
H -13.739000 -12.759400 -40.494300
C -13.659900 -7.809100 -40.984400
H -13.450100 -7.930800 -41.934300
O -13.370800 -9.015000 -40.275100
O -13.218000 -11.412400 -39.126400
H -13.117400 -7.078200 -40.620900
78
Fragment
H -19.022200 -16.906700 -27.197400
O -18.921600 -12.572600 -28.691900
O -18.768800 -14.970000 -27.543300
H -18.689500 -16.054200 -25.884000
C -18.479700 -16.175900 -26.833900
H -18.400600 -11.225600 -27.324000
C -18.383600 -13.619100 -29.406500
C -18.318100 -14.890800 -28.828700
H -18.131700 -12.367400 -33.111200
O -17.959100 -12.132500 -31.148500
C -17.956600 -11.919000 -27.856400
C -17.919500 -13.423100 -30.708800
C -17.823700 -15.974800 -29.548900
H -17.776000 -16.834600 -29.148300
H -17.689100 -21.895400 -29.901100
H -17.577600 -10.929600 -32.679400
H -17.544500 -12.575900 -27.258500
C -17.538900 -11.891000 -32.492000
H -17.529700 -16.393200 -26.932900
H -17.526200 -20.905800 -28.655500
C -17.441700 -14.501700 -31.443100
C -17.398100 -15.784500 -30.865700
H -17.265200 -11.507900 -28.415900
N -17.179800 -18.880400 -30.200400
H -17.145000 -14.373500 -32.335800
C -17.098400 -21.244700 -29.468900
C -16.876500 -16.880300 -31.672300
C -16.839900 -20.120700 -30.395300
C -16.769500 -18.191200 -31.365100
H -16.619700 -12.209800 -32.609300
H -16.567200 -16.638600 -32.537000
H -16.458400 -22.232000 -32.265700
H -16.250700 -21.677800 -29.236500
N -16.198200 -20.349000 -31.606700
C -16.143300 -19.160700 -32.297100
C -15.703000 -21.629600 -32.104300
O -15.659200 -18.992400 -33.406200
H -15.213800 -21.487200 -32.941600
H -15.103000 -22.028100 -31.440600
H -17.036600 -1.956900 -36.377800
H -16.925800 -2.497800 -34.876700
O -16.480400 -4.992500 -34.412200
C -16.436600 -2.355300 -35.714000
C -15.996300 -4.824300 -35.521200
N -15.941400 -3.636000 -36.211600
H -15.888900 -2.307200 -38.581900
H -15.681200 -1.753000 -35.552600
H -15.572400 -7.346400 -35.281400
H -15.519900 -11.775200 -35.209000
C -15.370100 -5.793800 -36.453300
C -15.299700 -3.864300 -37.423100
C -15.263100 -7.104700 -36.146000
C -15.041200 -2.740300 -38.349500
H -14.994600 -9.611500 -35.482600
N -14.959800 -5.104600 -37.617900
H -14.874400 -12.477100 -39.402500
C -14.741500 -8.200500 -36.952600
C -14.697900 -9.483300 -36.375300
H -14.613400 -3.079200 -39.162800
H -14.609900 -7.591800 -40.885400
C -14.600700 -12.094000 -35.326300
H -14.595100 -11.409100 -40.559900
H -14.562000 -13.055400 -35.138900
H -14.450600 -2.089600 -37.917200
H -14.363600 -7.150400 -38.670000
C -14.315900 -8.010200 -38.269400
C -14.220100 -10.561900 -37.109500
C -14.183000 -12.066000 -39.962000
O -14.180500 -11.852500 -36.669800
H -14.007900 -11.617600 -34.707200
C -13.821500 -9.094200 -38.989700
C -13.756000 -10.365900 -38.411900
H -13.739000 -12.759400 -40.494300
C -13.659900 -7.809100 -40.984400
H -13.450100 -7.930800 -41.934300
O -13.370800 -9.015000 -40.275100
O -13.218000 -11.412400 -39.126400
H -13.117400 -7.078200 -40.620900
