39
Fragment
H -19.022200 -16.906700 -27.197400
O -18.921600 -12.572600 -28.691900
O -18.768800 -14.970000 -27.543300
H -18.689500 -16.054200 -25.884000
C -18.479700 -16.175900 -26.833900
H -18.400600 -11.225600 -27.324000
C -18.383600 -13.619100 -29.406500
C -18.318100 -14.890800 -28.828700
H -18.131700 -12.367400 -33.111200
O -17.959100 -12.132500 -31.148500
C -17.956600 -11.919000 -27.856400
C -17.919500 -13.423100 -30.708800
C -17.823700 -15.974800 -29.548900
H -17.776000 -16.834600 -29.148300
H -17.689100 -21.895400 -29.901100
H -17.577600 -10.929600 -32.679400
H -17.544500 -12.575900 -27.258500
C -17.538900 -11.891000 -32.492000
H -17.529700 -16.393200 -26.932900
H -17.526200 -20.905800 -28.655500
C -17.441700 -14.501700 -31.443100
C -17.398100 -15.784500 -30.865700
H -17.265200 -11.507900 -28.415900
N -17.179800 -18.880400 -30.200400
H -17.145000 -14.373500 -32.335800
C -17.098400 -21.244700 -29.468900
C -16.876500 -16.880300 -31.672300
C -16.839900 -20.120700 -30.395300
C -16.769500 -18.191200 -31.365100
H -16.619700 -12.209800 -32.609300
H -16.567200 -16.638600 -32.537000
H -16.458400 -22.232000 -32.265700
H -16.250700 -21.677800 -29.236500
N -16.198200 -20.349000 -31.606700
C -16.143300 -19.160700 -32.297100
C -15.703000 -21.629600 -32.104300
O -15.659200 -18.992400 -33.406200
H -15.213800 -21.487200 -32.941600
H -15.103000 -22.028100 -31.440600
39
Fragment
H -19.145500 -13.622700 -36.377800
H -19.034600 -14.163500 -34.876700
O -18.589300 -16.658300 -34.412200
C -18.545500 -14.021100 -35.714000
C -18.105200 -16.490000 -35.521200
N -18.050300 -15.301700 -36.211600
H -17.997800 -13.972900 -38.581900
H -17.790100 -13.418700 -35.552600
H -17.681300 -19.012100 -35.281400
H -17.628800 -23.440900 -35.209000
C -17.479000 -17.459500 -36.453300
C -17.408500 -15.530000 -37.423100
C -17.372000 -18.770400 -36.146000
C -17.150100 -14.406000 -38.349500
H -17.103500 -21.277200 -35.482600
N -17.068600 -16.770400 -37.617900
H -16.983300 -24.142800 -39.402500
C -16.850300 -19.866200 -36.952600
C -16.806800 -21.149000 -36.375300
H -16.722300 -14.744900 -39.162800
H -16.718800 -19.257500 -40.885400
C -16.709600 -23.759700 -35.326300
H -16.703900 -23.074900 -40.559900
H -16.670900 -24.721100 -35.138900
H -16.559400 -13.755300 -37.917200
H -16.472500 -18.816200 -38.670000
C -16.424800 -19.675900 -38.269400
C -16.329000 -22.227600 -37.109500
C -16.291800 -23.731700 -39.962000
O -16.289400 -23.518200 -36.669800
H -16.116800 -23.283300 -34.707200
C -15.930300 -20.759900 -38.989700
C -15.864900 -22.031700 -38.411900
H -15.847900 -24.425100 -40.494300
C -15.768800 -19.474800 -40.984400
H -15.558900 -19.596600 -41.934300
O -15.479700 -20.680800 -40.275100
O -15.326800 -23.078100 -39.126400
H -15.226300 -18.744000 -40.620900
78
Fragment
H -19.022200 -16.906700 -27.197400
O -18.921600 -12.572600 -28.691900
O -18.768800 -14.970000 -27.543300
H -18.689500 -16.054200 -25.884000
C -18.479700 -16.175900 -26.833900
H -18.400600 -11.225600 -27.324000
C -18.383600 -13.619100 -29.406500
C -18.318100 -14.890800 -28.828700
H -18.131700 -12.367400 -33.111200
O -17.959100 -12.132500 -31.148500
C -17.956600 -11.919000 -27.856400
C -17.919500 -13.423100 -30.708800
C -17.823700 -15.974800 -29.548900
H -17.776000 -16.834600 -29.148300
H -17.689100 -21.895400 -29.901100
H -17.577600 -10.929600 -32.679400
H -17.544500 -12.575900 -27.258500
C -17.538900 -11.891000 -32.492000
H -17.529700 -16.393200 -26.932900
H -17.526200 -20.905800 -28.655500
C -17.441700 -14.501700 -31.443100
C -17.398100 -15.784500 -30.865700
H -17.265200 -11.507900 -28.415900
N -17.179800 -18.880400 -30.200400
H -17.145000 -14.373500 -32.335800
C -17.098400 -21.244700 -29.468900
C -16.876500 -16.880300 -31.672300
C -16.839900 -20.120700 -30.395300
C -16.769500 -18.191200 -31.365100
H -16.619700 -12.209800 -32.609300
H -16.567200 -16.638600 -32.537000
H -16.458400 -22.232000 -32.265700
H -16.250700 -21.677800 -29.236500
N -16.198200 -20.349000 -31.606700
C -16.143300 -19.160700 -32.297100
C -15.703000 -21.629600 -32.104300
O -15.659200 -18.992400 -33.406200
H -15.213800 -21.487200 -32.941600
H -15.103000 -22.028100 -31.440600
H -19.145500 -13.622700 -36.377800
H -19.034600 -14.163500 -34.876700
O -18.589300 -16.658300 -34.412200
C -18.545500 -14.021100 -35.714000
C -18.105200 -16.490000 -35.521200
N -18.050300 -15.301700 -36.211600
H -17.997800 -13.972900 -38.581900
H -17.790100 -13.418700 -35.552600
H -17.681300 -19.012100 -35.281400
H -17.628800 -23.440900 -35.209000
C -17.479000 -17.459500 -36.453300
C -17.408500 -15.530000 -37.423100
C -17.372000 -18.770400 -36.146000
C -17.150100 -14.406000 -38.349500
H -17.103500 -21.277200 -35.482600
N -17.068600 -16.770400 -37.617900
H -16.983300 -24.142800 -39.402500
C -16.850300 -19.866200 -36.952600
C -16.806800 -21.149000 -36.375300
H -16.722300 -14.744900 -39.162800
H -16.718800 -19.257500 -40.885400
C -16.709600 -23.759700 -35.326300
H -16.703900 -23.074900 -40.559900
H -16.670900 -24.721100 -35.138900
H -16.559400 -13.755300 -37.917200
H -16.472500 -18.816200 -38.670000
C -16.424800 -19.675900 -38.269400
C -16.329000 -22.227600 -37.109500
C -16.291800 -23.731700 -39.962000
O -16.289400 -23.518200 -36.669800
H -16.116800 -23.283300 -34.707200
C -15.930300 -20.759900 -38.989700
C -15.864900 -22.031700 -38.411900
H -15.847900 -24.425100 -40.494300
C -15.768800 -19.474800 -40.984400
H -15.558900 -19.596600 -41.934300
O -15.479700 -20.680800 -40.275100
O -15.326800 -23.078100 -39.126400
H -15.226300 -18.744000 -40.620900
