39
Fragment
H -19.022200 -16.906700 -27.197400
O -18.921600 -12.572600 -28.691900
O -18.768800 -14.970000 -27.543300
H -18.689500 -16.054200 -25.884000
C -18.479700 -16.175900 -26.833900
H -18.400600 -11.225600 -27.324000
C -18.383600 -13.619100 -29.406500
C -18.318100 -14.890800 -28.828700
H -18.131700 -12.367400 -33.111200
O -17.959100 -12.132500 -31.148500
C -17.956600 -11.919000 -27.856400
C -17.919500 -13.423100 -30.708800
C -17.823700 -15.974800 -29.548900
H -17.776000 -16.834600 -29.148300
H -17.689100 -21.895400 -29.901100
H -17.577600 -10.929600 -32.679400
H -17.544500 -12.575900 -27.258500
C -17.538900 -11.891000 -32.492000
H -17.529700 -16.393200 -26.932900
H -17.526200 -20.905800 -28.655500
C -17.441700 -14.501700 -31.443100
C -17.398100 -15.784500 -30.865700
H -17.265200 -11.507900 -28.415900
N -17.179800 -18.880400 -30.200400
H -17.145000 -14.373500 -32.335800
C -17.098400 -21.244700 -29.468900
C -16.876500 -16.880300 -31.672300
C -16.839900 -20.120700 -30.395300
C -16.769500 -18.191200 -31.365100
H -16.619700 -12.209800 -32.609300
H -16.567200 -16.638600 -32.537000
H -16.458400 -22.232000 -32.265700
H -16.250700 -21.677800 -29.236500
N -16.198200 -20.349000 -31.606700
C -16.143300 -19.160700 -32.297100
C -15.703000 -21.629600 -32.104300
O -15.659200 -18.992400 -33.406200
H -15.213800 -21.487200 -32.941600
H -15.103000 -22.028100 -31.440600
39
Fragment
H -19.792000 -23.104700 -20.295800
H -19.734900 -21.547400 -20.659700
C -19.285500 -22.273500 -20.178900
H -19.235900 -22.052700 -19.226500
H -18.888400 -17.019400 -23.630200
H -18.764700 -18.613400 -23.562400
C -18.269200 -17.769800 -23.509200
H -18.021200 -24.983300 -19.371200
C -17.916600 -22.449300 -20.717600
H -17.837300 -17.699200 -22.633200
H -17.691100 -23.811400 -18.331300
N -17.397900 -21.742900 -21.680200
C -17.350300 -24.324800 -19.094300
O -17.275400 -17.736900 -24.534400
N -17.068800 -23.419700 -20.203500
H -17.020700 -19.897300 -23.024300
H -16.526600 -24.788000 -18.833200
C -16.282400 -19.750600 -23.603300
C -16.270000 -18.661900 -24.452400
C -16.097600 -22.251000 -21.863500
C -15.882500 -23.377700 -20.910400
H -15.645000 -15.943700 -24.835100
C -15.195300 -20.641300 -23.601200
C -15.190900 -18.434000 -25.316600
O -15.183000 -17.353000 -26.172900
C -15.142800 -21.796500 -22.705100
C -14.932400 -16.107600 -25.488600
O -14.911500 -24.099900 -20.727800
H -14.911400 -15.375300 -26.139400
H -14.331900 -22.291600 -22.716900
C -14.110600 -20.423000 -24.462800
C -14.109500 -19.323000 -25.310700
H -14.070700 -16.157900 -25.025000
H -13.377400 -21.026400 -24.466600
O -13.090700 -18.983500 -26.155700
H -12.361500 -20.769500 -26.621000
C -12.016500 -19.919000 -26.278000
H -11.606800 -20.062500 -25.400200
H -11.344100 -19.566000 -26.896800
78
Fragment
H -19.022200 -16.906700 -27.197400
O -18.921600 -12.572600 -28.691900
O -18.768800 -14.970000 -27.543300
H -18.689500 -16.054200 -25.884000
C -18.479700 -16.175900 -26.833900
H -18.400600 -11.225600 -27.324000
C -18.383600 -13.619100 -29.406500
C -18.318100 -14.890800 -28.828700
H -18.131700 -12.367400 -33.111200
O -17.959100 -12.132500 -31.148500
C -17.956600 -11.919000 -27.856400
C -17.919500 -13.423100 -30.708800
C -17.823700 -15.974800 -29.548900
H -17.776000 -16.834600 -29.148300
H -17.689100 -21.895400 -29.901100
H -17.577600 -10.929600 -32.679400
H -17.544500 -12.575900 -27.258500
C -17.538900 -11.891000 -32.492000
H -17.529700 -16.393200 -26.932900
H -17.526200 -20.905800 -28.655500
C -17.441700 -14.501700 -31.443100
C -17.398100 -15.784500 -30.865700
H -17.265200 -11.507900 -28.415900
N -17.179800 -18.880400 -30.200400
H -17.145000 -14.373500 -32.335800
C -17.098400 -21.244700 -29.468900
C -16.876500 -16.880300 -31.672300
C -16.839900 -20.120700 -30.395300
C -16.769500 -18.191200 -31.365100
H -16.619700 -12.209800 -32.609300
H -16.567200 -16.638600 -32.537000
H -16.458400 -22.232000 -32.265700
H -16.250700 -21.677800 -29.236500
N -16.198200 -20.349000 -31.606700
C -16.143300 -19.160700 -32.297100
C -15.703000 -21.629600 -32.104300
O -15.659200 -18.992400 -33.406200
H -15.213800 -21.487200 -32.941600
H -15.103000 -22.028100 -31.440600
H -19.792000 -23.104700 -20.295800
H -19.734900 -21.547400 -20.659700
C -19.285500 -22.273500 -20.178900
H -19.235900 -22.052700 -19.226500
H -18.888400 -17.019400 -23.630200
H -18.764700 -18.613400 -23.562400
C -18.269200 -17.769800 -23.509200
H -18.021200 -24.983300 -19.371200
C -17.916600 -22.449300 -20.717600
H -17.837300 -17.699200 -22.633200
H -17.691100 -23.811400 -18.331300
N -17.397900 -21.742900 -21.680200
C -17.350300 -24.324800 -19.094300
O -17.275400 -17.736900 -24.534400
N -17.068800 -23.419700 -20.203500
H -17.020700 -19.897300 -23.024300
H -16.526600 -24.788000 -18.833200
C -16.282400 -19.750600 -23.603300
C -16.270000 -18.661900 -24.452400
C -16.097600 -22.251000 -21.863500
C -15.882500 -23.377700 -20.910400
H -15.645000 -15.943700 -24.835100
C -15.195300 -20.641300 -23.601200
C -15.190900 -18.434000 -25.316600
O -15.183000 -17.353000 -26.172900
C -15.142800 -21.796500 -22.705100
C -14.932400 -16.107600 -25.488600
O -14.911500 -24.099900 -20.727800
H -14.911400 -15.375300 -26.139400
H -14.331900 -22.291600 -22.716900
C -14.110600 -20.423000 -24.462800
C -14.109500 -19.323000 -25.310700
H -14.070700 -16.157900 -25.025000
H -13.377400 -21.026400 -24.466600
O -13.090700 -18.983500 -26.155700
H -12.361500 -20.769500 -26.621000
C -12.016500 -19.919000 -26.278000
H -11.606800 -20.062500 -25.400200
H -11.344100 -19.566000 -26.896800
