30
Fragment
H -24.974100 -18.600400 -14.565000
N -24.522800 -15.724100 -9.085400
O -24.374100 -14.699800 -8.150200
C -24.074800 -18.631900 -14.328800
H -23.959000 -16.759500 -13.605500
H -23.757700 -20.512200 -14.927700
C -23.497600 -15.589500 -9.875200
C -23.473000 -17.539400 -13.752000
C -23.344200 -19.768200 -14.554400
N -23.235000 -13.938100 -8.417000
N -23.229400 -16.385900 -10.965400
C -22.701000 -14.495400 -9.459700
C -22.162800 -15.953900 -11.580100
C -22.138300 -17.605800 -13.389300
C -21.995300 -19.823200 -14.234900
N -21.583900 -16.491400 -12.669200
N -21.548200 -14.092500 -10.091300
H -21.496700 -20.585200 -14.425800
C -21.402700 -18.732500 -13.628700
F -21.400000 -14.552100 -14.640900
C -21.335400 -14.827100 -11.139300
H -20.505800 -18.765200 -13.383000
N -20.313800 -14.729300 -12.006000
C -20.306100 -15.807600 -12.962300
C -20.282900 -15.238800 -14.380400
F -20.209000 -16.182000 -15.308300
H -19.641400 -14.279300 -11.829900
F -19.262100 -14.416100 -14.544900
O -19.204100 -16.616200 -12.870600
H -19.203600 -16.985200 -11.924800
30
Fragment
H -17.647000 -18.600400 -14.565000
N -17.195700 -15.724100 -9.085400
O -17.047000 -14.699800 -8.150200
C -16.747700 -18.631900 -14.328800
H -16.631900 -16.759500 -13.605500
H -16.430600 -20.512200 -14.927700
C -16.170500 -15.589500 -9.875200
C -16.145900 -17.539400 -13.752000
C -16.017100 -19.768200 -14.554400
N -15.907900 -13.938100 -8.417000
N -15.902300 -16.385900 -10.965400
C -15.373900 -14.495400 -9.459700
C -14.835700 -15.953900 -11.580100
C -14.811200 -17.605800 -13.389300
C -14.668200 -19.823200 -14.234900
N -14.256800 -16.491400 -12.669200
N -14.221100 -14.092500 -10.091300
H -14.169600 -20.585200 -14.425800
C -14.075600 -18.732500 -13.628700
F -14.072900 -14.552100 -14.640900
C -14.008300 -14.827100 -11.139300
H -13.178700 -18.765200 -13.383000
N -12.986700 -14.729300 -12.006000
C -12.979000 -15.807600 -12.962300
C -12.955800 -15.238800 -14.380400
F -12.881900 -16.182000 -15.308300
H -12.314300 -14.279300 -11.829900
F -11.935000 -14.416100 -14.544900
O -11.877000 -16.616200 -12.870600
H -11.876500 -16.985200 -11.924800
60
Fragment
H -24.974100 -18.600400 -14.565000
N -24.522800 -15.724100 -9.085400
O -24.374100 -14.699800 -8.150200
C -24.074800 -18.631900 -14.328800
H -23.959000 -16.759500 -13.605500
H -23.757700 -20.512200 -14.927700
C -23.497600 -15.589500 -9.875200
C -23.473000 -17.539400 -13.752000
C -23.344200 -19.768200 -14.554400
N -23.235000 -13.938100 -8.417000
N -23.229400 -16.385900 -10.965400
C -22.701000 -14.495400 -9.459700
C -22.162800 -15.953900 -11.580100
C -22.138300 -17.605800 -13.389300
C -21.995300 -19.823200 -14.234900
N -21.583900 -16.491400 -12.669200
N -21.548200 -14.092500 -10.091300
H -21.496700 -20.585200 -14.425800
C -21.402700 -18.732500 -13.628700
F -21.400000 -14.552100 -14.640900
C -21.335400 -14.827100 -11.139300
H -20.505800 -18.765200 -13.383000
N -20.313800 -14.729300 -12.006000
C -20.306100 -15.807600 -12.962300
C -20.282900 -15.238800 -14.380400
F -20.209000 -16.182000 -15.308300
H -19.641400 -14.279300 -11.829900
F -19.262100 -14.416100 -14.544900
O -19.204100 -16.616200 -12.870600
H -19.203600 -16.985200 -11.924800
H -17.647000 -18.600400 -14.565000
N -17.195700 -15.724100 -9.085400
O -17.047000 -14.699800 -8.150200
C -16.747700 -18.631900 -14.328800
H -16.631900 -16.759500 -13.605500
H -16.430600 -20.512200 -14.927700
C -16.170500 -15.589500 -9.875200
C -16.145900 -17.539400 -13.752000
C -16.017100 -19.768200 -14.554400
N -15.907900 -13.938100 -8.417000
N -15.902300 -16.385900 -10.965400
C -15.373900 -14.495400 -9.459700
C -14.835700 -15.953900 -11.580100
C -14.811200 -17.605800 -13.389300
C -14.668200 -19.823200 -14.234900
N -14.256800 -16.491400 -12.669200
N -14.221100 -14.092500 -10.091300
H -14.169600 -20.585200 -14.425800
C -14.075600 -18.732500 -13.628700
F -14.072900 -14.552100 -14.640900
C -14.008300 -14.827100 -11.139300
H -13.178700 -18.765200 -13.383000
N -12.986700 -14.729300 -12.006000
C -12.979000 -15.807600 -12.962300
C -12.955800 -15.238800 -14.380400
F -12.881900 -16.182000 -15.308300
H -12.314300 -14.279300 -11.829900
F -11.935000 -14.416100 -14.544900
O -11.877000 -16.616200 -12.870600
H -11.876500 -16.985200 -11.924800
