30
Fragment
H -24.974100 -18.600400 -14.565000
N -24.522800 -15.724100 -9.085400
O -24.374100 -14.699800 -8.150200
C -24.074800 -18.631900 -14.328800
H -23.959000 -16.759500 -13.605500
H -23.757700 -20.512200 -14.927700
C -23.497600 -15.589500 -9.875200
C -23.473000 -17.539400 -13.752000
C -23.344200 -19.768200 -14.554400
N -23.235000 -13.938100 -8.417000
N -23.229400 -16.385900 -10.965400
C -22.701000 -14.495400 -9.459700
C -22.162800 -15.953900 -11.580100
C -22.138300 -17.605800 -13.389300
C -21.995300 -19.823200 -14.234900
N -21.583900 -16.491400 -12.669200
N -21.548200 -14.092500 -10.091300
H -21.496700 -20.585200 -14.425800
C -21.402700 -18.732500 -13.628700
F -21.400000 -14.552100 -14.640900
C -21.335400 -14.827100 -11.139300
H -20.505800 -18.765200 -13.383000
N -20.313800 -14.729300 -12.006000
C -20.306100 -15.807600 -12.962300
C -20.282900 -15.238800 -14.380400
F -20.209000 -16.182000 -15.308300
H -19.641400 -14.279300 -11.829900
F -19.262100 -14.416100 -14.544900
O -19.204100 -16.616200 -12.870600
H -19.203600 -16.985200 -11.924800
30
Fragment
H -20.509600 -10.165300 -9.162400
O -20.509000 -10.534400 -8.216600
F -20.451100 -12.734400 -6.542300
H -20.071700 -12.871200 -9.257300
F -19.504200 -10.968600 -5.779000
C -19.430300 -11.911800 -6.706800
C -19.407000 -11.343000 -8.124900
N -19.399400 -12.421300 -9.081200
H -19.207400 -8.385400 -7.704200
C -18.377800 -12.323400 -9.947900
F -18.313200 -12.598400 -6.446400
C -18.310500 -8.418100 -7.458600
H -18.216500 -6.565400 -6.661500
N -18.165000 -13.058100 -10.995900
N -18.129300 -10.659200 -8.418000
C -17.717900 -7.327300 -6.852300
C -17.574800 -9.544800 -7.697900
C -17.550300 -11.196700 -9.507200
C -17.012200 -12.655200 -11.627500
N -16.483800 -10.764700 -10.121900
N -16.478200 -13.212500 -12.670300
C -16.369000 -7.382400 -6.532800
C -16.240100 -9.611200 -7.335200
C -16.215600 -11.561100 -11.212100
H -15.955400 -6.638400 -6.159600
H -15.754100 -10.391000 -7.481800
C -15.638400 -8.518700 -6.758500
O -15.339100 -12.450800 -12.937000
N -15.190300 -11.426500 -12.001800
H -14.739100 -8.550200 -6.522300
60
Fragment
H -24.974100 -18.600400 -14.565000
N -24.522800 -15.724100 -9.085400
O -24.374100 -14.699800 -8.150200
C -24.074800 -18.631900 -14.328800
H -23.959000 -16.759500 -13.605500
H -23.757700 -20.512200 -14.927700
C -23.497600 -15.589500 -9.875200
C -23.473000 -17.539400 -13.752000
C -23.344200 -19.768200 -14.554400
N -23.235000 -13.938100 -8.417000
N -23.229400 -16.385900 -10.965400
C -22.701000 -14.495400 -9.459700
C -22.162800 -15.953900 -11.580100
C -22.138300 -17.605800 -13.389300
C -21.995300 -19.823200 -14.234900
N -21.583900 -16.491400 -12.669200
N -21.548200 -14.092500 -10.091300
H -21.496700 -20.585200 -14.425800
C -21.402700 -18.732500 -13.628700
F -21.400000 -14.552100 -14.640900
C -21.335400 -14.827100 -11.139300
H -20.505800 -18.765200 -13.383000
N -20.313800 -14.729300 -12.006000
C -20.306100 -15.807600 -12.962300
C -20.282900 -15.238800 -14.380400
F -20.209000 -16.182000 -15.308300
H -19.641400 -14.279300 -11.829900
F -19.262100 -14.416100 -14.544900
O -19.204100 -16.616200 -12.870600
H -19.203600 -16.985200 -11.924800
H -20.509600 -10.165300 -9.162400
O -20.509000 -10.534400 -8.216600
F -20.451100 -12.734400 -6.542300
H -20.071700 -12.871200 -9.257300
F -19.504200 -10.968600 -5.779000
C -19.430300 -11.911800 -6.706800
C -19.407000 -11.343000 -8.124900
N -19.399400 -12.421300 -9.081200
H -19.207400 -8.385400 -7.704200
C -18.377800 -12.323400 -9.947900
F -18.313200 -12.598400 -6.446400
C -18.310500 -8.418100 -7.458600
H -18.216500 -6.565400 -6.661500
N -18.165000 -13.058100 -10.995900
N -18.129300 -10.659200 -8.418000
C -17.717900 -7.327300 -6.852300
C -17.574800 -9.544800 -7.697900
C -17.550300 -11.196700 -9.507200
C -17.012200 -12.655200 -11.627500
N -16.483800 -10.764700 -10.121900
N -16.478200 -13.212500 -12.670300
C -16.369000 -7.382400 -6.532800
C -16.240100 -9.611200 -7.335200
C -16.215600 -11.561100 -11.212100
H -15.955400 -6.638400 -6.159600
H -15.754100 -10.391000 -7.481800
C -15.638400 -8.518700 -6.758500
O -15.339100 -12.450800 -12.937000
N -15.190300 -11.426500 -12.001800
H -14.739100 -8.550200 -6.522300
