36
Fragment
O -39.698700 -30.395400 -22.316800
O -39.383500 -28.625000 -23.539200
N -39.005100 -29.568800 -22.877000
H -37.791100 -31.548600 -21.896700
O -37.705600 -31.589000 -19.654900
N -37.608300 -29.650000 -22.676400
H -37.268100 -28.646400 -24.432700
C -37.062400 -30.907100 -22.135700
O -37.040800 -26.782100 -21.756000
C -36.760900 -29.205600 -23.777900
N -36.691700 -30.915500 -19.715000
O -36.614100 -27.826600 -19.877300
N -36.473900 -27.615100 -21.077900
H -36.424900 -32.401900 -23.540000
N -36.400100 -30.505900 -24.339900
N -36.239800 -30.598800 -20.996700
C -36.137800 -31.481700 -23.269400
O -36.018900 -30.518700 -18.779300
N -35.644800 -30.549500 -25.492600
O -35.596900 -29.518700 -26.148300
C -35.514900 -28.427000 -23.184500
N -35.506400 -28.379500 -21.716300
H -35.428800 -27.514200 -23.581900
C -35.134400 -29.694700 -21.167200
O -35.112000 -31.617300 -25.757100
N -34.769200 -31.474000 -22.807400
H -34.615700 -29.596200 -20.319000
O -34.400300 -33.553300 -23.516500
N -34.313300 -29.223700 -23.405300
C -34.224700 -30.232100 -22.326100
N -33.896200 -32.497000 -23.153200
O -33.289900 -27.505800 -24.390600
H -33.280400 -30.348900 -22.018700
N -33.135200 -28.506500 -23.715600
O -32.701800 -32.274600 -23.016200
O -32.081800 -28.995800 -23.362700
16
Fragment
O -38.334100 -35.846500 -29.790000
N -37.413500 -36.390700 -29.197500
O -37.250300 -37.608100 -29.145400
C -36.437900 -35.559100 -28.537400
N -36.410800 -34.229600 -28.787800
O -35.867000 -37.934100 -26.766600
C -35.383000 -35.927300 -27.738000
C -35.342000 -33.803800 -28.136500
H -35.071200 -32.893500 -28.121900
N -34.991300 -37.191700 -27.174000
N -34.672600 -34.785600 -27.495200
O -33.791200 -37.436500 -27.128100
H -33.662400 -34.856500 -25.748000
C -33.473300 -34.588100 -26.671900
H -33.215900 -33.642800 -26.691700
H -32.740400 -35.133600 -27.027000
52
Fragment
O -39.698700 -30.395400 -22.316800
O -39.383500 -28.625000 -23.539200
N -39.005100 -29.568800 -22.877000
H -37.791100 -31.548600 -21.896700
O -37.705600 -31.589000 -19.654900
N -37.608300 -29.650000 -22.676400
H -37.268100 -28.646400 -24.432700
C -37.062400 -30.907100 -22.135700
O -37.040800 -26.782100 -21.756000
C -36.760900 -29.205600 -23.777900
N -36.691700 -30.915500 -19.715000
O -36.614100 -27.826600 -19.877300
N -36.473900 -27.615100 -21.077900
H -36.424900 -32.401900 -23.540000
N -36.400100 -30.505900 -24.339900
N -36.239800 -30.598800 -20.996700
C -36.137800 -31.481700 -23.269400
O -36.018900 -30.518700 -18.779300
N -35.644800 -30.549500 -25.492600
O -35.596900 -29.518700 -26.148300
C -35.514900 -28.427000 -23.184500
N -35.506400 -28.379500 -21.716300
H -35.428800 -27.514200 -23.581900
C -35.134400 -29.694700 -21.167200
O -35.112000 -31.617300 -25.757100
N -34.769200 -31.474000 -22.807400
H -34.615700 -29.596200 -20.319000
O -34.400300 -33.553300 -23.516500
N -34.313300 -29.223700 -23.405300
C -34.224700 -30.232100 -22.326100
N -33.896200 -32.497000 -23.153200
O -33.289900 -27.505800 -24.390600
H -33.280400 -30.348900 -22.018700
N -33.135200 -28.506500 -23.715600
O -32.701800 -32.274600 -23.016200
O -32.081800 -28.995800 -23.362700
O -38.334100 -35.846500 -29.790000
N -37.413500 -36.390700 -29.197500
O -37.250300 -37.608100 -29.145400
C -36.437900 -35.559100 -28.537400
N -36.410800 -34.229600 -28.787800
O -35.867000 -37.934100 -26.766600
C -35.383000 -35.927300 -27.738000
C -35.342000 -33.803800 -28.136500
H -35.071200 -32.893500 -28.121900
N -34.991300 -37.191700 -27.174000
N -34.672600 -34.785600 -27.495200
O -33.791200 -37.436500 -27.128100
H -33.662400 -34.856500 -25.748000
C -33.473300 -34.588100 -26.671900
H -33.215900 -33.642800 -26.691700
H -32.740400 -35.133600 -27.027000
