14
Fragment
O -19.756300 -8.017200 -34.306800
H -19.367900 -9.446900 -32.347800
N -18.804300 -7.363300 -33.895600
C -18.542000 -8.945700 -32.025300
O -18.428500 -6.314500 -34.417200
C -18.093500 -7.837100 -32.722100
N -17.893400 -9.403000 -30.964600
C -16.929400 -7.212500 -32.297200
C -16.760900 -8.726400 -30.599000
H -16.555400 -6.391400 -32.799300
H -16.416200 -9.940300 -29.022100
N -16.254800 -7.642500 -31.239500
N -16.098500 -9.190900 -29.551000
H -15.391700 -8.730500 -29.191200
15
Fragment
O -25.553100 -9.562500 -38.360000
O -24.982900 -8.250000 -36.755700
N -24.764300 -9.225000 -37.471700
H -24.634700 -11.181100 -39.347200
N -23.907300 -11.511500 -39.170600
H -23.625800 -12.236600 -39.577900
C -23.564100 -9.992500 -37.271800
C -23.212000 -11.087700 -38.110200
H -23.028100 -8.727900 -35.685400
C -22.710800 -9.622400 -36.225000
N -22.066500 -11.776300 -37.865400
C -21.555100 -10.334700 -36.014600
C -21.291700 -11.401000 -36.850600
H -20.965700 -9.927400 -35.249800
H -20.447400 -11.984800 -36.791300
29
Fragment
O -19.756300 -8.017200 -34.306800
H -19.367900 -9.446900 -32.347800
N -18.804300 -7.363300 -33.895600
C -18.542000 -8.945700 -32.025300
O -18.428500 -6.314500 -34.417200
C -18.093500 -7.837100 -32.722100
N -17.893400 -9.403000 -30.964600
C -16.929400 -7.212500 -32.297200
C -16.760900 -8.726400 -30.599000
H -16.555400 -6.391400 -32.799300
H -16.416200 -9.940300 -29.022100
N -16.254800 -7.642500 -31.239500
N -16.098500 -9.190900 -29.551000
H -15.391700 -8.730500 -29.191200
O -25.553100 -9.562500 -38.360000
O -24.982900 -8.250000 -36.755700
N -24.764300 -9.225000 -37.471700
H -24.634700 -11.181100 -39.347200
N -23.907300 -11.511500 -39.170600
H -23.625800 -12.236600 -39.577900
C -23.564100 -9.992500 -37.271800
C -23.212000 -11.087700 -38.110200
H -23.028100 -8.727900 -35.685400
C -22.710800 -9.622400 -36.225000
N -22.066500 -11.776300 -37.865400
C -21.555100 -10.334700 -36.014600
C -21.291700 -11.401000 -36.850600
H -20.965700 -9.927400 -35.249800
H -20.447400 -11.984800 -36.791300
