14
Fragment
O -19.756300 -8.017200 -34.306800
H -19.367900 -9.446900 -32.347800
N -18.804300 -7.363300 -33.895600
C -18.542000 -8.945700 -32.025300
O -18.428500 -6.314500 -34.417200
C -18.093500 -7.837100 -32.722100
N -17.893400 -9.403000 -30.964600
C -16.929400 -7.212500 -32.297200
C -16.760900 -8.726400 -30.599000
H -16.555400 -6.391400 -32.799300
H -16.416200 -9.940300 -29.022100
N -16.254800 -7.642500 -31.239500
N -16.098500 -9.190900 -29.551000
H -15.391700 -8.730500 -29.191200
14
Fragment
H -14.457100 -6.753700 -30.480100
N -13.750200 -6.293300 -30.120200
N -13.593900 -7.841700 -28.431700
H -13.432600 -5.543900 -30.649100
H -13.293400 -9.092800 -26.871900
C -13.087900 -6.757800 -29.072200
C -12.919400 -8.271700 -27.374000
N -11.955300 -6.081200 -28.706600
C -11.755200 -7.647100 -26.949100
O -11.420300 -9.169700 -25.254100
C -11.306700 -6.538500 -27.645900
N -11.044500 -8.120900 -25.775600
H -10.480800 -6.037300 -27.323400
O -10.092400 -7.467000 -25.364400
28
Fragment
O -19.756300 -8.017200 -34.306800
H -19.367900 -9.446900 -32.347800
N -18.804300 -7.363300 -33.895600
C -18.542000 -8.945700 -32.025300
O -18.428500 -6.314500 -34.417200
C -18.093500 -7.837100 -32.722100
N -17.893400 -9.403000 -30.964600
C -16.929400 -7.212500 -32.297200
C -16.760900 -8.726400 -30.599000
H -16.555400 -6.391400 -32.799300
H -16.416200 -9.940300 -29.022100
N -16.254800 -7.642500 -31.239500
N -16.098500 -9.190900 -29.551000
H -15.391700 -8.730500 -29.191200
H -14.457100 -6.753700 -30.480100
N -13.750200 -6.293300 -30.120200
N -13.593900 -7.841700 -28.431700
H -13.432600 -5.543900 -30.649100
H -13.293400 -9.092800 -26.871900
C -13.087900 -6.757800 -29.072200
C -12.919400 -8.271700 -27.374000
N -11.955300 -6.081200 -28.706600
C -11.755200 -7.647100 -26.949100
O -11.420300 -9.169700 -25.254100
C -11.306700 -6.538500 -27.645900
N -11.044500 -8.120900 -25.775600
H -10.480800 -6.037300 -27.323400
O -10.092400 -7.467000 -25.364400
