14
Fragment
O -19.756300 -8.017200 -34.306800
H -19.367900 -9.446900 -32.347800
N -18.804300 -7.363300 -33.895600
C -18.542000 -8.945700 -32.025300
O -18.428500 -6.314500 -34.417200
C -18.093500 -7.837100 -32.722100
N -17.893400 -9.403000 -30.964600
C -16.929400 -7.212500 -32.297200
C -16.760900 -8.726400 -30.599000
H -16.555400 -6.391400 -32.799300
H -16.416200 -9.940300 -29.022100
N -16.254800 -7.642500 -31.239500
N -16.098500 -9.190900 -29.551000
H -15.391700 -8.730500 -29.191200
15
Fragment
H -26.162100 -14.565500 -32.825100
H -25.643800 -12.508100 -34.366600
C -25.317800 -13.981700 -32.765900
C -25.054400 -12.915400 -33.601900
N -24.543000 -14.357000 -31.751100
C -23.898800 -12.203100 -33.391400
H -23.581400 -11.308600 -33.931000
C -23.397500 -13.668400 -31.506200
C -23.045500 -12.573200 -32.344600
H -22.983800 -14.817300 -30.038500
N -22.702200 -14.092200 -30.445800
H -21.974800 -13.761800 -30.269200
N -21.845200 -11.805700 -32.144700
O -21.626600 -10.830700 -32.860700
O -21.056400 -12.143200 -31.256400
29
Fragment
O -19.756300 -8.017200 -34.306800
H -19.367900 -9.446900 -32.347800
N -18.804300 -7.363300 -33.895600
C -18.542000 -8.945700 -32.025300
O -18.428500 -6.314500 -34.417200
C -18.093500 -7.837100 -32.722100
N -17.893400 -9.403000 -30.964600
C -16.929400 -7.212500 -32.297200
C -16.760900 -8.726400 -30.599000
H -16.555400 -6.391400 -32.799300
H -16.416200 -9.940300 -29.022100
N -16.254800 -7.642500 -31.239500
N -16.098500 -9.190900 -29.551000
H -15.391700 -8.730500 -29.191200
H -26.162100 -14.565500 -32.825100
H -25.643800 -12.508100 -34.366600
C -25.317800 -13.981700 -32.765900
C -25.054400 -12.915400 -33.601900
N -24.543000 -14.357000 -31.751100
C -23.898800 -12.203100 -33.391400
H -23.581400 -11.308600 -33.931000
C -23.397500 -13.668400 -31.506200
C -23.045500 -12.573200 -32.344600
H -22.983800 -14.817300 -30.038500
N -22.702200 -14.092200 -30.445800
H -21.974800 -13.761800 -30.269200
N -21.845200 -11.805700 -32.144700
O -21.626600 -10.830700 -32.860700
O -21.056400 -12.143200 -31.256400
