14
Fragment
O -19.756300 -8.017200 -34.306800
H -19.367900 -9.446900 -32.347800
N -18.804300 -7.363300 -33.895600
C -18.542000 -8.945700 -32.025300
O -18.428500 -6.314500 -34.417200
C -18.093500 -7.837100 -32.722100
N -17.893400 -9.403000 -30.964600
C -16.929400 -7.212500 -32.297200
C -16.760900 -8.726400 -30.599000
H -16.555400 -6.391400 -32.799300
H -16.416200 -9.940300 -29.022100
N -16.254800 -7.642500 -31.239500
N -16.098500 -9.190900 -29.551000
H -15.391700 -8.730500 -29.191200
14
Fragment
O -19.756300 -13.178600 -34.306800
H -19.367900 -14.608300 -32.347800
N -18.804300 -12.524700 -33.895600
C -18.542000 -14.107100 -32.025300
O -18.428500 -11.475900 -34.417200
C -18.093500 -12.998500 -32.722100
N -17.893400 -14.564400 -30.964600
C -16.929400 -12.373900 -32.297200
C -16.760900 -13.887800 -30.599000
H -16.555400 -11.552800 -32.799300
H -16.416200 -15.101700 -29.022100
N -16.254800 -12.803900 -31.239500
N -16.098500 -14.352300 -29.551000
H -15.391700 -13.891900 -29.191200
28
Fragment
O -19.756300 -8.017200 -34.306800
H -19.367900 -9.446900 -32.347800
N -18.804300 -7.363300 -33.895600
C -18.542000 -8.945700 -32.025300
O -18.428500 -6.314500 -34.417200
C -18.093500 -7.837100 -32.722100
N -17.893400 -9.403000 -30.964600
C -16.929400 -7.212500 -32.297200
C -16.760900 -8.726400 -30.599000
H -16.555400 -6.391400 -32.799300
H -16.416200 -9.940300 -29.022100
N -16.254800 -7.642500 -31.239500
N -16.098500 -9.190900 -29.551000
H -15.391700 -8.730500 -29.191200
O -19.756300 -13.178600 -34.306800
H -19.367900 -14.608300 -32.347800
N -18.804300 -12.524700 -33.895600
C -18.542000 -14.107100 -32.025300
O -18.428500 -11.475900 -34.417200
C -18.093500 -12.998500 -32.722100
N -17.893400 -14.564400 -30.964600
C -16.929400 -12.373900 -32.297200
C -16.760900 -13.887800 -30.599000
H -16.555400 -11.552800 -32.799300
H -16.416200 -15.101700 -29.022100
N -16.254800 -12.803900 -31.239500
N -16.098500 -14.352300 -29.551000
H -15.391700 -13.891900 -29.191200
