20
Fragment
N -21.681100 -11.964900 -12.720700
N -21.487700 -13.196900 -12.997200
H -21.458400 -9.546700 -13.123200
N -20.624600 -11.265900 -13.215400
C -20.594600 -9.802700 -13.104200
H -20.410200 -9.793600 -10.983700
N -20.306000 -13.311500 -13.662300
H -20.172200 -8.369100 -11.672100
H -20.118800 -9.551600 -13.854000
H -20.102000 -14.075000 -14.034100
C -20.037600 -9.311500 -11.792900
C -19.741700 -12.099000 -13.807400
N -18.636200 -11.620800 -14.382600
O -18.577300 -9.597600 -11.828900
O -18.548600 -8.497200 -9.908600
O -17.960200 -13.768700 -14.678100
N -17.928600 -9.041000 -10.800400
N -17.785800 -12.559000 -14.867700
O -16.802600 -12.103200 -15.483100
O -16.724100 -9.167100 -10.892600
20
Fragment
O -17.786700 -19.751100 -20.882800
O -17.708200 -16.815000 -16.292300
N -16.725000 -16.359200 -16.907700
N -16.582100 -19.877200 -20.974900
O -16.550600 -15.149500 -17.097300
O -15.962200 -20.421000 -21.866700
O -15.933500 -19.320600 -19.946400
N -15.874600 -17.297400 -17.392800
C -14.769100 -16.819300 -17.967900
C -14.473200 -19.606700 -19.982500
H -14.408700 -14.843200 -17.741200
H -14.392000 -19.366600 -17.921300
H -14.338600 -20.549100 -20.103200
N -14.204800 -15.606700 -18.113000
H -14.100600 -19.124600 -20.791700
C -13.916200 -19.115600 -18.671200
N -13.886200 -17.652400 -18.560000
H -13.052400 -19.371600 -18.652100
N -13.023100 -15.721300 -18.778200
N -12.829600 -16.953300 -19.054600
40
Fragment
N -21.681100 -11.964900 -12.720700
N -21.487700 -13.196900 -12.997200
H -21.458400 -9.546700 -13.123200
N -20.624600 -11.265900 -13.215400
C -20.594600 -9.802700 -13.104200
H -20.410200 -9.793600 -10.983700
N -20.306000 -13.311500 -13.662300
H -20.172200 -8.369100 -11.672100
H -20.118800 -9.551600 -13.854000
H -20.102000 -14.075000 -14.034100
C -20.037600 -9.311500 -11.792900
C -19.741700 -12.099000 -13.807400
N -18.636200 -11.620800 -14.382600
O -18.577300 -9.597600 -11.828900
O -18.548600 -8.497200 -9.908600
O -17.960200 -13.768700 -14.678100
N -17.928600 -9.041000 -10.800400
N -17.785800 -12.559000 -14.867700
O -16.802600 -12.103200 -15.483100
O -16.724100 -9.167100 -10.892600
O -17.786700 -19.751100 -20.882800
O -17.708200 -16.815000 -16.292300
N -16.725000 -16.359200 -16.907700
N -16.582100 -19.877200 -20.974900
O -16.550600 -15.149500 -17.097300
O -15.962200 -20.421000 -21.866700
O -15.933500 -19.320600 -19.946400
N -15.874600 -17.297400 -17.392800
C -14.769100 -16.819300 -17.967900
C -14.473200 -19.606700 -19.982500
H -14.408700 -14.843200 -17.741200
H -14.392000 -19.366600 -17.921300
H -14.338600 -20.549100 -20.103200
N -14.204800 -15.606700 -18.113000
H -14.100600 -19.124600 -20.791700
C -13.916200 -19.115600 -18.671200
N -13.886200 -17.652400 -18.560000
H -13.052400 -19.371600 -18.652100
N -13.023100 -15.721300 -18.778200
N -12.829600 -16.953300 -19.054600
