20
Fragment
N -21.681100 -11.964900 -12.720700
N -21.487700 -13.196900 -12.997200
H -21.458400 -9.546700 -13.123200
N -20.624600 -11.265900 -13.215400
C -20.594600 -9.802700 -13.104200
H -20.410200 -9.793600 -10.983700
N -20.306000 -13.311500 -13.662300
H -20.172200 -8.369100 -11.672100
H -20.118800 -9.551600 -13.854000
H -20.102000 -14.075000 -14.034100
C -20.037600 -9.311500 -11.792900
C -19.741700 -12.099000 -13.807400
N -18.636200 -11.620800 -14.382600
O -18.577300 -9.597600 -11.828900
O -18.548600 -8.497200 -9.908600
O -17.960200 -13.768700 -14.678100
N -17.928600 -9.041000 -10.800400
N -17.785800 -12.559000 -14.867700
O -16.802600 -12.103200 -15.483100
O -16.724100 -9.167100 -10.892600
20
Fragment
O -23.343100 -5.710300 -10.291000
O -23.264600 -2.774200 -5.700500
N -22.281400 -2.318400 -6.315900
N -22.138600 -5.836400 -10.383100
O -22.107000 -1.108700 -6.505500
O -21.518600 -6.380200 -11.275000
O -21.489900 -5.279800 -9.354700
N -21.431000 -3.256600 -6.801000
C -20.325500 -2.778500 -7.376100
C -20.029600 -5.565900 -9.390700
H -19.965200 -0.802400 -7.149500
H -19.948400 -5.325900 -7.329500
H -19.895000 -6.508300 -9.511400
N -19.761200 -1.565900 -7.521200
H -19.657000 -5.083800 -10.199900
C -19.472700 -5.074800 -8.079400
N -19.442700 -3.611600 -7.968200
H -18.608800 -5.330800 -8.060300
N -18.579500 -1.680500 -8.186400
N -18.386100 -2.912500 -8.462800
40
Fragment
N -21.681100 -11.964900 -12.720700
N -21.487700 -13.196900 -12.997200
H -21.458400 -9.546700 -13.123200
N -20.624600 -11.265900 -13.215400
C -20.594600 -9.802700 -13.104200
H -20.410200 -9.793600 -10.983700
N -20.306000 -13.311500 -13.662300
H -20.172200 -8.369100 -11.672100
H -20.118800 -9.551600 -13.854000
H -20.102000 -14.075000 -14.034100
C -20.037600 -9.311500 -11.792900
C -19.741700 -12.099000 -13.807400
N -18.636200 -11.620800 -14.382600
O -18.577300 -9.597600 -11.828900
O -18.548600 -8.497200 -9.908600
O -17.960200 -13.768700 -14.678100
N -17.928600 -9.041000 -10.800400
N -17.785800 -12.559000 -14.867700
O -16.802600 -12.103200 -15.483100
O -16.724100 -9.167100 -10.892600
O -23.343100 -5.710300 -10.291000
O -23.264600 -2.774200 -5.700500
N -22.281400 -2.318400 -6.315900
N -22.138600 -5.836400 -10.383100
O -22.107000 -1.108700 -6.505500
O -21.518600 -6.380200 -11.275000
O -21.489900 -5.279800 -9.354700
N -21.431000 -3.256600 -6.801000
C -20.325500 -2.778500 -7.376100
C -20.029600 -5.565900 -9.390700
H -19.965200 -0.802400 -7.149500
H -19.948400 -5.325900 -7.329500
H -19.895000 -6.508300 -9.511400
N -19.761200 -1.565900 -7.521200
H -19.657000 -5.083800 -10.199900
C -19.472700 -5.074800 -8.079400
N -19.442700 -3.611600 -7.968200
H -18.608800 -5.330800 -8.060300
N -18.579500 -1.680500 -8.186400
N -18.386100 -2.912500 -8.462800
