20
Fragment
N -21.681100 -11.964900 -12.720700
N -21.487700 -13.196900 -12.997200
H -21.458400 -9.546700 -13.123200
N -20.624600 -11.265900 -13.215400
C -20.594600 -9.802700 -13.104200
H -20.410200 -9.793600 -10.983700
N -20.306000 -13.311500 -13.662300
H -20.172200 -8.369100 -11.672100
H -20.118800 -9.551600 -13.854000
H -20.102000 -14.075000 -14.034100
C -20.037600 -9.311500 -11.792900
C -19.741700 -12.099000 -13.807400
N -18.636200 -11.620800 -14.382600
O -18.577300 -9.597600 -11.828900
O -18.548600 -8.497200 -9.908600
O -17.960200 -13.768700 -14.678100
N -17.928600 -9.041000 -10.800400
N -17.785800 -12.559000 -14.867700
O -16.802600 -12.103200 -15.483100
O -16.724100 -9.167100 -10.892600
20
Fragment
N -25.137500 -5.362900 -12.720700
N -24.944100 -6.594900 -12.997200
H -24.914800 -2.944600 -13.123200
N -24.081000 -4.663800 -13.215400
C -24.051000 -3.200600 -13.104200
H -23.866600 -3.191600 -10.983700
N -23.762400 -6.709500 -13.662300
H -23.628600 -1.767100 -11.672100
H -23.575200 -2.949500 -13.854000
H -23.558400 -7.473000 -14.034100
C -23.494000 -2.709500 -11.792900
C -23.198100 -5.496900 -13.807400
N -22.092600 -5.018800 -14.382600
O -22.033700 -2.995600 -11.828900
O -22.005000 -1.895200 -9.908600
O -21.416600 -7.166700 -14.678100
N -21.385000 -2.439000 -10.800400
N -21.242200 -5.957000 -14.867700
O -20.259000 -5.501200 -15.483100
O -20.180500 -2.565100 -10.892600
40
Fragment
N -21.681100 -11.964900 -12.720700
N -21.487700 -13.196900 -12.997200
H -21.458400 -9.546700 -13.123200
N -20.624600 -11.265900 -13.215400
C -20.594600 -9.802700 -13.104200
H -20.410200 -9.793600 -10.983700
N -20.306000 -13.311500 -13.662300
H -20.172200 -8.369100 -11.672100
H -20.118800 -9.551600 -13.854000
H -20.102000 -14.075000 -14.034100
C -20.037600 -9.311500 -11.792900
C -19.741700 -12.099000 -13.807400
N -18.636200 -11.620800 -14.382600
O -18.577300 -9.597600 -11.828900
O -18.548600 -8.497200 -9.908600
O -17.960200 -13.768700 -14.678100
N -17.928600 -9.041000 -10.800400
N -17.785800 -12.559000 -14.867700
O -16.802600 -12.103200 -15.483100
O -16.724100 -9.167100 -10.892600
N -25.137500 -5.362900 -12.720700
N -24.944100 -6.594900 -12.997200
H -24.914800 -2.944600 -13.123200
N -24.081000 -4.663800 -13.215400
C -24.051000 -3.200600 -13.104200
H -23.866600 -3.191600 -10.983700
N -23.762400 -6.709500 -13.662300
H -23.628600 -1.767100 -11.672100
H -23.575200 -2.949500 -13.854000
H -23.558400 -7.473000 -14.034100
C -23.494000 -2.709500 -11.792900
C -23.198100 -5.496900 -13.807400
N -22.092600 -5.018800 -14.382600
O -22.033700 -2.995600 -11.828900
O -22.005000 -1.895200 -9.908600
O -21.416600 -7.166700 -14.678100
N -21.385000 -2.439000 -10.800400
N -21.242200 -5.957000 -14.867700
O -20.259000 -5.501200 -15.483100
O -20.180500 -2.565100 -10.892600
