20
Fragment
N -21.681100 -11.964900 -12.720700
N -21.487700 -13.196900 -12.997200
H -21.458400 -9.546700 -13.123200
N -20.624600 -11.265900 -13.215400
C -20.594600 -9.802700 -13.104200
H -20.410200 -9.793600 -10.983700
N -20.306000 -13.311500 -13.662300
H -20.172200 -8.369100 -11.672100
H -20.118800 -9.551600 -13.854000
H -20.102000 -14.075000 -14.034100
C -20.037600 -9.311500 -11.792900
C -19.741700 -12.099000 -13.807400
N -18.636200 -11.620800 -14.382600
O -18.577300 -9.597600 -11.828900
O -18.548600 -8.497200 -9.908600
O -17.960200 -13.768700 -14.678100
N -17.928600 -9.041000 -10.800400
N -17.785800 -12.559000 -14.867700
O -16.802600 -12.103200 -15.483100
O -16.724100 -9.167100 -10.892600
20
Fragment
N -18.224800 -18.567000 -12.720700
N -18.031300 -19.799000 -12.997200
H -18.002000 -16.148700 -13.123200
N -17.168200 -17.867900 -13.215400
C -17.138200 -16.404700 -13.104200
H -16.953800 -16.395700 -10.983700
N -16.849600 -19.913600 -13.662300
H -16.715800 -14.971200 -11.672100
H -16.662400 -16.153700 -13.854000
H -16.645700 -20.677100 -14.034100
C -16.581200 -15.913600 -11.792900
C -16.285300 -18.701000 -13.807400
N -15.179800 -18.222900 -14.382600
O -15.120900 -16.199700 -11.828900
O -15.092200 -15.099300 -9.908600
O -14.503800 -20.370800 -14.678100
N -14.472300 -15.643100 -10.800400
N -14.329400 -19.161100 -14.867700
O -13.346200 -18.705300 -15.483100
O -13.267700 -15.769200 -10.892600
40
Fragment
N -21.681100 -11.964900 -12.720700
N -21.487700 -13.196900 -12.997200
H -21.458400 -9.546700 -13.123200
N -20.624600 -11.265900 -13.215400
C -20.594600 -9.802700 -13.104200
H -20.410200 -9.793600 -10.983700
N -20.306000 -13.311500 -13.662300
H -20.172200 -8.369100 -11.672100
H -20.118800 -9.551600 -13.854000
H -20.102000 -14.075000 -14.034100
C -20.037600 -9.311500 -11.792900
C -19.741700 -12.099000 -13.807400
N -18.636200 -11.620800 -14.382600
O -18.577300 -9.597600 -11.828900
O -18.548600 -8.497200 -9.908600
O -17.960200 -13.768700 -14.678100
N -17.928600 -9.041000 -10.800400
N -17.785800 -12.559000 -14.867700
O -16.802600 -12.103200 -15.483100
O -16.724100 -9.167100 -10.892600
N -18.224800 -18.567000 -12.720700
N -18.031300 -19.799000 -12.997200
H -18.002000 -16.148700 -13.123200
N -17.168200 -17.867900 -13.215400
C -17.138200 -16.404700 -13.104200
H -16.953800 -16.395700 -10.983700
N -16.849600 -19.913600 -13.662300
H -16.715800 -14.971200 -11.672100
H -16.662400 -16.153700 -13.854000
H -16.645700 -20.677100 -14.034100
C -16.581200 -15.913600 -11.792900
C -16.285300 -18.701000 -13.807400
N -15.179800 -18.222900 -14.382600
O -15.120900 -16.199700 -11.828900
O -15.092200 -15.099300 -9.908600
O -14.503800 -20.370800 -14.678100
N -14.472300 -15.643100 -10.800400
N -14.329400 -19.161100 -14.867700
O -13.346200 -18.705300 -15.483100
O -13.267700 -15.769200 -10.892600
