23
Fragment
H -17.002800 -19.293700 -16.368300
H -16.583200 -21.820300 -16.520700
C -16.234600 -19.729400 -16.717600
C -15.999700 -21.128200 -16.806900
O -15.586100 -16.936500 -17.033600
C -15.128500 -19.152800 -17.238100
C -14.774000 -21.281800 -17.383900
N -14.757900 -17.790300 -17.389100
O -14.675700 -26.351000 -16.842900
N -14.334500 -23.593300 -17.456600
O -14.213100 -20.058900 -17.661500
C -13.948600 -22.406700 -17.773200
C -13.757600 -25.904800 -17.502700
O -13.660300 -17.527800 -17.860900
N -13.509800 -24.600700 -17.880100
H -13.139800 -22.270700 -18.251800
N -12.698900 -26.650900 -18.026500
H -12.661900 -27.524800 -17.891400
H -12.419700 -24.095600 -19.536500
C -12.259600 -24.454900 -18.628000
C -11.770100 -25.891100 -18.675500
H -11.618300 -23.869500 -18.152700
O -10.742300 -26.299200 -19.180900
25
Fragment
H -17.763100 -29.103900 -16.063400
C -16.827400 -28.815500 -16.026400
H -16.724400 -27.973400 -16.517400
H -16.562400 -28.682200 -15.092300
O -16.343100 -31.003600 -16.881200
C -15.954500 -29.868800 -16.648700
N -14.669900 -29.456600 -16.933700
H -14.536700 -28.596000 -16.853800
H -14.350600 -32.120300 -17.083600
C -13.615900 -31.630600 -17.433500
C -13.605700 -30.236100 -17.430600
N -12.554300 -29.510800 -17.874400
C -12.509000 -32.273200 -17.967500
H -12.495800 -33.222100 -18.004700
C -11.479900 -30.168000 -18.364100
C -11.422600 -31.561700 -18.447100
H -10.667600 -32.003700 -18.818000
H -10.579900 -28.400400 -18.718900
N -10.448200 -29.324900 -18.798700
C -9.205300 -29.668900 -19.278100
O -8.840700 -30.822900 -19.437200
H -8.826400 -27.677300 -19.575700
C -8.308900 -28.508300 -19.607300
H -7.937500 -28.628300 -20.506600
H -7.578400 -28.465000 -18.955100
48
Fragment
H -17.002800 -19.293700 -16.368300
H -16.583200 -21.820300 -16.520700
C -16.234600 -19.729400 -16.717600
C -15.999700 -21.128200 -16.806900
O -15.586100 -16.936500 -17.033600
C -15.128500 -19.152800 -17.238100
C -14.774000 -21.281800 -17.383900
N -14.757900 -17.790300 -17.389100
O -14.675700 -26.351000 -16.842900
N -14.334500 -23.593300 -17.456600
O -14.213100 -20.058900 -17.661500
C -13.948600 -22.406700 -17.773200
C -13.757600 -25.904800 -17.502700
O -13.660300 -17.527800 -17.860900
N -13.509800 -24.600700 -17.880100
H -13.139800 -22.270700 -18.251800
N -12.698900 -26.650900 -18.026500
H -12.661900 -27.524800 -17.891400
H -12.419700 -24.095600 -19.536500
C -12.259600 -24.454900 -18.628000
C -11.770100 -25.891100 -18.675500
H -11.618300 -23.869500 -18.152700
O -10.742300 -26.299200 -19.180900
H -17.763100 -29.103900 -16.063400
C -16.827400 -28.815500 -16.026400
H -16.724400 -27.973400 -16.517400
H -16.562400 -28.682200 -15.092300
O -16.343100 -31.003600 -16.881200
C -15.954500 -29.868800 -16.648700
N -14.669900 -29.456600 -16.933700
H -14.536700 -28.596000 -16.853800
H -14.350600 -32.120300 -17.083600
C -13.615900 -31.630600 -17.433500
C -13.605700 -30.236100 -17.430600
N -12.554300 -29.510800 -17.874400
C -12.509000 -32.273200 -17.967500
H -12.495800 -33.222100 -18.004700
C -11.479900 -30.168000 -18.364100
C -11.422600 -31.561700 -18.447100
H -10.667600 -32.003700 -18.818000
H -10.579900 -28.400400 -18.718900
N -10.448200 -29.324900 -18.798700
C -9.205300 -29.668900 -19.278100
O -8.840700 -30.822900 -19.437200
H -8.826400 -27.677300 -19.575700
C -8.308900 -28.508300 -19.607300
H -7.937500 -28.628300 -20.506600
H -7.578400 -28.465000 -18.955100
