23
Fragment
H -17.002800 -19.293700 -16.368300
H -16.583200 -21.820300 -16.520700
C -16.234600 -19.729400 -16.717600
C -15.999700 -21.128200 -16.806900
O -15.586100 -16.936500 -17.033600
C -15.128500 -19.152800 -17.238100
C -14.774000 -21.281800 -17.383900
N -14.757900 -17.790300 -17.389100
O -14.675700 -26.351000 -16.842900
N -14.334500 -23.593300 -17.456600
O -14.213100 -20.058900 -17.661500
C -13.948600 -22.406700 -17.773200
C -13.757600 -25.904800 -17.502700
O -13.660300 -17.527800 -17.860900
N -13.509800 -24.600700 -17.880100
H -13.139800 -22.270700 -18.251800
N -12.698900 -26.650900 -18.026500
H -12.661900 -27.524800 -17.891400
H -12.419700 -24.095600 -19.536500
C -12.259600 -24.454900 -18.628000
C -11.770100 -25.891100 -18.675500
H -11.618300 -23.869500 -18.152700
O -10.742300 -26.299200 -19.180900
25
Fragment
H -27.287500 -25.367900 -13.707400
H -26.928400 -25.204600 -12.155900
C -26.557000 -25.324600 -13.055200
H -26.039600 -26.155600 -13.086800
O -26.025200 -23.010000 -13.225300
C -25.660700 -24.164000 -13.384400
N -24.417700 -24.508000 -13.863800
H -24.286100 -25.432500 -13.943600
H -24.198400 -21.829200 -13.844500
C -23.443300 -22.271200 -14.215400
C -23.386000 -23.664900 -14.298400
H -22.370200 -20.610800 -14.657800
C -22.357000 -21.559700 -14.695000
N -22.311600 -24.322100 -14.788100
C -21.260200 -23.596800 -15.231900
C -21.250100 -22.202300 -15.229000
H -20.515300 -21.712600 -15.578900
H -20.329200 -25.236900 -15.808600
N -20.196000 -24.376300 -15.728800
C -18.911500 -23.964100 -16.013800
O -18.522900 -22.829300 -15.781300
H -18.303500 -25.150700 -17.570200
H -18.141500 -25.859500 -16.145100
C -18.038500 -25.017400 -16.636100
H -17.102800 -24.729000 -16.599100
48
Fragment
H -17.002800 -19.293700 -16.368300
H -16.583200 -21.820300 -16.520700
C -16.234600 -19.729400 -16.717600
C -15.999700 -21.128200 -16.806900
O -15.586100 -16.936500 -17.033600
C -15.128500 -19.152800 -17.238100
C -14.774000 -21.281800 -17.383900
N -14.757900 -17.790300 -17.389100
O -14.675700 -26.351000 -16.842900
N -14.334500 -23.593300 -17.456600
O -14.213100 -20.058900 -17.661500
C -13.948600 -22.406700 -17.773200
C -13.757600 -25.904800 -17.502700
O -13.660300 -17.527800 -17.860900
N -13.509800 -24.600700 -17.880100
H -13.139800 -22.270700 -18.251800
N -12.698900 -26.650900 -18.026500
H -12.661900 -27.524800 -17.891400
H -12.419700 -24.095600 -19.536500
C -12.259600 -24.454900 -18.628000
C -11.770100 -25.891100 -18.675500
H -11.618300 -23.869500 -18.152700
O -10.742300 -26.299200 -19.180900
H -27.287500 -25.367900 -13.707400
H -26.928400 -25.204600 -12.155900
C -26.557000 -25.324600 -13.055200
H -26.039600 -26.155600 -13.086800
O -26.025200 -23.010000 -13.225300
C -25.660700 -24.164000 -13.384400
N -24.417700 -24.508000 -13.863800
H -24.286100 -25.432500 -13.943600
H -24.198400 -21.829200 -13.844500
C -23.443300 -22.271200 -14.215400
C -23.386000 -23.664900 -14.298400
H -22.370200 -20.610800 -14.657800
C -22.357000 -21.559700 -14.695000
N -22.311600 -24.322100 -14.788100
C -21.260200 -23.596800 -15.231900
C -21.250100 -22.202300 -15.229000
H -20.515300 -21.712600 -15.578900
H -20.329200 -25.236900 -15.808600
N -20.196000 -24.376300 -15.728800
C -18.911500 -23.964100 -16.013800
O -18.522900 -22.829300 -15.781300
H -18.303500 -25.150700 -17.570200
H -18.141500 -25.859500 -16.145100
C -18.038500 -25.017400 -16.636100
H -17.102800 -24.729000 -16.599100
