23
Fragment
H -17.002800 -19.293700 -16.368300
H -16.583200 -21.820300 -16.520700
C -16.234600 -19.729400 -16.717600
C -15.999700 -21.128200 -16.806900
O -15.586100 -16.936500 -17.033600
C -15.128500 -19.152800 -17.238100
C -14.774000 -21.281800 -17.383900
N -14.757900 -17.790300 -17.389100
O -14.675700 -26.351000 -16.842900
N -14.334500 -23.593300 -17.456600
O -14.213100 -20.058900 -17.661500
C -13.948600 -22.406700 -17.773200
C -13.757600 -25.904800 -17.502700
O -13.660300 -17.527800 -17.860900
N -13.509800 -24.600700 -17.880100
H -13.139800 -22.270700 -18.251800
N -12.698900 -26.650900 -18.026500
H -12.661900 -27.524800 -17.891400
H -12.419700 -24.095600 -19.536500
C -12.259600 -24.454900 -18.628000
C -11.770100 -25.891100 -18.675500
H -11.618300 -23.869500 -18.152700
O -10.742300 -26.299200 -19.180900
23
Fragment
O -18.453800 -17.327000 -18.925300
H -17.577900 -14.897400 -19.953500
C -17.426100 -16.919000 -19.430700
C -16.936500 -15.482700 -19.478300
H -16.776400 -15.123500 -18.569700
H -16.534200 -18.552600 -20.214800
N -16.497200 -17.678700 -20.079700
H -16.056300 -13.298500 -19.854400
N -15.686300 -15.628600 -20.226100
O -15.535800 -8.555700 -20.245300
C -15.438500 -16.932600 -20.603500
C -15.247500 -13.434500 -20.333100
O -14.983000 -11.086700 -20.444800
N -14.861600 -14.621200 -20.649700
O -14.520400 -17.378900 -21.263400
N -14.438200 -8.818200 -20.717200
C -14.422100 -12.309600 -20.722400
C -14.067600 -10.180700 -20.868200
O -13.610000 -7.964400 -21.072600
C -13.196400 -12.156000 -21.299300
C -12.961500 -10.757200 -21.388600
H -12.612900 -12.848100 -21.585600
H -12.193400 -10.321600 -21.738000
46
Fragment
H -17.002800 -19.293700 -16.368300
H -16.583200 -21.820300 -16.520700
C -16.234600 -19.729400 -16.717600
C -15.999700 -21.128200 -16.806900
O -15.586100 -16.936500 -17.033600
C -15.128500 -19.152800 -17.238100
C -14.774000 -21.281800 -17.383900
N -14.757900 -17.790300 -17.389100
O -14.675700 -26.351000 -16.842900
N -14.334500 -23.593300 -17.456600
O -14.213100 -20.058900 -17.661500
C -13.948600 -22.406700 -17.773200
C -13.757600 -25.904800 -17.502700
O -13.660300 -17.527800 -17.860900
N -13.509800 -24.600700 -17.880100
H -13.139800 -22.270700 -18.251800
N -12.698900 -26.650900 -18.026500
H -12.661900 -27.524800 -17.891400
H -12.419700 -24.095600 -19.536500
C -12.259600 -24.454900 -18.628000
C -11.770100 -25.891100 -18.675500
H -11.618300 -23.869500 -18.152700
O -10.742300 -26.299200 -19.180900
O -18.453800 -17.327000 -18.925300
H -17.577900 -14.897400 -19.953500
C -17.426100 -16.919000 -19.430700
C -16.936500 -15.482700 -19.478300
H -16.776400 -15.123500 -18.569700
H -16.534200 -18.552600 -20.214800
N -16.497200 -17.678700 -20.079700
H -16.056300 -13.298500 -19.854400
N -15.686300 -15.628600 -20.226100
O -15.535800 -8.555700 -20.245300
C -15.438500 -16.932600 -20.603500
C -15.247500 -13.434500 -20.333100
O -14.983000 -11.086700 -20.444800
N -14.861600 -14.621200 -20.649700
O -14.520400 -17.378900 -21.263400
N -14.438200 -8.818200 -20.717200
C -14.422100 -12.309600 -20.722400
C -14.067600 -10.180700 -20.868200
O -13.610000 -7.964400 -21.072600
C -13.196400 -12.156000 -21.299300
C -12.961500 -10.757200 -21.388600
H -12.612900 -12.848100 -21.585600
H -12.193400 -10.321600 -21.738000
