23
Fragment
H -17.002800 -19.293700 -16.368300
H -16.583200 -21.820300 -16.520700
C -16.234600 -19.729400 -16.717600
C -15.999700 -21.128200 -16.806900
O -15.586100 -16.936500 -17.033600
C -15.128500 -19.152800 -17.238100
C -14.774000 -21.281800 -17.383900
N -14.757900 -17.790300 -17.389100
O -14.675700 -26.351000 -16.842900
N -14.334500 -23.593300 -17.456600
O -14.213100 -20.058900 -17.661500
C -13.948600 -22.406700 -17.773200
C -13.757600 -25.904800 -17.502700
O -13.660300 -17.527800 -17.860900
N -13.509800 -24.600700 -17.880100
H -13.139800 -22.270700 -18.251800
N -12.698900 -26.650900 -18.026500
H -12.661900 -27.524800 -17.891400
H -12.419700 -24.095600 -19.536500
C -12.259600 -24.454900 -18.628000
C -11.770100 -25.891100 -18.675500
H -11.618300 -23.869500 -18.152700
O -10.742300 -26.299200 -19.180900
23
Fragment
H -11.332900 -25.567000 -21.812000
H -10.913400 -23.040500 -21.964400
C -10.564800 -25.131400 -22.161400
C -10.329900 -23.732600 -22.250700
O -9.916300 -27.924200 -22.477400
C -9.458700 -25.707900 -22.681800
C -9.104200 -23.579000 -22.827600
N -9.088100 -27.070400 -22.832800
O -9.005900 -18.509700 -22.286600
N -8.664700 -21.267400 -22.900300
O -8.543300 -24.801900 -23.105200
C -8.278800 -22.454100 -23.216900
C -8.087700 -18.956000 -22.946500
O -7.990500 -27.332900 -23.304700
N -7.840000 -20.260000 -23.323900
H -7.469900 -22.590100 -23.695600
N -7.029100 -18.209900 -23.470300
H -6.992100 -17.336000 -23.335200
H -6.749900 -20.765100 -24.980300
C -6.589800 -20.405900 -24.071700
C -6.100200 -18.969600 -24.119300
H -5.948400 -20.991200 -23.596500
O -5.072500 -18.561600 -24.624700
46
Fragment
H -17.002800 -19.293700 -16.368300
H -16.583200 -21.820300 -16.520700
C -16.234600 -19.729400 -16.717600
C -15.999700 -21.128200 -16.806900
O -15.586100 -16.936500 -17.033600
C -15.128500 -19.152800 -17.238100
C -14.774000 -21.281800 -17.383900
N -14.757900 -17.790300 -17.389100
O -14.675700 -26.351000 -16.842900
N -14.334500 -23.593300 -17.456600
O -14.213100 -20.058900 -17.661500
C -13.948600 -22.406700 -17.773200
C -13.757600 -25.904800 -17.502700
O -13.660300 -17.527800 -17.860900
N -13.509800 -24.600700 -17.880100
H -13.139800 -22.270700 -18.251800
N -12.698900 -26.650900 -18.026500
H -12.661900 -27.524800 -17.891400
H -12.419700 -24.095600 -19.536500
C -12.259600 -24.454900 -18.628000
C -11.770100 -25.891100 -18.675500
H -11.618300 -23.869500 -18.152700
O -10.742300 -26.299200 -19.180900
H -11.332900 -25.567000 -21.812000
H -10.913400 -23.040500 -21.964400
C -10.564800 -25.131400 -22.161400
C -10.329900 -23.732600 -22.250700
O -9.916300 -27.924200 -22.477400
C -9.458700 -25.707900 -22.681800
C -9.104200 -23.579000 -22.827600
N -9.088100 -27.070400 -22.832800
O -9.005900 -18.509700 -22.286600
N -8.664700 -21.267400 -22.900300
O -8.543300 -24.801900 -23.105200
C -8.278800 -22.454100 -23.216900
C -8.087700 -18.956000 -22.946500
O -7.990500 -27.332900 -23.304700
N -7.840000 -20.260000 -23.323900
H -7.469900 -22.590100 -23.695600
N -7.029100 -18.209900 -23.470300
H -6.992100 -17.336000 -23.335200
H -6.749900 -20.765100 -24.980300
C -6.589800 -20.405900 -24.071700
C -6.100200 -18.969600 -24.119300
H -5.948400 -20.991200 -23.596500
O -5.072500 -18.561600 -24.624700
