32
Fragment
H -5.929900 -11.014800 -12.007700
H -5.929900 -10.742200 -14.331500
H -5.900700 -11.252200 -9.997600
H -5.864400 -11.504700 -7.666000
C -5.600900 -10.036900 -13.769700
C -5.596100 -10.196800 -12.383400
C -5.562700 -10.536800 -9.453700
C -5.544800 -10.691200 -8.063400
H -5.143100 -8.775600 -15.286100
C -5.138400 -8.876300 -14.331300
C -5.124600 -9.209900 -11.533400
C -5.107300 -9.380300 -10.069800
C -5.073400 -9.686300 -7.274400
H -5.063800 -9.800300 -6.321300
C -4.654900 -7.830200 -13.521700
C -4.636300 -7.990600 -12.099500
C -4.616900 -8.317000 -9.256400
C -4.598300 -8.477400 -7.834100
H -4.189400 -6.507300 -15.034500
C -4.179800 -6.621300 -14.081400
C -4.146000 -6.927300 -11.286000
C -4.128600 -7.097700 -9.822400
C -4.114800 -7.431300 -7.024500
H -4.110100 -7.532000 -6.069700
C -3.708400 -5.616400 -13.292400
C -3.690500 -5.770800 -11.902100
C -3.657100 -6.110800 -8.972400
C -3.652300 -6.270700 -7.586100
H -3.388800 -4.802900 -13.689800
H -3.352600 -5.055400 -11.358200
H -3.323300 -5.565400 -7.024400
H -3.323300 -5.292800 -9.348100
20
Fragment
N -4.332800 -5.098900 -4.505800
F -4.318400 -5.712900 -1.537900
F -4.303000 -6.001200 1.051000
N -4.262100 -6.075900 4.074700
C -3.956500 -4.335600 -3.736900
C -3.918800 -5.154100 3.490500
C -3.907700 -4.678500 -0.790700
C -3.897600 -4.829000 0.545200
C -3.495300 -3.324100 -2.833400
C -3.482600 -3.476800 -1.455000
C -3.479200 -3.804400 1.455000
C -3.466500 -3.957200 2.833400
C -3.064200 -2.452200 -0.545200
C -3.054100 -2.602700 0.790700
C -3.043000 -2.127100 -3.490500
C -3.005400 -2.945600 3.736900
N -2.699700 -1.205300 -4.074700
F -2.658800 -1.280000 -1.051000
F -2.643400 -1.568300 1.537900
N -2.629100 -2.182300 4.505800
52
Fragment
H -5.929900 -11.014800 -12.007700
H -5.929900 -10.742200 -14.331500
H -5.900700 -11.252200 -9.997600
H -5.864400 -11.504700 -7.666000
C -5.600900 -10.036900 -13.769700
C -5.596100 -10.196800 -12.383400
C -5.562700 -10.536800 -9.453700
C -5.544800 -10.691200 -8.063400
H -5.143100 -8.775600 -15.286100
C -5.138400 -8.876300 -14.331300
C -5.124600 -9.209900 -11.533400
C -5.107300 -9.380300 -10.069800
C -5.073400 -9.686300 -7.274400
H -5.063800 -9.800300 -6.321300
C -4.654900 -7.830200 -13.521700
C -4.636300 -7.990600 -12.099500
C -4.616900 -8.317000 -9.256400
C -4.598300 -8.477400 -7.834100
H -4.189400 -6.507300 -15.034500
C -4.179800 -6.621300 -14.081400
C -4.146000 -6.927300 -11.286000
C -4.128600 -7.097700 -9.822400
C -4.114800 -7.431300 -7.024500
H -4.110100 -7.532000 -6.069700
C -3.708400 -5.616400 -13.292400
C -3.690500 -5.770800 -11.902100
C -3.657100 -6.110800 -8.972400
C -3.652300 -6.270700 -7.586100
H -3.388800 -4.802900 -13.689800
H -3.352600 -5.055400 -11.358200
H -3.323300 -5.565400 -7.024400
H -3.323300 -5.292800 -9.348100
N -4.332800 -5.098900 -4.505800
F -4.318400 -5.712900 -1.537900
F -4.303000 -6.001200 1.051000
N -4.262100 -6.075900 4.074700
C -3.956500 -4.335600 -3.736900
C -3.918800 -5.154100 3.490500
C -3.907700 -4.678500 -0.790700
C -3.897600 -4.829000 0.545200
C -3.495300 -3.324100 -2.833400
C -3.482600 -3.476800 -1.455000
C -3.479200 -3.804400 1.455000
C -3.466500 -3.957200 2.833400
C -3.064200 -2.452200 -0.545200
C -3.054100 -2.602700 0.790700
C -3.043000 -2.127100 -3.490500
C -3.005400 -2.945600 3.736900
N -2.699700 -1.205300 -4.074700
F -2.658800 -1.280000 -1.051000
F -2.643400 -1.568300 1.537900
N -2.629100 -2.182300 4.505800
