32
Fragment
H -5.929900 -11.014800 -12.007700
H -5.929900 -10.742200 -14.331500
H -5.900700 -11.252200 -9.997600
H -5.864400 -11.504700 -7.666000
C -5.600900 -10.036900 -13.769700
C -5.596100 -10.196800 -12.383400
C -5.562700 -10.536800 -9.453700
C -5.544800 -10.691200 -8.063400
H -5.143100 -8.775600 -15.286100
C -5.138400 -8.876300 -14.331300
C -5.124600 -9.209900 -11.533400
C -5.107300 -9.380300 -10.069800
C -5.073400 -9.686300 -7.274400
H -5.063800 -9.800300 -6.321300
C -4.654900 -7.830200 -13.521700
C -4.636300 -7.990600 -12.099500
C -4.616900 -8.317000 -9.256400
C -4.598300 -8.477400 -7.834100
H -4.189400 -6.507300 -15.034500
C -4.179800 -6.621300 -14.081400
C -4.146000 -6.927300 -11.286000
C -4.128600 -7.097700 -9.822400
C -4.114800 -7.431300 -7.024500
H -4.110100 -7.532000 -6.069700
C -3.708400 -5.616400 -13.292400
C -3.690500 -5.770800 -11.902100
C -3.657100 -6.110800 -8.972400
C -3.652300 -6.270700 -7.586100
H -3.388800 -4.802900 -13.689800
H -3.352600 -5.055400 -11.358200
H -3.323300 -5.565400 -7.024400
H -3.323300 -5.292800 -9.348100
20
Fragment
N -8.977900 -9.612100 -15.183700
F -8.963500 -10.226100 -12.215800
F -8.948100 -10.514400 -9.626900
N -8.907200 -10.589100 -6.603200
C -8.601600 -8.848800 -14.414800
C -8.563900 -9.667300 -7.187400
C -8.552800 -9.191700 -11.468600
C -8.542700 -9.342200 -10.132700
C -8.140400 -7.837200 -13.511300
C -8.127700 -7.990000 -12.132900
C -8.124300 -8.317600 -9.222900
C -8.111600 -8.470300 -7.844500
C -7.709300 -6.965400 -11.223100
C -7.699200 -7.115900 -9.887200
C -7.688100 -6.640300 -14.168400
C -7.650500 -7.458800 -6.941000
N -7.344800 -5.718500 -14.752600
F -7.303900 -5.793200 -11.728900
F -7.288500 -6.081500 -9.140000
N -7.274100 -6.695500 -6.172100
52
Fragment
H -5.929900 -11.014800 -12.007700
H -5.929900 -10.742200 -14.331500
H -5.900700 -11.252200 -9.997600
H -5.864400 -11.504700 -7.666000
C -5.600900 -10.036900 -13.769700
C -5.596100 -10.196800 -12.383400
C -5.562700 -10.536800 -9.453700
C -5.544800 -10.691200 -8.063400
H -5.143100 -8.775600 -15.286100
C -5.138400 -8.876300 -14.331300
C -5.124600 -9.209900 -11.533400
C -5.107300 -9.380300 -10.069800
C -5.073400 -9.686300 -7.274400
H -5.063800 -9.800300 -6.321300
C -4.654900 -7.830200 -13.521700
C -4.636300 -7.990600 -12.099500
C -4.616900 -8.317000 -9.256400
C -4.598300 -8.477400 -7.834100
H -4.189400 -6.507300 -15.034500
C -4.179800 -6.621300 -14.081400
C -4.146000 -6.927300 -11.286000
C -4.128600 -7.097700 -9.822400
C -4.114800 -7.431300 -7.024500
H -4.110100 -7.532000 -6.069700
C -3.708400 -5.616400 -13.292400
C -3.690500 -5.770800 -11.902100
C -3.657100 -6.110800 -8.972400
C -3.652300 -6.270700 -7.586100
H -3.388800 -4.802900 -13.689800
H -3.352600 -5.055400 -11.358200
H -3.323300 -5.565400 -7.024400
H -3.323300 -5.292800 -9.348100
N -8.977900 -9.612100 -15.183700
F -8.963500 -10.226100 -12.215800
F -8.948100 -10.514400 -9.626900
N -8.907200 -10.589100 -6.603200
C -8.601600 -8.848800 -14.414800
C -8.563900 -9.667300 -7.187400
C -8.552800 -9.191700 -11.468600
C -8.542700 -9.342200 -10.132700
C -8.140400 -7.837200 -13.511300
C -8.127700 -7.990000 -12.132900
C -8.124300 -8.317600 -9.222900
C -8.111600 -8.470300 -7.844500
C -7.709300 -6.965400 -11.223100
C -7.699200 -7.115900 -9.887200
C -7.688100 -6.640300 -14.168400
C -7.650500 -7.458800 -6.941000
N -7.344800 -5.718500 -14.752600
F -7.303900 -5.793200 -11.728900
F -7.288500 -6.081500 -9.140000
N -7.274100 -6.695500 -6.172100
