32
Fragment
H -5.929900 -11.014800 -12.007700
H -5.929900 -10.742200 -14.331500
H -5.900700 -11.252200 -9.997600
H -5.864400 -11.504700 -7.666000
C -5.600900 -10.036900 -13.769700
C -5.596100 -10.196800 -12.383400
C -5.562700 -10.536800 -9.453700
C -5.544800 -10.691200 -8.063400
H -5.143100 -8.775600 -15.286100
C -5.138400 -8.876300 -14.331300
C -5.124600 -9.209900 -11.533400
C -5.107300 -9.380300 -10.069800
C -5.073400 -9.686300 -7.274400
H -5.063800 -9.800300 -6.321300
C -4.654900 -7.830200 -13.521700
C -4.636300 -7.990600 -12.099500
C -4.616900 -8.317000 -9.256400
C -4.598300 -8.477400 -7.834100
H -4.189400 -6.507300 -15.034500
C -4.179800 -6.621300 -14.081400
C -4.146000 -6.927300 -11.286000
C -4.128600 -7.097700 -9.822400
C -4.114800 -7.431300 -7.024500
H -4.110100 -7.532000 -6.069700
C -3.708400 -5.616400 -13.292400
C -3.690500 -5.770800 -11.902100
C -3.657100 -6.110800 -8.972400
C -3.652300 -6.270700 -7.586100
H -3.388800 -4.802900 -13.689800
H -3.352600 -5.055400 -11.358200
H -3.323300 -5.565400 -7.024400
H -3.323300 -5.292800 -9.348100
20
Fragment
N -4.295800 -12.380100 -4.505800
F -4.281400 -12.994200 -1.537900
F -4.266100 -13.282400 1.051000
N -4.225100 -13.357100 4.074700
C -3.919500 -11.616800 -3.736900
C -3.881800 -12.435400 3.490500
C -3.870800 -11.959700 -0.790700
C -3.860700 -12.110200 0.545200
C -3.458400 -10.605300 -2.833400
C -3.445600 -10.758000 -1.455000
C -3.442200 -11.085600 1.455000
C -3.429500 -11.238400 2.833400
C -3.027200 -9.733400 -0.545200
C -3.017100 -9.883900 0.790700
C -3.006100 -9.408300 -3.490500
C -2.968400 -10.226800 3.736900
N -2.662800 -8.486500 -4.074700
F -2.621800 -8.561200 -1.051000
F -2.606400 -8.849500 1.537900
N -2.592100 -9.463500 4.505800
52
Fragment
H -5.929900 -11.014800 -12.007700
H -5.929900 -10.742200 -14.331500
H -5.900700 -11.252200 -9.997600
H -5.864400 -11.504700 -7.666000
C -5.600900 -10.036900 -13.769700
C -5.596100 -10.196800 -12.383400
C -5.562700 -10.536800 -9.453700
C -5.544800 -10.691200 -8.063400
H -5.143100 -8.775600 -15.286100
C -5.138400 -8.876300 -14.331300
C -5.124600 -9.209900 -11.533400
C -5.107300 -9.380300 -10.069800
C -5.073400 -9.686300 -7.274400
H -5.063800 -9.800300 -6.321300
C -4.654900 -7.830200 -13.521700
C -4.636300 -7.990600 -12.099500
C -4.616900 -8.317000 -9.256400
C -4.598300 -8.477400 -7.834100
H -4.189400 -6.507300 -15.034500
C -4.179800 -6.621300 -14.081400
C -4.146000 -6.927300 -11.286000
C -4.128600 -7.097700 -9.822400
C -4.114800 -7.431300 -7.024500
H -4.110100 -7.532000 -6.069700
C -3.708400 -5.616400 -13.292400
C -3.690500 -5.770800 -11.902100
C -3.657100 -6.110800 -8.972400
C -3.652300 -6.270700 -7.586100
H -3.388800 -4.802900 -13.689800
H -3.352600 -5.055400 -11.358200
H -3.323300 -5.565400 -7.024400
H -3.323300 -5.292800 -9.348100
N -4.295800 -12.380100 -4.505800
F -4.281400 -12.994200 -1.537900
F -4.266100 -13.282400 1.051000
N -4.225100 -13.357100 4.074700
C -3.919500 -11.616800 -3.736900
C -3.881800 -12.435400 3.490500
C -3.870800 -11.959700 -0.790700
C -3.860700 -12.110200 0.545200
C -3.458400 -10.605300 -2.833400
C -3.445600 -10.758000 -1.455000
C -3.442200 -11.085600 1.455000
C -3.429500 -11.238400 2.833400
C -3.027200 -9.733400 -0.545200
C -3.017100 -9.883900 0.790700
C -3.006100 -9.408300 -3.490500
C -2.968400 -10.226800 3.736900
N -2.662800 -8.486500 -4.074700
F -2.621800 -8.561200 -1.051000
F -2.606400 -8.849500 1.537900
N -2.592100 -9.463500 4.505800
