28
Fragment
H -31.577000 -12.276100 -24.719100
O -30.760100 -12.433900 -25.090200
N -30.040700 -11.400700 -24.510600
H -29.654600 -9.463500 -23.416900
C -28.836000 -11.330300 -24.936800
N -28.794300 -9.350800 -23.513800
O -28.775500 -7.598400 -22.055900
H -28.511000 -11.960400 -26.800100
H -28.501400 -13.110300 -25.880400
C -28.200500 -8.353700 -22.822900
C -28.196500 -12.216300 -25.954300
C -28.085100 -10.222700 -24.316900
H -27.273600 -12.202800 -25.890900
N -26.818700 -10.120700 -24.547500
C -26.721200 -8.184600 -23.060200
N -26.161200 -9.060500 -23.939700
O -26.098400 -7.307000 -22.486100
C -24.731300 -9.038000 -24.167000
H -24.673100 -7.209000 -25.044700
H -24.417700 -10.883900 -23.379400
C -24.142000 -7.936100 -24.754800
C -23.983400 -10.117900 -23.754000
C -22.763100 -7.911800 -24.909400
C -22.604600 -10.070000 -23.901200
H -22.366300 -7.130000 -25.308800
H -22.094500 -10.821900 -23.596900
C -22.000200 -8.969800 -24.463300
H -21.041400 -8.939300 -24.576600
28
Fragment
H -31.622900 -7.451300 -17.217600
O -30.806000 -7.293500 -17.588600
N -30.086500 -8.326700 -17.009000
H -29.700500 -10.263900 -15.915300
C -28.881900 -8.397100 -17.435300
N -28.840200 -10.376600 -16.012200
O -28.821300 -12.129000 -14.554400
H -28.556800 -7.767000 -19.298500
H -28.547200 -6.617100 -18.378800
C -28.246300 -11.373700 -15.321300
C -28.242300 -7.511100 -18.452800
C -28.130900 -9.504700 -16.815300
H -27.319400 -7.524600 -18.389300
N -26.864500 -9.606700 -17.045900
C -26.767000 -11.542800 -15.558700
N -26.207000 -10.666900 -16.438200
O -26.144200 -12.420400 -14.984500
C -24.777100 -10.689400 -16.665500
H -24.718900 -12.518400 -17.543100
H -24.463500 -8.843500 -15.877800
C -24.187900 -11.791300 -17.253300
C -24.029200 -9.609500 -16.252400
C -22.809000 -11.815600 -17.407800
C -22.650500 -9.657400 -16.399600
H -22.412100 -12.597400 -17.807200
H -22.140300 -8.905500 -16.095300
C -22.046100 -10.757600 -16.961800
H -21.087200 -10.788100 -17.075100
56
Fragment
H -31.577000 -12.276100 -24.719100
O -30.760100 -12.433900 -25.090200
N -30.040700 -11.400700 -24.510600
H -29.654600 -9.463500 -23.416900
C -28.836000 -11.330300 -24.936800
N -28.794300 -9.350800 -23.513800
O -28.775500 -7.598400 -22.055900
H -28.511000 -11.960400 -26.800100
H -28.501400 -13.110300 -25.880400
C -28.200500 -8.353700 -22.822900
C -28.196500 -12.216300 -25.954300
C -28.085100 -10.222700 -24.316900
H -27.273600 -12.202800 -25.890900
N -26.818700 -10.120700 -24.547500
C -26.721200 -8.184600 -23.060200
N -26.161200 -9.060500 -23.939700
O -26.098400 -7.307000 -22.486100
C -24.731300 -9.038000 -24.167000
H -24.673100 -7.209000 -25.044700
H -24.417700 -10.883900 -23.379400
C -24.142000 -7.936100 -24.754800
C -23.983400 -10.117900 -23.754000
C -22.763100 -7.911800 -24.909400
C -22.604600 -10.070000 -23.901200
H -22.366300 -7.130000 -25.308800
H -22.094500 -10.821900 -23.596900
C -22.000200 -8.969800 -24.463300
H -21.041400 -8.939300 -24.576600
H -31.622900 -7.451300 -17.217600
O -30.806000 -7.293500 -17.588600
N -30.086500 -8.326700 -17.009000
H -29.700500 -10.263900 -15.915300
C -28.881900 -8.397100 -17.435300
N -28.840200 -10.376600 -16.012200
O -28.821300 -12.129000 -14.554400
H -28.556800 -7.767000 -19.298500
H -28.547200 -6.617100 -18.378800
C -28.246300 -11.373700 -15.321300
C -28.242300 -7.511100 -18.452800
C -28.130900 -9.504700 -16.815300
H -27.319400 -7.524600 -18.389300
N -26.864500 -9.606700 -17.045900
C -26.767000 -11.542800 -15.558700
N -26.207000 -10.666900 -16.438200
O -26.144200 -12.420400 -14.984500
C -24.777100 -10.689400 -16.665500
H -24.718900 -12.518400 -17.543100
H -24.463500 -8.843500 -15.877800
C -24.187900 -11.791300 -17.253300
C -24.029200 -9.609500 -16.252400
C -22.809000 -11.815600 -17.407800
C -22.650500 -9.657400 -16.399600
H -22.412100 -12.597400 -17.807200
H -22.140300 -8.905500 -16.095300
C -22.046100 -10.757600 -16.961800
H -21.087200 -10.788100 -17.075100
