28
Fragment
H -31.577000 -12.276100 -24.719100
O -30.760100 -12.433900 -25.090200
N -30.040700 -11.400700 -24.510600
H -29.654600 -9.463500 -23.416900
C -28.836000 -11.330300 -24.936800
N -28.794300 -9.350800 -23.513800
O -28.775500 -7.598400 -22.055900
H -28.511000 -11.960400 -26.800100
H -28.501400 -13.110300 -25.880400
C -28.200500 -8.353700 -22.822900
C -28.196500 -12.216300 -25.954300
C -28.085100 -10.222700 -24.316900
H -27.273600 -12.202800 -25.890900
N -26.818700 -10.120700 -24.547500
C -26.721200 -8.184600 -23.060200
N -26.161200 -9.060500 -23.939700
O -26.098400 -7.307000 -22.486100
C -24.731300 -9.038000 -24.167000
H -24.673100 -7.209000 -25.044700
H -24.417700 -10.883900 -23.379400
C -24.142000 -7.936100 -24.754800
C -23.983400 -10.117900 -23.754000
C -22.763100 -7.911800 -24.909400
C -22.604600 -10.070000 -23.901200
H -22.366300 -7.130000 -25.308800
H -22.094500 -10.821900 -23.596900
C -22.000200 -8.969800 -24.463300
H -21.041400 -8.939300 -24.576600
28
Fragment
H -24.211100 -13.606300 -20.432700
C -23.252200 -13.575800 -20.546000
H -23.158000 -11.723700 -21.412500
H -22.886200 -15.415600 -19.700600
C -22.647800 -12.475600 -21.108200
C -22.489300 -14.633800 -20.100000
C -21.269100 -12.427700 -21.255400
C -21.110400 -14.609500 -20.254500
H -20.834800 -11.661700 -21.630000
H -20.579400 -15.336600 -19.964700
C -20.521200 -13.507600 -20.842300
O -19.154000 -15.238600 -22.523300
N -19.091300 -13.485100 -21.069600
C -18.531200 -14.361000 -21.949100
N -18.433800 -12.424900 -20.461900
H -17.978800 -10.342800 -19.118500
C -17.167300 -12.322900 -20.692500
C -17.055900 -10.329300 -19.055000
C -17.052000 -14.191900 -22.186500
H -16.751000 -9.435300 -19.129000
H -16.741500 -10.585200 -18.209300
O -16.477000 -14.947200 -22.953400
N -16.458100 -13.194800 -21.495600
C -16.416400 -11.215300 -20.072500
H -15.597800 -13.082100 -21.592500
N -15.211700 -11.144900 -20.498800
O -14.492300 -10.111700 -19.919200
H -13.675400 -10.269500 -20.290200
56
Fragment
H -31.577000 -12.276100 -24.719100
O -30.760100 -12.433900 -25.090200
N -30.040700 -11.400700 -24.510600
H -29.654600 -9.463500 -23.416900
C -28.836000 -11.330300 -24.936800
N -28.794300 -9.350800 -23.513800
O -28.775500 -7.598400 -22.055900
H -28.511000 -11.960400 -26.800100
H -28.501400 -13.110300 -25.880400
C -28.200500 -8.353700 -22.822900
C -28.196500 -12.216300 -25.954300
C -28.085100 -10.222700 -24.316900
H -27.273600 -12.202800 -25.890900
N -26.818700 -10.120700 -24.547500
C -26.721200 -8.184600 -23.060200
N -26.161200 -9.060500 -23.939700
O -26.098400 -7.307000 -22.486100
C -24.731300 -9.038000 -24.167000
H -24.673100 -7.209000 -25.044700
H -24.417700 -10.883900 -23.379400
C -24.142000 -7.936100 -24.754800
C -23.983400 -10.117900 -23.754000
C -22.763100 -7.911800 -24.909400
C -22.604600 -10.070000 -23.901200
H -22.366300 -7.130000 -25.308800
H -22.094500 -10.821900 -23.596900
C -22.000200 -8.969800 -24.463300
H -21.041400 -8.939300 -24.576600
H -24.211100 -13.606300 -20.432700
C -23.252200 -13.575800 -20.546000
H -23.158000 -11.723700 -21.412500
H -22.886200 -15.415600 -19.700600
C -22.647800 -12.475600 -21.108200
C -22.489300 -14.633800 -20.100000
C -21.269100 -12.427700 -21.255400
C -21.110400 -14.609500 -20.254500
H -20.834800 -11.661700 -21.630000
H -20.579400 -15.336600 -19.964700
C -20.521200 -13.507600 -20.842300
O -19.154000 -15.238600 -22.523300
N -19.091300 -13.485100 -21.069600
C -18.531200 -14.361000 -21.949100
N -18.433800 -12.424900 -20.461900
H -17.978800 -10.342800 -19.118500
C -17.167300 -12.322900 -20.692500
C -17.055900 -10.329300 -19.055000
C -17.052000 -14.191900 -22.186500
H -16.751000 -9.435300 -19.129000
H -16.741500 -10.585200 -18.209300
O -16.477000 -14.947200 -22.953400
N -16.458100 -13.194800 -21.495600
C -16.416400 -11.215300 -20.072500
H -15.597800 -13.082100 -21.592500
N -15.211700 -11.144900 -20.498800
O -14.492300 -10.111700 -19.919200
H -13.675400 -10.269500 -20.290200
