28
Fragment
H -31.577000 -12.276100 -24.719100
O -30.760100 -12.433900 -25.090200
N -30.040700 -11.400700 -24.510600
H -29.654600 -9.463500 -23.416900
C -28.836000 -11.330300 -24.936800
N -28.794300 -9.350800 -23.513800
O -28.775500 -7.598400 -22.055900
H -28.511000 -11.960400 -26.800100
H -28.501400 -13.110300 -25.880400
C -28.200500 -8.353700 -22.822900
C -28.196500 -12.216300 -25.954300
C -28.085100 -10.222700 -24.316900
H -27.273600 -12.202800 -25.890900
N -26.818700 -10.120700 -24.547500
C -26.721200 -8.184600 -23.060200
N -26.161200 -9.060500 -23.939700
O -26.098400 -7.307000 -22.486100
C -24.731300 -9.038000 -24.167000
H -24.673100 -7.209000 -25.044700
H -24.417700 -10.883900 -23.379400
C -24.142000 -7.936100 -24.754800
C -23.983400 -10.117900 -23.754000
C -22.763100 -7.911800 -24.909400
C -22.604600 -10.070000 -23.901200
H -22.366300 -7.130000 -25.308800
H -22.094500 -10.821900 -23.596900
C -22.000200 -8.969800 -24.463300
H -21.041400 -8.939300 -24.576600
28
Fragment
H -31.577000 -6.639700 -24.719100
O -30.760100 -6.797500 -25.090200
N -30.040700 -5.764300 -24.510600
H -29.654600 -3.827100 -23.416900
C -28.836000 -5.693900 -24.936800
N -28.794300 -3.714400 -23.513800
O -28.775500 -1.962000 -22.055900
H -28.511000 -6.324000 -26.800100
H -28.501400 -7.473900 -25.880400
C -28.200500 -2.717300 -22.822900
C -28.196500 -6.579900 -25.954300
C -28.085100 -4.586300 -24.316900
H -27.273600 -6.566400 -25.890900
N -26.818700 -4.484300 -24.547500
C -26.721200 -2.548200 -23.060200
N -26.161200 -3.424100 -23.939700
O -26.098400 -1.670600 -22.486100
C -24.731300 -3.401600 -24.167000
H -24.673100 -1.572600 -25.044700
H -24.417700 -5.247500 -23.379400
C -24.142000 -2.299700 -24.754800
C -23.983400 -4.481500 -23.754000
C -22.763100 -2.275400 -24.909400
C -22.604600 -4.433600 -23.901200
H -22.366300 -1.493600 -25.308800
H -22.094500 -5.185500 -23.596900
C -22.000200 -3.333400 -24.463300
H -21.041400 -3.302900 -24.576600
56
Fragment
H -31.577000 -12.276100 -24.719100
O -30.760100 -12.433900 -25.090200
N -30.040700 -11.400700 -24.510600
H -29.654600 -9.463500 -23.416900
C -28.836000 -11.330300 -24.936800
N -28.794300 -9.350800 -23.513800
O -28.775500 -7.598400 -22.055900
H -28.511000 -11.960400 -26.800100
H -28.501400 -13.110300 -25.880400
C -28.200500 -8.353700 -22.822900
C -28.196500 -12.216300 -25.954300
C -28.085100 -10.222700 -24.316900
H -27.273600 -12.202800 -25.890900
N -26.818700 -10.120700 -24.547500
C -26.721200 -8.184600 -23.060200
N -26.161200 -9.060500 -23.939700
O -26.098400 -7.307000 -22.486100
C -24.731300 -9.038000 -24.167000
H -24.673100 -7.209000 -25.044700
H -24.417700 -10.883900 -23.379400
C -24.142000 -7.936100 -24.754800
C -23.983400 -10.117900 -23.754000
C -22.763100 -7.911800 -24.909400
C -22.604600 -10.070000 -23.901200
H -22.366300 -7.130000 -25.308800
H -22.094500 -10.821900 -23.596900
C -22.000200 -8.969800 -24.463300
H -21.041400 -8.939300 -24.576600
H -31.577000 -6.639700 -24.719100
O -30.760100 -6.797500 -25.090200
N -30.040700 -5.764300 -24.510600
H -29.654600 -3.827100 -23.416900
C -28.836000 -5.693900 -24.936800
N -28.794300 -3.714400 -23.513800
O -28.775500 -1.962000 -22.055900
H -28.511000 -6.324000 -26.800100
H -28.501400 -7.473900 -25.880400
C -28.200500 -2.717300 -22.822900
C -28.196500 -6.579900 -25.954300
C -28.085100 -4.586300 -24.316900
H -27.273600 -6.566400 -25.890900
N -26.818700 -4.484300 -24.547500
C -26.721200 -2.548200 -23.060200
N -26.161200 -3.424100 -23.939700
O -26.098400 -1.670600 -22.486100
C -24.731300 -3.401600 -24.167000
H -24.673100 -1.572600 -25.044700
H -24.417700 -5.247500 -23.379400
C -24.142000 -2.299700 -24.754800
C -23.983400 -4.481500 -23.754000
C -22.763100 -2.275400 -24.909400
C -22.604600 -4.433600 -23.901200
H -22.366300 -1.493600 -25.308800
H -22.094500 -5.185500 -23.596900
C -22.000200 -3.333400 -24.463300
H -21.041400 -3.302900 -24.576600
