34
Fragment
H -21.138300 -45.161100 -7.776700
H -20.852300 -42.712800 -7.449200
H -20.249700 -47.218700 -8.320000
C -20.231900 -45.224200 -8.053400
C -19.956000 -42.785000 -7.756600
C -19.705200 -46.442800 -8.379400
H -19.560000 -40.836200 -7.583900
C -19.443700 -44.066000 -8.124000
C -19.193900 -41.675400 -7.837200
C -18.395100 -46.563200 -8.792400
C -18.106600 -44.175400 -8.564100
H -18.047000 -47.423200 -8.996400
C -17.844200 -41.744400 -8.298100
C -17.574100 -45.447300 -8.915100
H -17.390800 -39.747000 -8.193300
C -17.299200 -42.997700 -8.651900
C -17.031000 -40.597000 -8.417900
C -16.192700 -45.536200 -9.385900
H -16.129900 -47.537600 -9.782200
C -15.947600 -43.089700 -9.085600
C -15.739200 -40.681700 -8.848700
C -15.610900 -46.741900 -9.794600
C -15.399700 -44.360100 -9.447200
H -15.220100 -39.890400 -8.926900
C -15.163300 -41.925600 -9.179000
C -14.298900 -46.796700 -10.214700
C -14.055800 -44.433500 -9.888800
H -13.927400 -47.631200 -10.476500
C -13.809800 -42.035600 -9.620500
C -13.524300 -45.674200 -10.261800
C -13.284100 -43.233400 -9.961500
H -13.271100 -41.255300 -9.675600
H -12.620200 -45.734400 -10.549000
H -12.382300 -43.278200 -10.256300
34
Fragment
H -26.206100 -51.263800 -6.689700
H -25.968200 -48.807600 -6.982400
H -25.317300 -53.286700 -6.109000
C -25.304300 -51.308600 -6.394900
C -25.064100 -48.867800 -6.695200
C -24.778600 -52.506400 -6.053900
H -24.661000 -46.910800 -6.909900
C -24.532600 -50.108500 -6.322200
C -24.289500 -47.745300 -6.648100
C -23.425100 -52.616400 -5.612400
H -23.368300 -54.651600 -5.360300
C -23.188700 -50.181900 -5.880600
C -22.977500 -47.800100 -6.228000
C -22.849200 -53.860300 -5.282100
C -22.640800 -51.452300 -5.519000
H -22.458500 -47.004400 -6.215600
C -22.395700 -49.005800 -5.819300
C -21.557400 -53.945000 -4.851300
C -21.289200 -51.544300 -5.085300
H -21.197600 -54.795000 -4.626700
C -21.014300 -49.094700 -5.348500
C -20.744200 -52.797600 -4.731500
H -20.541400 -47.118800 -5.429800
C -20.481800 -50.366600 -4.997500
C -20.193300 -47.978800 -5.225800
C -19.394500 -52.866600 -4.270600
C -19.144700 -50.476000 -4.557400
H -19.028400 -53.705800 -4.017300
C -18.883200 -48.099200 -4.812800
C -18.632400 -51.757000 -4.190000
C -18.356500 -49.317800 -4.486800
H -18.338700 -47.323300 -4.753400
H -17.736100 -51.829200 -3.882600
H -17.450100 -49.380900 -4.210100
68
Fragment
H -21.138300 -45.161100 -7.776700
H -20.852300 -42.712800 -7.449200
H -20.249700 -47.218700 -8.320000
C -20.231900 -45.224200 -8.053400
C -19.956000 -42.785000 -7.756600
C -19.705200 -46.442800 -8.379400
H -19.560000 -40.836200 -7.583900
C -19.443700 -44.066000 -8.124000
C -19.193900 -41.675400 -7.837200
C -18.395100 -46.563200 -8.792400
C -18.106600 -44.175400 -8.564100
H -18.047000 -47.423200 -8.996400
C -17.844200 -41.744400 -8.298100
C -17.574100 -45.447300 -8.915100
H -17.390800 -39.747000 -8.193300
C -17.299200 -42.997700 -8.651900
C -17.031000 -40.597000 -8.417900
C -16.192700 -45.536200 -9.385900
H -16.129900 -47.537600 -9.782200
C -15.947600 -43.089700 -9.085600
C -15.739200 -40.681700 -8.848700
C -15.610900 -46.741900 -9.794600
C -15.399700 -44.360100 -9.447200
H -15.220100 -39.890400 -8.926900
C -15.163300 -41.925600 -9.179000
C -14.298900 -46.796700 -10.214700
C -14.055800 -44.433500 -9.888800
H -13.927400 -47.631200 -10.476500
C -13.809800 -42.035600 -9.620500
C -13.524300 -45.674200 -10.261800
C -13.284100 -43.233400 -9.961500
H -13.271100 -41.255300 -9.675600
H -12.620200 -45.734400 -10.549000
H -12.382300 -43.278200 -10.256300
H -26.206100 -51.263800 -6.689700
H -25.968200 -48.807600 -6.982400
H -25.317300 -53.286700 -6.109000
C -25.304300 -51.308600 -6.394900
C -25.064100 -48.867800 -6.695200
C -24.778600 -52.506400 -6.053900
H -24.661000 -46.910800 -6.909900
C -24.532600 -50.108500 -6.322200
C -24.289500 -47.745300 -6.648100
C -23.425100 -52.616400 -5.612400
H -23.368300 -54.651600 -5.360300
C -23.188700 -50.181900 -5.880600
C -22.977500 -47.800100 -6.228000
C -22.849200 -53.860300 -5.282100
C -22.640800 -51.452300 -5.519000
H -22.458500 -47.004400 -6.215600
C -22.395700 -49.005800 -5.819300
C -21.557400 -53.945000 -4.851300
C -21.289200 -51.544300 -5.085300
H -21.197600 -54.795000 -4.626700
C -21.014300 -49.094700 -5.348500
C -20.744200 -52.797600 -4.731500
H -20.541400 -47.118800 -5.429800
C -20.481800 -50.366600 -4.997500
C -20.193300 -47.978800 -5.225800
C -19.394500 -52.866600 -4.270600
C -19.144700 -50.476000 -4.557400
H -19.028400 -53.705800 -4.017300
C -18.883200 -48.099200 -4.812800
C -18.632400 -51.757000 -4.190000
C -18.356500 -49.317800 -4.486800
H -18.338700 -47.323300 -4.753400
H -17.736100 -51.829200 -3.882600
H -17.450100 -49.380900 -4.210100
