33
Fragment
H -33.017700 -20.962600 -8.753000
H -32.392800 -22.415000 -9.192600
N -32.185400 -21.489600 -8.928900
N -31.475700 -18.507500 -8.957100
C -30.946400 -21.011200 -8.931700
H -30.825100 -16.591100 -9.105900
C -30.656900 -19.625900 -8.915300
C -30.635500 -17.512800 -8.979700
N -29.916000 -21.869300 -8.957700
H -29.889300 -13.835600 -8.364900
O -29.792600 -14.539300 -8.385700
H -29.489500 -16.032500 -6.823800
C -29.332600 -19.281400 -8.959800
N -29.318100 -17.896000 -8.969600
H -28.709200 -14.488700 -10.762700
C -28.664000 -21.355800 -9.003000
N -28.558000 -16.391800 -6.664900
C -28.397000 -14.727600 -8.589000
N -28.275900 -20.086500 -8.978800
C -28.106700 -17.099000 -9.056500
O -28.096200 -16.376700 -10.270700
C -28.066900 -14.945800 -10.058800
H -28.016100 -21.998600 -8.930500
H -27.991700 -16.042700 -6.094500
C -27.933200 -16.023900 -7.937800
H -27.874700 -14.005200 -8.159200
H -27.331800 -17.691100 -9.091500
H -26.933700 -13.385600 -10.295500
H -26.806300 -16.003100 -7.908100
C -26.720400 -14.433300 -10.453900
H -26.506000 -14.098700 -12.286000
O -26.352200 -14.826000 -11.780500
H -25.861800 -14.799500 -9.711400
33
Fragment
H -33.017700 -31.119400 -8.753000
H -32.392800 -32.571800 -9.192600
N -32.185400 -31.646400 -8.928900
N -31.475700 -28.664300 -8.957100
C -30.946400 -31.168000 -8.931700
H -30.825100 -26.747900 -9.105900
C -30.656900 -29.782700 -8.915300
C -30.635500 -27.669600 -8.979700
N -29.916000 -32.026100 -8.957700
H -29.889300 -23.992400 -8.364900
O -29.792600 -24.696100 -8.385700
H -29.489500 -26.189300 -6.823800
C -29.332600 -29.438200 -8.959800
N -29.318100 -28.052800 -8.969600
H -28.709200 -24.645500 -10.762700
C -28.664000 -31.512600 -9.003000
N -28.558000 -26.548600 -6.664900
C -28.397000 -24.884400 -8.589000
N -28.275900 -30.243300 -8.978800
C -28.106700 -27.255800 -9.056500
O -28.096200 -26.533500 -10.270700
C -28.066900 -25.102600 -10.058800
H -28.016100 -32.155400 -8.930500
H -27.991700 -26.199500 -6.094500
C -27.933200 -26.180700 -7.937800
H -27.874700 -24.162000 -8.159200
H -27.331800 -27.847900 -9.091500
H -26.933700 -23.542400 -10.295500
H -26.806300 -26.159900 -7.908100
C -26.720400 -24.590100 -10.453900
H -26.506000 -24.255500 -12.286000
O -26.352200 -24.982800 -11.780500
H -25.861800 -24.956300 -9.711400
66
Fragment
H -33.017700 -20.962600 -8.753000
H -32.392800 -22.415000 -9.192600
N -32.185400 -21.489600 -8.928900
N -31.475700 -18.507500 -8.957100
C -30.946400 -21.011200 -8.931700
H -30.825100 -16.591100 -9.105900
C -30.656900 -19.625900 -8.915300
C -30.635500 -17.512800 -8.979700
N -29.916000 -21.869300 -8.957700
H -29.889300 -13.835600 -8.364900
O -29.792600 -14.539300 -8.385700
H -29.489500 -16.032500 -6.823800
C -29.332600 -19.281400 -8.959800
N -29.318100 -17.896000 -8.969600
H -28.709200 -14.488700 -10.762700
C -28.664000 -21.355800 -9.003000
N -28.558000 -16.391800 -6.664900
C -28.397000 -14.727600 -8.589000
N -28.275900 -20.086500 -8.978800
C -28.106700 -17.099000 -9.056500
O -28.096200 -16.376700 -10.270700
C -28.066900 -14.945800 -10.058800
H -28.016100 -21.998600 -8.930500
H -27.991700 -16.042700 -6.094500
C -27.933200 -16.023900 -7.937800
H -27.874700 -14.005200 -8.159200
H -27.331800 -17.691100 -9.091500
H -26.933700 -13.385600 -10.295500
H -26.806300 -16.003100 -7.908100
C -26.720400 -14.433300 -10.453900
H -26.506000 -14.098700 -12.286000
O -26.352200 -14.826000 -11.780500
H -25.861800 -14.799500 -9.711400
H -33.017700 -31.119400 -8.753000
H -32.392800 -32.571800 -9.192600
N -32.185400 -31.646400 -8.928900
N -31.475700 -28.664300 -8.957100
C -30.946400 -31.168000 -8.931700
H -30.825100 -26.747900 -9.105900
C -30.656900 -29.782700 -8.915300
C -30.635500 -27.669600 -8.979700
N -29.916000 -32.026100 -8.957700
H -29.889300 -23.992400 -8.364900
O -29.792600 -24.696100 -8.385700
H -29.489500 -26.189300 -6.823800
C -29.332600 -29.438200 -8.959800
N -29.318100 -28.052800 -8.969600
H -28.709200 -24.645500 -10.762700
C -28.664000 -31.512600 -9.003000
N -28.558000 -26.548600 -6.664900
C -28.397000 -24.884400 -8.589000
N -28.275900 -30.243300 -8.978800
C -28.106700 -27.255800 -9.056500
O -28.096200 -26.533500 -10.270700
C -28.066900 -25.102600 -10.058800
H -28.016100 -32.155400 -8.930500
H -27.991700 -26.199500 -6.094500
C -27.933200 -26.180700 -7.937800
H -27.874700 -24.162000 -8.159200
H -27.331800 -27.847900 -9.091500
H -26.933700 -23.542400 -10.295500
H -26.806300 -26.159900 -7.908100
C -26.720400 -24.590100 -10.453900
H -26.506000 -24.255500 -12.286000
O -26.352200 -24.982800 -11.780500
H -25.861800 -24.956300 -9.711400
