33
Fragment
H -33.017700 -20.962600 -8.753000
H -32.392800 -22.415000 -9.192600
N -32.185400 -21.489600 -8.928900
N -31.475700 -18.507500 -8.957100
C -30.946400 -21.011200 -8.931700
H -30.825100 -16.591100 -9.105900
C -30.656900 -19.625900 -8.915300
C -30.635500 -17.512800 -8.979700
N -29.916000 -21.869300 -8.957700
H -29.889300 -13.835600 -8.364900
O -29.792600 -14.539300 -8.385700
H -29.489500 -16.032500 -6.823800
C -29.332600 -19.281400 -8.959800
N -29.318100 -17.896000 -8.969600
H -28.709200 -14.488700 -10.762700
C -28.664000 -21.355800 -9.003000
N -28.558000 -16.391800 -6.664900
C -28.397000 -14.727600 -8.589000
N -28.275900 -20.086500 -8.978800
C -28.106700 -17.099000 -9.056500
O -28.096200 -16.376700 -10.270700
C -28.066900 -14.945800 -10.058800
H -28.016100 -21.998600 -8.930500
H -27.991700 -16.042700 -6.094500
C -27.933200 -16.023900 -7.937800
H -27.874700 -14.005200 -8.159200
H -27.331800 -17.691100 -9.091500
H -26.933700 -13.385600 -10.295500
H -26.806300 -16.003100 -7.908100
C -26.720400 -14.433300 -10.453900
H -26.506000 -14.098700 -12.286000
O -26.352200 -14.826000 -11.780500
H -25.861800 -14.799500 -9.711400
33
Fragment
H -26.511300 -19.877900 -7.489100
O -26.020900 -19.904400 -5.420000
H -25.867100 -19.177100 -4.914500
C -25.652700 -19.511700 -6.746600
H -25.566800 -21.081500 -9.292400
H -25.439400 -18.464000 -6.905000
H -25.041300 -22.769500 -8.109000
H -24.498400 -19.083600 -9.041300
C -24.439900 -21.102300 -9.262700
H -24.381400 -21.121100 -11.106000
H -24.357000 -27.077000 -8.270000
C -24.306200 -20.024200 -7.141700
O -24.276900 -21.455100 -6.929800
C -24.266400 -22.177400 -8.144000
N -24.097200 -25.164900 -8.221700
C -23.976100 -19.806000 -8.611500
N -23.815100 -21.470200 -10.535600
C -23.709100 -26.434200 -8.197500
H -23.663900 -19.567100 -6.437800
N -23.055000 -22.974400 -8.230900
C -23.040500 -24.359800 -8.240700
H -22.883600 -21.110900 -10.376700
O -22.580500 -19.617700 -8.814800
H -22.483800 -18.914000 -8.835600
N -22.457100 -26.947700 -8.242800
C -21.737600 -22.591200 -8.220800
C -21.716200 -24.704300 -8.285200
H -21.548000 -21.669500 -8.094600
C -21.426700 -26.089600 -8.268800
N -20.897400 -23.585900 -8.243400
N -20.187700 -26.568000 -8.271600
H -19.980300 -27.493400 -8.007900
H -19.355400 -26.041000 -8.447500
66
Fragment
H -33.017700 -20.962600 -8.753000
H -32.392800 -22.415000 -9.192600
N -32.185400 -21.489600 -8.928900
N -31.475700 -18.507500 -8.957100
C -30.946400 -21.011200 -8.931700
H -30.825100 -16.591100 -9.105900
C -30.656900 -19.625900 -8.915300
C -30.635500 -17.512800 -8.979700
N -29.916000 -21.869300 -8.957700
H -29.889300 -13.835600 -8.364900
O -29.792600 -14.539300 -8.385700
H -29.489500 -16.032500 -6.823800
C -29.332600 -19.281400 -8.959800
N -29.318100 -17.896000 -8.969600
H -28.709200 -14.488700 -10.762700
C -28.664000 -21.355800 -9.003000
N -28.558000 -16.391800 -6.664900
C -28.397000 -14.727600 -8.589000
N -28.275900 -20.086500 -8.978800
C -28.106700 -17.099000 -9.056500
O -28.096200 -16.376700 -10.270700
C -28.066900 -14.945800 -10.058800
H -28.016100 -21.998600 -8.930500
H -27.991700 -16.042700 -6.094500
C -27.933200 -16.023900 -7.937800
H -27.874700 -14.005200 -8.159200
H -27.331800 -17.691100 -9.091500
H -26.933700 -13.385600 -10.295500
H -26.806300 -16.003100 -7.908100
C -26.720400 -14.433300 -10.453900
H -26.506000 -14.098700 -12.286000
O -26.352200 -14.826000 -11.780500
H -25.861800 -14.799500 -9.711400
H -26.511300 -19.877900 -7.489100
O -26.020900 -19.904400 -5.420000
H -25.867100 -19.177100 -4.914500
C -25.652700 -19.511700 -6.746600
H -25.566800 -21.081500 -9.292400
H -25.439400 -18.464000 -6.905000
H -25.041300 -22.769500 -8.109000
H -24.498400 -19.083600 -9.041300
C -24.439900 -21.102300 -9.262700
H -24.381400 -21.121100 -11.106000
H -24.357000 -27.077000 -8.270000
C -24.306200 -20.024200 -7.141700
O -24.276900 -21.455100 -6.929800
C -24.266400 -22.177400 -8.144000
N -24.097200 -25.164900 -8.221700
C -23.976100 -19.806000 -8.611500
N -23.815100 -21.470200 -10.535600
C -23.709100 -26.434200 -8.197500
H -23.663900 -19.567100 -6.437800
N -23.055000 -22.974400 -8.230900
C -23.040500 -24.359800 -8.240700
H -22.883600 -21.110900 -10.376700
O -22.580500 -19.617700 -8.814800
H -22.483800 -18.914000 -8.835600
N -22.457100 -26.947700 -8.242800
C -21.737600 -22.591200 -8.220800
C -21.716200 -24.704300 -8.285200
H -21.548000 -21.669500 -8.094600
C -21.426700 -26.089600 -8.268800
N -20.897400 -23.585900 -8.243400
N -20.187700 -26.568000 -8.271600
H -19.980300 -27.493400 -8.007900
H -19.355400 -26.041000 -8.447500
