33
Fragment
H -33.017700 -20.962600 -8.753000
H -32.392800 -22.415000 -9.192600
N -32.185400 -21.489600 -8.928900
N -31.475700 -18.507500 -8.957100
C -30.946400 -21.011200 -8.931700
H -30.825100 -16.591100 -9.105900
C -30.656900 -19.625900 -8.915300
C -30.635500 -17.512800 -8.979700
N -29.916000 -21.869300 -8.957700
H -29.889300 -13.835600 -8.364900
O -29.792600 -14.539300 -8.385700
H -29.489500 -16.032500 -6.823800
C -29.332600 -19.281400 -8.959800
N -29.318100 -17.896000 -8.969600
H -28.709200 -14.488700 -10.762700
C -28.664000 -21.355800 -9.003000
N -28.558000 -16.391800 -6.664900
C -28.397000 -14.727600 -8.589000
N -28.275900 -20.086500 -8.978800
C -28.106700 -17.099000 -9.056500
O -28.096200 -16.376700 -10.270700
C -28.066900 -14.945800 -10.058800
H -28.016100 -21.998600 -8.930500
H -27.991700 -16.042700 -6.094500
C -27.933200 -16.023900 -7.937800
H -27.874700 -14.005200 -8.159200
H -27.331800 -17.691100 -9.091500
H -26.933700 -13.385600 -10.295500
H -26.806300 -16.003100 -7.908100
C -26.720400 -14.433300 -10.453900
H -26.506000 -14.098700 -12.286000
O -26.352200 -14.826000 -11.780500
H -25.861800 -14.799500 -9.711400
33
Fragment
H -33.017700 -20.962600 -15.633200
H -32.392800 -22.415000 -16.072800
N -32.185400 -21.489600 -15.809100
N -31.475700 -18.507500 -15.837300
C -30.946400 -21.011200 -15.811900
H -30.825100 -16.591100 -15.986100
C -30.656900 -19.625900 -15.795500
C -30.635500 -17.512800 -15.859900
N -29.916000 -21.869300 -15.837900
H -29.889300 -13.835600 -15.245100
O -29.792600 -14.539300 -15.265900
H -29.489500 -16.032500 -13.704000
C -29.332600 -19.281400 -15.840000
N -29.318100 -17.896000 -15.849800
H -28.709200 -14.488700 -17.642900
C -28.664000 -21.355800 -15.883200
N -28.558000 -16.391800 -13.545100
C -28.397000 -14.727600 -15.469200
N -28.275900 -20.086500 -15.859000
C -28.106700 -17.099000 -15.936700
O -28.096200 -16.376700 -17.150900
C -28.066900 -14.945800 -16.939000
H -28.016100 -21.998600 -15.810700
H -27.991700 -16.042700 -12.974700
C -27.933200 -16.023900 -14.818000
H -27.874700 -14.005200 -15.039400
H -27.331800 -17.691100 -15.971700
H -26.933700 -13.385600 -17.175700
H -26.806300 -16.003100 -14.788300
C -26.720400 -14.433300 -17.334100
H -26.506000 -14.098700 -19.166200
O -26.352200 -14.826000 -18.660700
H -25.861800 -14.799500 -16.591600
66
Fragment
H -33.017700 -20.962600 -8.753000
H -32.392800 -22.415000 -9.192600
N -32.185400 -21.489600 -8.928900
N -31.475700 -18.507500 -8.957100
C -30.946400 -21.011200 -8.931700
H -30.825100 -16.591100 -9.105900
C -30.656900 -19.625900 -8.915300
C -30.635500 -17.512800 -8.979700
N -29.916000 -21.869300 -8.957700
H -29.889300 -13.835600 -8.364900
O -29.792600 -14.539300 -8.385700
H -29.489500 -16.032500 -6.823800
C -29.332600 -19.281400 -8.959800
N -29.318100 -17.896000 -8.969600
H -28.709200 -14.488700 -10.762700
C -28.664000 -21.355800 -9.003000
N -28.558000 -16.391800 -6.664900
C -28.397000 -14.727600 -8.589000
N -28.275900 -20.086500 -8.978800
C -28.106700 -17.099000 -9.056500
O -28.096200 -16.376700 -10.270700
C -28.066900 -14.945800 -10.058800
H -28.016100 -21.998600 -8.930500
H -27.991700 -16.042700 -6.094500
C -27.933200 -16.023900 -7.937800
H -27.874700 -14.005200 -8.159200
H -27.331800 -17.691100 -9.091500
H -26.933700 -13.385600 -10.295500
H -26.806300 -16.003100 -7.908100
C -26.720400 -14.433300 -10.453900
H -26.506000 -14.098700 -12.286000
O -26.352200 -14.826000 -11.780500
H -25.861800 -14.799500 -9.711400
H -33.017700 -20.962600 -15.633200
H -32.392800 -22.415000 -16.072800
N -32.185400 -21.489600 -15.809100
N -31.475700 -18.507500 -15.837300
C -30.946400 -21.011200 -15.811900
H -30.825100 -16.591100 -15.986100
C -30.656900 -19.625900 -15.795500
C -30.635500 -17.512800 -15.859900
N -29.916000 -21.869300 -15.837900
H -29.889300 -13.835600 -15.245100
O -29.792600 -14.539300 -15.265900
H -29.489500 -16.032500 -13.704000
C -29.332600 -19.281400 -15.840000
N -29.318100 -17.896000 -15.849800
H -28.709200 -14.488700 -17.642900
C -28.664000 -21.355800 -15.883200
N -28.558000 -16.391800 -13.545100
C -28.397000 -14.727600 -15.469200
N -28.275900 -20.086500 -15.859000
C -28.106700 -17.099000 -15.936700
O -28.096200 -16.376700 -17.150900
C -28.066900 -14.945800 -16.939000
H -28.016100 -21.998600 -15.810700
H -27.991700 -16.042700 -12.974700
C -27.933200 -16.023900 -14.818000
H -27.874700 -14.005200 -15.039400
H -27.331800 -17.691100 -15.971700
H -26.933700 -13.385600 -17.175700
H -26.806300 -16.003100 -14.788300
C -26.720400 -14.433300 -17.334100
H -26.506000 -14.098700 -19.166200
O -26.352200 -14.826000 -18.660700
H -25.861800 -14.799500 -16.591600
