17
Fragment
O -7.322800 -6.659000 -22.677300
H -7.202200 -8.509100 -16.748800
O -6.903900 -8.297700 -17.584700
H -6.750200 -6.339500 -19.914300
H -6.688200 -7.911500 -20.135500
C -6.163600 -7.100200 -20.050600
C -6.123700 -6.564900 -22.542200
C -5.833300 -7.520200 -17.528600
H -5.820700 -5.939500 -24.284200
O -5.373200 -7.113500 -16.480700
C -5.350000 -6.890200 -21.311200
O -5.324500 -6.165500 -23.529900
C -5.212000 -7.230300 -18.859500
H -4.797900 -7.671600 -21.473300
H -4.684600 -6.201800 -21.155900
H -4.665000 -6.431700 -18.793900
H -4.539000 -7.900900 -19.054900
12
Fragment
H -9.500500 -10.313200 -11.291500
H -8.791000 -10.100100 -13.375400
N -8.744500 -10.090600 -10.995200
H -8.618500 -10.002500 -10.114200
N -8.079500 -9.630700 -13.129300
O -7.839600 -9.219500 -15.319800
C -7.820100 -9.545400 -11.781300
C -7.409600 -9.007400 -14.161100
O -6.787600 -9.018700 -11.340400
N -6.373600 -8.229700 -13.918700
H -6.095000 -8.129200 -13.080000
H -5.989500 -7.805700 -14.647300
29
Fragment
O -7.322800 -6.659000 -22.677300
H -7.202200 -8.509100 -16.748800
O -6.903900 -8.297700 -17.584700
H -6.750200 -6.339500 -19.914300
H -6.688200 -7.911500 -20.135500
C -6.163600 -7.100200 -20.050600
C -6.123700 -6.564900 -22.542200
C -5.833300 -7.520200 -17.528600
H -5.820700 -5.939500 -24.284200
O -5.373200 -7.113500 -16.480700
C -5.350000 -6.890200 -21.311200
O -5.324500 -6.165500 -23.529900
C -5.212000 -7.230300 -18.859500
H -4.797900 -7.671600 -21.473300
H -4.684600 -6.201800 -21.155900
H -4.665000 -6.431700 -18.793900
H -4.539000 -7.900900 -19.054900
H -9.500500 -10.313200 -11.291500
H -8.791000 -10.100100 -13.375400
N -8.744500 -10.090600 -10.995200
H -8.618500 -10.002500 -10.114200
N -8.079500 -9.630700 -13.129300
O -7.839600 -9.219500 -15.319800
C -7.820100 -9.545400 -11.781300
C -7.409600 -9.007400 -14.161100
O -6.787600 -9.018700 -11.340400
N -6.373600 -8.229700 -13.918700
H -6.095000 -8.129200 -13.080000
H -5.989500 -7.805700 -14.647300
