17
Fragment
O -7.322800 -6.659000 -22.677300
H -7.202200 -8.509100 -16.748800
O -6.903900 -8.297700 -17.584700
H -6.750200 -6.339500 -19.914300
H -6.688200 -7.911500 -20.135500
C -6.163600 -7.100200 -20.050600
C -6.123700 -6.564900 -22.542200
C -5.833300 -7.520200 -17.528600
H -5.820700 -5.939500 -24.284200
O -5.373200 -7.113500 -16.480700
C -5.350000 -6.890200 -21.311200
O -5.324500 -6.165500 -23.529900
C -5.212000 -7.230300 -18.859500
H -4.797900 -7.671600 -21.473300
H -4.684600 -6.201800 -21.155900
H -4.665000 -6.431700 -18.793900
H -4.539000 -7.900900 -19.054900
17
Fragment
H -9.498000 -2.313000 -24.603300
H -9.372000 -3.782200 -24.864400
H -9.352400 -4.012000 -22.502300
H -9.239100 -2.542200 -22.184900
C -8.825100 -2.983500 -24.798800
O -8.712500 -4.048300 -20.128300
C -8.687100 -3.323600 -22.347100
O -8.663800 -3.100300 -27.177600
H -8.216400 -4.274300 -19.374100
C -8.203800 -2.693600 -26.129600
C -7.913400 -3.648900 -21.116000
C -7.873400 -3.113700 -23.607600
H -7.348800 -2.302300 -23.522800
H -7.286900 -3.874300 -23.744000
O -7.133100 -1.916100 -26.073600
H -6.834900 -1.704700 -26.909500
O -6.714300 -3.554900 -20.981000
34
Fragment
O -7.322800 -6.659000 -22.677300
H -7.202200 -8.509100 -16.748800
O -6.903900 -8.297700 -17.584700
H -6.750200 -6.339500 -19.914300
H -6.688200 -7.911500 -20.135500
C -6.163600 -7.100200 -20.050600
C -6.123700 -6.564900 -22.542200
C -5.833300 -7.520200 -17.528600
H -5.820700 -5.939500 -24.284200
O -5.373200 -7.113500 -16.480700
C -5.350000 -6.890200 -21.311200
O -5.324500 -6.165500 -23.529900
C -5.212000 -7.230300 -18.859500
H -4.797900 -7.671600 -21.473300
H -4.684600 -6.201800 -21.155900
H -4.665000 -6.431700 -18.793900
H -4.539000 -7.900900 -19.054900
H -9.498000 -2.313000 -24.603300
H -9.372000 -3.782200 -24.864400
H -9.352400 -4.012000 -22.502300
H -9.239100 -2.542200 -22.184900
C -8.825100 -2.983500 -24.798800
O -8.712500 -4.048300 -20.128300
C -8.687100 -3.323600 -22.347100
O -8.663800 -3.100300 -27.177600
H -8.216400 -4.274300 -19.374100
C -8.203800 -2.693600 -26.129600
C -7.913400 -3.648900 -21.116000
C -7.873400 -3.113700 -23.607600
H -7.348800 -2.302300 -23.522800
H -7.286900 -3.874300 -23.744000
O -7.133100 -1.916100 -26.073600
H -6.834900 -1.704700 -26.909500
O -6.714300 -3.554900 -20.981000
