17
Fragment
O -7.322800 -6.659000 -22.677300
H -7.202200 -8.509100 -16.748800
O -6.903900 -8.297700 -17.584700
H -6.750200 -6.339500 -19.914300
H -6.688200 -7.911500 -20.135500
C -6.163600 -7.100200 -20.050600
C -6.123700 -6.564900 -22.542200
C -5.833300 -7.520200 -17.528600
H -5.820700 -5.939500 -24.284200
O -5.373200 -7.113500 -16.480700
C -5.350000 -6.890200 -21.311200
O -5.324500 -6.165500 -23.529900
C -5.212000 -7.230300 -18.859500
H -4.797900 -7.671600 -21.473300
H -4.684600 -6.201800 -21.155900
H -4.665000 -6.431700 -18.793900
H -4.539000 -7.900900 -19.054900
12
Fragment
H -12.051300 -12.849900 -14.458200
H -11.945800 -12.526400 -16.025500
N -11.667200 -12.425900 -15.186800
O -11.253200 -11.636900 -17.765100
C -10.631200 -11.648200 -14.944400
C -10.220700 -11.110200 -17.324200
O -10.201200 -11.436100 -13.785700
N -9.961200 -11.024900 -15.976200
H -9.422300 -10.653100 -18.991300
N -9.296300 -10.565000 -18.110300
H -9.249800 -10.555500 -15.730100
H -8.540300 -10.342400 -17.814000
29
Fragment
O -7.322800 -6.659000 -22.677300
H -7.202200 -8.509100 -16.748800
O -6.903900 -8.297700 -17.584700
H -6.750200 -6.339500 -19.914300
H -6.688200 -7.911500 -20.135500
C -6.163600 -7.100200 -20.050600
C -6.123700 -6.564900 -22.542200
C -5.833300 -7.520200 -17.528600
H -5.820700 -5.939500 -24.284200
O -5.373200 -7.113500 -16.480700
C -5.350000 -6.890200 -21.311200
O -5.324500 -6.165500 -23.529900
C -5.212000 -7.230300 -18.859500
H -4.797900 -7.671600 -21.473300
H -4.684600 -6.201800 -21.155900
H -4.665000 -6.431700 -18.793900
H -4.539000 -7.900900 -19.054900
H -12.051300 -12.849900 -14.458200
H -11.945800 -12.526400 -16.025500
N -11.667200 -12.425900 -15.186800
O -11.253200 -11.636900 -17.765100
C -10.631200 -11.648200 -14.944400
C -10.220700 -11.110200 -17.324200
O -10.201200 -11.436100 -13.785700
N -9.961200 -11.024900 -15.976200
H -9.422300 -10.653100 -18.991300
N -9.296300 -10.565000 -18.110300
H -9.249800 -10.555500 -15.730100
H -8.540300 -10.342400 -17.814000
