17
Fragment
O -7.322800 -6.659000 -22.677300
H -7.202200 -8.509100 -16.748800
O -6.903900 -8.297700 -17.584700
H -6.750200 -6.339500 -19.914300
H -6.688200 -7.911500 -20.135500
C -6.163600 -7.100200 -20.050600
C -6.123700 -6.564900 -22.542200
C -5.833300 -7.520200 -17.528600
H -5.820700 -5.939500 -24.284200
O -5.373200 -7.113500 -16.480700
C -5.350000 -6.890200 -21.311200
O -5.324500 -6.165500 -23.529900
C -5.212000 -7.230300 -18.859500
H -4.797900 -7.671600 -21.473300
H -4.684600 -6.201800 -21.155900
H -4.665000 -6.431700 -18.793900
H -4.539000 -7.900900 -19.054900
12
Fragment
H -3.999700 -6.794600 -25.844200
H -3.290200 -6.581600 -27.928200
N -3.243700 -6.572000 -25.547900
H -3.117600 -6.483900 -24.666900
N -2.578700 -6.112100 -27.682100
O -2.338800 -5.700900 -29.872600
C -2.319300 -6.026800 -26.334100
C -1.908700 -5.488800 -28.713900
O -1.286700 -5.500100 -25.893100
N -0.872800 -4.711100 -28.471400
H -0.594100 -4.610600 -27.632800
H -0.488700 -4.287100 -29.200100
29
Fragment
O -7.322800 -6.659000 -22.677300
H -7.202200 -8.509100 -16.748800
O -6.903900 -8.297700 -17.584700
H -6.750200 -6.339500 -19.914300
H -6.688200 -7.911500 -20.135500
C -6.163600 -7.100200 -20.050600
C -6.123700 -6.564900 -22.542200
C -5.833300 -7.520200 -17.528600
H -5.820700 -5.939500 -24.284200
O -5.373200 -7.113500 -16.480700
C -5.350000 -6.890200 -21.311200
O -5.324500 -6.165500 -23.529900
C -5.212000 -7.230300 -18.859500
H -4.797900 -7.671600 -21.473300
H -4.684600 -6.201800 -21.155900
H -4.665000 -6.431700 -18.793900
H -4.539000 -7.900900 -19.054900
H -3.999700 -6.794600 -25.844200
H -3.290200 -6.581600 -27.928200
N -3.243700 -6.572000 -25.547900
H -3.117600 -6.483900 -24.666900
N -2.578700 -6.112100 -27.682100
O -2.338800 -5.700900 -29.872600
C -2.319300 -6.026800 -26.334100
C -1.908700 -5.488800 -28.713900
O -1.286700 -5.500100 -25.893100
N -0.872800 -4.711100 -28.471400
H -0.594100 -4.610600 -27.632800
H -0.488700 -4.287100 -29.200100
