17
Fragment
O -7.322800 -6.659000 -22.677300
H -7.202200 -8.509100 -16.748800
O -6.903900 -8.297700 -17.584700
H -6.750200 -6.339500 -19.914300
H -6.688200 -7.911500 -20.135500
C -6.163600 -7.100200 -20.050600
C -6.123700 -6.564900 -22.542200
C -5.833300 -7.520200 -17.528600
H -5.820700 -5.939500 -24.284200
O -5.373200 -7.113500 -16.480700
C -5.350000 -6.890200 -21.311200
O -5.324500 -6.165500 -23.529900
C -5.212000 -7.230300 -18.859500
H -4.797900 -7.671600 -21.473300
H -4.684600 -6.201800 -21.155900
H -4.665000 -6.431700 -18.793900
H -4.539000 -7.900900 -19.054900
17
Fragment
H -8.000900 -9.236100 -24.603300
H -7.874900 -10.705300 -24.864400
H -7.855300 -10.935200 -22.502300
H -7.742000 -9.465400 -22.184900
C -7.328000 -9.906700 -24.798800
O -7.215400 -10.971500 -20.128300
C -7.190000 -10.246800 -22.347100
O -7.166700 -10.023500 -27.177600
H -6.719300 -11.197500 -19.374100
C -6.706700 -9.616800 -26.129600
C -6.416300 -10.572100 -21.116000
C -6.376300 -10.036800 -23.607600
H -5.851700 -9.225500 -23.522800
H -5.789800 -10.797500 -23.744000
O -5.636100 -8.839300 -26.073600
H -5.337800 -8.627900 -26.909500
O -5.217200 -10.478100 -20.981000
34
Fragment
O -7.322800 -6.659000 -22.677300
H -7.202200 -8.509100 -16.748800
O -6.903900 -8.297700 -17.584700
H -6.750200 -6.339500 -19.914300
H -6.688200 -7.911500 -20.135500
C -6.163600 -7.100200 -20.050600
C -6.123700 -6.564900 -22.542200
C -5.833300 -7.520200 -17.528600
H -5.820700 -5.939500 -24.284200
O -5.373200 -7.113500 -16.480700
C -5.350000 -6.890200 -21.311200
O -5.324500 -6.165500 -23.529900
C -5.212000 -7.230300 -18.859500
H -4.797900 -7.671600 -21.473300
H -4.684600 -6.201800 -21.155900
H -4.665000 -6.431700 -18.793900
H -4.539000 -7.900900 -19.054900
H -8.000900 -9.236100 -24.603300
H -7.874900 -10.705300 -24.864400
H -7.855300 -10.935200 -22.502300
H -7.742000 -9.465400 -22.184900
C -7.328000 -9.906700 -24.798800
O -7.215400 -10.971500 -20.128300
C -7.190000 -10.246800 -22.347100
O -7.166700 -10.023500 -27.177600
H -6.719300 -11.197500 -19.374100
C -6.706700 -9.616800 -26.129600
C -6.416300 -10.572100 -21.116000
C -6.376300 -10.036800 -23.607600
H -5.851700 -9.225500 -23.522800
H -5.789800 -10.797500 -23.744000
O -5.636100 -8.839300 -26.073600
H -5.337800 -8.627900 -26.909500
O -5.217200 -10.478100 -20.981000
