20
Fragment
H -20.131200 -17.990100 -21.532100
C -19.915700 -17.401700 -20.734400
H -19.904800 -15.617000 -21.770200
H -19.816600 -18.889500 -19.306500
C -19.754000 -16.040400 -20.876400
C -19.746700 -17.948900 -19.477800
N -19.454500 -15.214400 -19.867100
C -19.432100 -17.123700 -18.425500
C -19.292300 -15.755300 -18.644400
H -19.259900 -17.448900 -17.566400
H -19.019100 -13.087800 -18.592200
C -18.952300 -14.826000 -17.534300
C -18.838400 -13.455300 -17.729400
N -18.763200 -15.397000 -16.330000
C -18.518900 -12.643700 -16.658800
C -18.459800 -14.590300 -15.307900
H -18.451600 -11.679600 -16.760400
C -18.320100 -13.227100 -15.419600
H -18.270700 -15.081500 -14.406600
H -18.069700 -12.683100 -14.635600
20
Fragment
H -16.562700 -17.226600 -21.999200
H -16.361700 -14.828100 -22.228200
C -16.312300 -16.682600 -21.215200
H -16.180800 -18.230000 -19.874400
C -16.172600 -15.319400 -21.327000
C -16.113500 -17.266000 -19.976100
N -15.869200 -14.512700 -20.304800
C -15.794000 -16.454400 -18.905400
C -15.680100 -15.083600 -19.100500
H -15.613300 -16.821800 -18.042600
H -15.372500 -12.460700 -19.068400
C -15.340100 -14.154300 -17.990400
C -15.200200 -12.786000 -18.209300
N -15.177900 -14.695200 -16.767800
C -14.885700 -11.960800 -17.157000
C -14.878400 -13.869200 -15.758500
H -14.815800 -11.020200 -17.328300
H -14.727600 -14.292700 -14.864600
C -14.716700 -12.507900 -15.900400
H -14.501200 -11.919500 -15.102700
40
Fragment
H -20.131200 -17.990100 -21.532100
C -19.915700 -17.401700 -20.734400
H -19.904800 -15.617000 -21.770200
H -19.816600 -18.889500 -19.306500
C -19.754000 -16.040400 -20.876400
C -19.746700 -17.948900 -19.477800
N -19.454500 -15.214400 -19.867100
C -19.432100 -17.123700 -18.425500
C -19.292300 -15.755300 -18.644400
H -19.259900 -17.448900 -17.566400
H -19.019100 -13.087800 -18.592200
C -18.952300 -14.826000 -17.534300
C -18.838400 -13.455300 -17.729400
N -18.763200 -15.397000 -16.330000
C -18.518900 -12.643700 -16.658800
C -18.459800 -14.590300 -15.307900
H -18.451600 -11.679600 -16.760400
C -18.320100 -13.227100 -15.419600
H -18.270700 -15.081500 -14.406600
H -18.069700 -12.683100 -14.635600
H -16.562700 -17.226600 -21.999200
H -16.361700 -14.828100 -22.228200
C -16.312300 -16.682600 -21.215200
H -16.180800 -18.230000 -19.874400
C -16.172600 -15.319400 -21.327000
C -16.113500 -17.266000 -19.976100
N -15.869200 -14.512700 -20.304800
C -15.794000 -16.454400 -18.905400
C -15.680100 -15.083600 -19.100500
H -15.613300 -16.821800 -18.042600
H -15.372500 -12.460700 -19.068400
C -15.340100 -14.154300 -17.990400
C -15.200200 -12.786000 -18.209300
N -15.177900 -14.695200 -16.767800
C -14.885700 -11.960800 -17.157000
C -14.878400 -13.869200 -15.758500
H -14.815800 -11.020200 -17.328300
H -14.727600 -14.292700 -14.864600
C -14.716700 -12.507900 -15.900400
H -14.501200 -11.919500 -15.102700
