20
Fragment
H -20.131200 -17.990100 -21.532100
C -19.915700 -17.401700 -20.734400
H -19.904800 -15.617000 -21.770200
H -19.816600 -18.889500 -19.306500
C -19.754000 -16.040400 -20.876400
C -19.746700 -17.948900 -19.477800
N -19.454500 -15.214400 -19.867100
C -19.432100 -17.123700 -18.425500
C -19.292300 -15.755300 -18.644400
H -19.259900 -17.448900 -17.566400
H -19.019100 -13.087800 -18.592200
C -18.952300 -14.826000 -17.534300
C -18.838400 -13.455300 -17.729400
N -18.763200 -15.397000 -16.330000
C -18.518900 -12.643700 -16.658800
C -18.459800 -14.590300 -15.307900
H -18.451600 -11.679600 -16.760400
C -18.320100 -13.227100 -15.419600
H -18.270700 -15.081500 -14.406600
H -18.069700 -12.683100 -14.635600
20
Fragment
H -17.711500 -10.053400 -21.532100
C -17.496000 -9.465000 -20.734400
H -17.485100 -7.680300 -21.770200
H -17.396900 -10.952700 -19.306500
C -17.334300 -8.103700 -20.876400
C -17.327000 -10.012200 -19.477800
N -17.034800 -7.277700 -19.867100
C -17.012500 -9.186900 -18.425500
C -16.872600 -7.818600 -18.644400
H -16.840200 -9.512200 -17.566400
H -16.599400 -5.151100 -18.592200
C -16.532600 -6.889300 -17.534300
C -16.418700 -5.518600 -17.729400
N -16.343500 -7.460200 -16.330000
C -16.099200 -4.707000 -16.658800
C -16.040100 -6.653500 -15.307900
H -16.031900 -3.742900 -16.760400
C -15.900400 -5.290300 -15.419600
H -15.851000 -7.144800 -14.406600
H -15.650000 -4.746300 -14.635600
40
Fragment
H -20.131200 -17.990100 -21.532100
C -19.915700 -17.401700 -20.734400
H -19.904800 -15.617000 -21.770200
H -19.816600 -18.889500 -19.306500
C -19.754000 -16.040400 -20.876400
C -19.746700 -17.948900 -19.477800
N -19.454500 -15.214400 -19.867100
C -19.432100 -17.123700 -18.425500
C -19.292300 -15.755300 -18.644400
H -19.259900 -17.448900 -17.566400
H -19.019100 -13.087800 -18.592200
C -18.952300 -14.826000 -17.534300
C -18.838400 -13.455300 -17.729400
N -18.763200 -15.397000 -16.330000
C -18.518900 -12.643700 -16.658800
C -18.459800 -14.590300 -15.307900
H -18.451600 -11.679600 -16.760400
C -18.320100 -13.227100 -15.419600
H -18.270700 -15.081500 -14.406600
H -18.069700 -12.683100 -14.635600
H -17.711500 -10.053400 -21.532100
C -17.496000 -9.465000 -20.734400
H -17.485100 -7.680300 -21.770200
H -17.396900 -10.952700 -19.306500
C -17.334300 -8.103700 -20.876400
C -17.327000 -10.012200 -19.477800
N -17.034800 -7.277700 -19.867100
C -17.012500 -9.186900 -18.425500
C -16.872600 -7.818600 -18.644400
H -16.840200 -9.512200 -17.566400
H -16.599400 -5.151100 -18.592200
C -16.532600 -6.889300 -17.534300
C -16.418700 -5.518600 -17.729400
N -16.343500 -7.460200 -16.330000
C -16.099200 -4.707000 -16.658800
C -16.040100 -6.653500 -15.307900
H -16.031900 -3.742900 -16.760400
C -15.900400 -5.290300 -15.419600
H -15.851000 -7.144800 -14.406600
H -15.650000 -4.746300 -14.635600
