22
Fragment
H -20.082400 -17.618900 -12.226100
C -19.129400 -17.690700 -12.087700
H -18.983200 -19.748100 -12.087900
H -18.791800 -15.641000 -12.054900
C -18.489200 -18.894000 -11.995000
C -18.368500 -16.522600 -11.970300
C -17.098400 -18.931800 -11.768500
N -17.058400 -16.500700 -11.751200
H -16.859900 -20.991500 -11.719200
C -16.422500 -17.696000 -11.644800
C -16.370800 -20.159800 -11.645500
C -15.043900 -20.159800 -11.397800
C -14.992200 -17.696000 -11.398500
H -14.554800 -20.991500 -11.324100
N -14.356300 -16.500700 -11.292100
C -14.316400 -18.931800 -11.274800
C -13.046200 -16.522600 -11.073000
C -12.925600 -18.894000 -11.048300
H -12.622900 -15.641000 -10.988400
H -12.431600 -19.748100 -10.955400
C -12.285300 -17.690700 -10.955600
H -11.332400 -17.618900 -10.817200
22
Fragment
H -14.570100 -12.386100 -8.934200
C -13.617100 -12.314300 -8.795800
H -13.470900 -10.256900 -8.796000
H -13.279600 -14.364000 -8.763000
C -12.976900 -11.111000 -8.703100
C -12.856300 -13.482400 -8.678400
C -11.586100 -11.073200 -8.476600
N -11.546200 -13.504300 -8.459300
H -11.347700 -9.013500 -8.427300
C -10.910300 -12.309000 -8.352900
C -10.858600 -9.845200 -8.353600
C -9.531700 -9.845200 -8.105900
C -9.480000 -12.309000 -8.106600
H -9.042600 -9.013500 -8.032200
N -8.844000 -13.504300 -8.000200
C -8.804100 -11.073200 -7.982900
C -7.534000 -13.482400 -7.781100
C -7.413300 -11.111000 -7.756400
H -7.110700 -14.364000 -7.696500
H -6.919300 -10.256900 -7.663500
C -6.773100 -12.314300 -7.663700
H -5.820100 -12.386100 -7.525300
44
Fragment
H -20.082400 -17.618900 -12.226100
C -19.129400 -17.690700 -12.087700
H -18.983200 -19.748100 -12.087900
H -18.791800 -15.641000 -12.054900
C -18.489200 -18.894000 -11.995000
C -18.368500 -16.522600 -11.970300
C -17.098400 -18.931800 -11.768500
N -17.058400 -16.500700 -11.751200
H -16.859900 -20.991500 -11.719200
C -16.422500 -17.696000 -11.644800
C -16.370800 -20.159800 -11.645500
C -15.043900 -20.159800 -11.397800
C -14.992200 -17.696000 -11.398500
H -14.554800 -20.991500 -11.324100
N -14.356300 -16.500700 -11.292100
C -14.316400 -18.931800 -11.274800
C -13.046200 -16.522600 -11.073000
C -12.925600 -18.894000 -11.048300
H -12.622900 -15.641000 -10.988400
H -12.431600 -19.748100 -10.955400
C -12.285300 -17.690700 -10.955600
H -11.332400 -17.618900 -10.817200
H -14.570100 -12.386100 -8.934200
C -13.617100 -12.314300 -8.795800
H -13.470900 -10.256900 -8.796000
H -13.279600 -14.364000 -8.763000
C -12.976900 -11.111000 -8.703100
C -12.856300 -13.482400 -8.678400
C -11.586100 -11.073200 -8.476600
N -11.546200 -13.504300 -8.459300
H -11.347700 -9.013500 -8.427300
C -10.910300 -12.309000 -8.352900
C -10.858600 -9.845200 -8.353600
C -9.531700 -9.845200 -8.105900
C -9.480000 -12.309000 -8.106600
H -9.042600 -9.013500 -8.032200
N -8.844000 -13.504300 -8.000200
C -8.804100 -11.073200 -7.982900
C -7.534000 -13.482400 -7.781100
C -7.413300 -11.111000 -7.756400
H -7.110700 -14.364000 -7.696500
H -6.919300 -10.256900 -7.663500
C -6.773100 -12.314300 -7.663700
H -5.820100 -12.386100 -7.525300
