22
Fragment
H -20.082400 -17.618900 -12.226100
C -19.129400 -17.690700 -12.087700
H -18.983200 -19.748100 -12.087900
H -18.791800 -15.641000 -12.054900
C -18.489200 -18.894000 -11.995000
C -18.368500 -16.522600 -11.970300
C -17.098400 -18.931800 -11.768500
N -17.058400 -16.500700 -11.751200
H -16.859900 -20.991500 -11.719200
C -16.422500 -17.696000 -11.644800
C -16.370800 -20.159800 -11.645500
C -15.043900 -20.159800 -11.397800
C -14.992200 -17.696000 -11.398500
H -14.554800 -20.991500 -11.324100
N -14.356300 -16.500700 -11.292100
C -14.316400 -18.931800 -11.274800
C -13.046200 -16.522600 -11.073000
C -12.925600 -18.894000 -11.048300
H -12.622900 -15.641000 -10.988400
H -12.431600 -19.748100 -10.955400
C -12.285300 -17.690700 -10.955600
H -11.332400 -17.618900 -10.817200
22
Fragment
H -25.594600 -12.386100 -15.518000
C -24.641600 -12.314300 -15.379600
H -24.495400 -10.256900 -15.379800
H -24.304100 -14.364000 -15.346800
C -24.001400 -11.111000 -15.286900
C -23.880800 -13.482400 -15.262200
C -22.610600 -11.073200 -15.060400
N -22.570700 -13.504300 -15.043100
H -22.372200 -9.013500 -15.011100
C -21.934800 -12.309000 -14.936700
C -21.883100 -9.845200 -14.937400
C -20.556200 -9.845200 -14.689700
C -20.504500 -12.309000 -14.690400
H -20.067100 -9.013500 -14.616000
N -19.868500 -13.504300 -14.584000
C -19.828600 -11.073200 -14.566700
C -18.558500 -13.482400 -14.364900
C -18.437800 -11.111000 -14.340200
H -18.135200 -14.364000 -14.280300
H -17.943800 -10.256900 -14.247400
C -17.797600 -12.314300 -14.247500
H -16.844600 -12.386100 -14.109100
44
Fragment
H -20.082400 -17.618900 -12.226100
C -19.129400 -17.690700 -12.087700
H -18.983200 -19.748100 -12.087900
H -18.791800 -15.641000 -12.054900
C -18.489200 -18.894000 -11.995000
C -18.368500 -16.522600 -11.970300
C -17.098400 -18.931800 -11.768500
N -17.058400 -16.500700 -11.751200
H -16.859900 -20.991500 -11.719200
C -16.422500 -17.696000 -11.644800
C -16.370800 -20.159800 -11.645500
C -15.043900 -20.159800 -11.397800
C -14.992200 -17.696000 -11.398500
H -14.554800 -20.991500 -11.324100
N -14.356300 -16.500700 -11.292100
C -14.316400 -18.931800 -11.274800
C -13.046200 -16.522600 -11.073000
C -12.925600 -18.894000 -11.048300
H -12.622900 -15.641000 -10.988400
H -12.431600 -19.748100 -10.955400
C -12.285300 -17.690700 -10.955600
H -11.332400 -17.618900 -10.817200
H -25.594600 -12.386100 -15.518000
C -24.641600 -12.314300 -15.379600
H -24.495400 -10.256900 -15.379800
H -24.304100 -14.364000 -15.346800
C -24.001400 -11.111000 -15.286900
C -23.880800 -13.482400 -15.262200
C -22.610600 -11.073200 -15.060400
N -22.570700 -13.504300 -15.043100
H -22.372200 -9.013500 -15.011100
C -21.934800 -12.309000 -14.936700
C -21.883100 -9.845200 -14.937400
C -20.556200 -9.845200 -14.689700
C -20.504500 -12.309000 -14.690400
H -20.067100 -9.013500 -14.616000
N -19.868500 -13.504300 -14.584000
C -19.828600 -11.073200 -14.566700
C -18.558500 -13.482400 -14.364900
C -18.437800 -11.111000 -14.340200
H -18.135200 -14.364000 -14.280300
H -17.943800 -10.256900 -14.247400
C -17.797600 -12.314300 -14.247500
H -16.844600 -12.386100 -14.109100
