22
Fragment
H -20.082400 -17.618900 -12.226100
C -19.129400 -17.690700 -12.087700
H -18.983200 -19.748100 -12.087900
H -18.791800 -15.641000 -12.054900
C -18.489200 -18.894000 -11.995000
C -18.368500 -16.522600 -11.970300
C -17.098400 -18.931800 -11.768500
N -17.058400 -16.500700 -11.751200
H -16.859900 -20.991500 -11.719200
C -16.422500 -17.696000 -11.644800
C -16.370800 -20.159800 -11.645500
C -15.043900 -20.159800 -11.397800
C -14.992200 -17.696000 -11.398500
H -14.554800 -20.991500 -11.324100
N -14.356300 -16.500700 -11.292100
C -14.316400 -18.931800 -11.274800
C -13.046200 -16.522600 -11.073000
C -12.925600 -18.894000 -11.048300
H -12.622900 -15.641000 -10.988400
H -12.431600 -19.748100 -10.955400
C -12.285300 -17.690700 -10.955600
H -11.332400 -17.618900 -10.817200
8
Fragment
H -15.072800 -22.731800 -13.213700
H -14.762500 -21.451200 -13.977400
N -14.725100 -22.317100 -13.894000
O -14.048600 -24.283900 -14.813600
C -14.048600 -23.029300 -14.813600
N -13.372100 -22.317100 -15.733100
H -13.334700 -21.451200 -15.649700
H -13.024500 -22.731800 -16.413400
30
Fragment
H -20.082400 -17.618900 -12.226100
C -19.129400 -17.690700 -12.087700
H -18.983200 -19.748100 -12.087900
H -18.791800 -15.641000 -12.054900
C -18.489200 -18.894000 -11.995000
C -18.368500 -16.522600 -11.970300
C -17.098400 -18.931800 -11.768500
N -17.058400 -16.500700 -11.751200
H -16.859900 -20.991500 -11.719200
C -16.422500 -17.696000 -11.644800
C -16.370800 -20.159800 -11.645500
C -15.043900 -20.159800 -11.397800
C -14.992200 -17.696000 -11.398500
H -14.554800 -20.991500 -11.324100
N -14.356300 -16.500700 -11.292100
C -14.316400 -18.931800 -11.274800
C -13.046200 -16.522600 -11.073000
C -12.925600 -18.894000 -11.048300
H -12.622900 -15.641000 -10.988400
H -12.431600 -19.748100 -10.955400
C -12.285300 -17.690700 -10.955600
H -11.332400 -17.618900 -10.817200
H -15.072800 -22.731800 -13.213700
H -14.762500 -21.451200 -13.977400
N -14.725100 -22.317100 -13.894000
O -14.048600 -24.283900 -14.813600
C -14.048600 -23.029300 -14.813600
N -13.372100 -22.317100 -15.733100
H -13.334700 -21.451200 -15.649700
H -13.024500 -22.731800 -16.413400
