20
Fragment
H -20.131200 -17.990100 -21.532100
C -19.915700 -17.401700 -20.734400
H -19.904800 -15.617000 -21.770200
H -19.816600 -18.889500 -19.306500
C -19.754000 -16.040400 -20.876400
C -19.746700 -17.948900 -19.477800
N -19.454500 -15.214400 -19.867100
C -19.432100 -17.123700 -18.425500
C -19.292300 -15.755300 -18.644400
H -19.259900 -17.448900 -17.566400
H -19.019100 -13.087800 -18.592200
C -18.952300 -14.826000 -17.534300
C -18.838400 -13.455300 -17.729400
N -18.763200 -15.397000 -16.330000
C -18.518900 -12.643700 -16.658800
C -18.459800 -14.590300 -15.307900
H -18.451600 -11.679600 -16.760400
C -18.320100 -13.227100 -15.419600
H -18.270700 -15.081500 -14.406600
H -18.069700 -12.683100 -14.635600
20
Fragment
H -23.374700 -19.515000 -30.690800
C -23.159200 -18.926600 -29.893100
H -23.148200 -17.141900 -30.928900
H -23.060100 -20.414300 -28.465300
C -22.997500 -17.565300 -30.035100
C -22.990200 -19.473800 -28.636500
N -22.697900 -16.739300 -29.025800
C -22.675600 -18.648500 -27.584200
C -22.535800 -17.280200 -27.803100
H -22.503400 -18.973800 -26.725100
H -22.262500 -14.612700 -27.750900
C -22.195800 -16.350900 -26.693000
C -22.081900 -14.980200 -26.888100
N -22.006600 -16.921800 -25.488700
C -21.762300 -14.168600 -25.817500
C -21.703300 -16.115100 -24.466600
H -21.695100 -13.204500 -25.919100
C -21.563500 -14.752000 -24.578300
H -21.514200 -16.606400 -23.565300
H -21.313200 -14.207900 -23.794300
40
Fragment
H -20.131200 -17.990100 -21.532100
C -19.915700 -17.401700 -20.734400
H -19.904800 -15.617000 -21.770200
H -19.816600 -18.889500 -19.306500
C -19.754000 -16.040400 -20.876400
C -19.746700 -17.948900 -19.477800
N -19.454500 -15.214400 -19.867100
C -19.432100 -17.123700 -18.425500
C -19.292300 -15.755300 -18.644400
H -19.259900 -17.448900 -17.566400
H -19.019100 -13.087800 -18.592200
C -18.952300 -14.826000 -17.534300
C -18.838400 -13.455300 -17.729400
N -18.763200 -15.397000 -16.330000
C -18.518900 -12.643700 -16.658800
C -18.459800 -14.590300 -15.307900
H -18.451600 -11.679600 -16.760400
C -18.320100 -13.227100 -15.419600
H -18.270700 -15.081500 -14.406600
H -18.069700 -12.683100 -14.635600
H -23.374700 -19.515000 -30.690800
C -23.159200 -18.926600 -29.893100
H -23.148200 -17.141900 -30.928900
H -23.060100 -20.414300 -28.465300
C -22.997500 -17.565300 -30.035100
C -22.990200 -19.473800 -28.636500
N -22.697900 -16.739300 -29.025800
C -22.675600 -18.648500 -27.584200
C -22.535800 -17.280200 -27.803100
H -22.503400 -18.973800 -26.725100
H -22.262500 -14.612700 -27.750900
C -22.195800 -16.350900 -26.693000
C -22.081900 -14.980200 -26.888100
N -22.006600 -16.921800 -25.488700
C -21.762300 -14.168600 -25.817500
C -21.703300 -16.115100 -24.466600
H -21.695100 -13.204500 -25.919100
C -21.563500 -14.752000 -24.578300
H -21.514200 -16.606400 -23.565300
H -21.313200 -14.207900 -23.794300
