22
Fragment
H -20.082400 -17.618900 -12.226100
C -19.129400 -17.690700 -12.087700
H -18.983200 -19.748100 -12.087900
H -18.791800 -15.641000 -12.054900
C -18.489200 -18.894000 -11.995000
C -18.368500 -16.522600 -11.970300
C -17.098400 -18.931800 -11.768500
N -17.058400 -16.500700 -11.751200
H -16.859900 -20.991500 -11.719200
C -16.422500 -17.696000 -11.644800
C -16.370800 -20.159800 -11.645500
C -15.043900 -20.159800 -11.397800
C -14.992200 -17.696000 -11.398500
H -14.554800 -20.991500 -11.324100
N -14.356300 -16.500700 -11.292100
C -14.316400 -18.931800 -11.274800
C -13.046200 -16.522600 -11.073000
C -12.925600 -18.894000 -11.048300
H -12.622900 -15.641000 -10.988400
H -12.431600 -19.748100 -10.955400
C -12.285300 -17.690700 -10.955600
H -11.332400 -17.618900 -10.817200
22
Fragment
H -12.911400 -11.617900 -12.226100
C -11.958400 -11.689700 -12.087700
H -11.812200 -13.747100 -12.087900
H -11.620800 -9.640000 -12.054900
C -11.318200 -12.893000 -11.995000
C -11.197500 -10.521600 -11.970300
C -9.927400 -12.930800 -11.768500
N -9.887400 -10.499700 -11.751200
H -9.688900 -14.990500 -11.719200
C -9.251500 -11.695000 -11.644800
C -9.199800 -14.158800 -11.645500
C -7.872900 -14.158800 -11.397800
C -7.821200 -11.695000 -11.398500
H -7.383800 -14.990500 -11.324100
N -7.185300 -10.499700 -11.292100
C -7.145400 -12.930800 -11.274800
C -5.875200 -10.521600 -11.073000
C -5.754600 -12.893000 -11.048300
H -5.451900 -9.640000 -10.988400
H -5.260600 -13.747100 -10.955400
C -5.114300 -11.689700 -10.955600
H -4.161400 -11.617900 -10.817200
44
Fragment
H -20.082400 -17.618900 -12.226100
C -19.129400 -17.690700 -12.087700
H -18.983200 -19.748100 -12.087900
H -18.791800 -15.641000 -12.054900
C -18.489200 -18.894000 -11.995000
C -18.368500 -16.522600 -11.970300
C -17.098400 -18.931800 -11.768500
N -17.058400 -16.500700 -11.751200
H -16.859900 -20.991500 -11.719200
C -16.422500 -17.696000 -11.644800
C -16.370800 -20.159800 -11.645500
C -15.043900 -20.159800 -11.397800
C -14.992200 -17.696000 -11.398500
H -14.554800 -20.991500 -11.324100
N -14.356300 -16.500700 -11.292100
C -14.316400 -18.931800 -11.274800
C -13.046200 -16.522600 -11.073000
C -12.925600 -18.894000 -11.048300
H -12.622900 -15.641000 -10.988400
H -12.431600 -19.748100 -10.955400
C -12.285300 -17.690700 -10.955600
H -11.332400 -17.618900 -10.817200
H -12.911400 -11.617900 -12.226100
C -11.958400 -11.689700 -12.087700
H -11.812200 -13.747100 -12.087900
H -11.620800 -9.640000 -12.054900
C -11.318200 -12.893000 -11.995000
C -11.197500 -10.521600 -11.970300
C -9.927400 -12.930800 -11.768500
N -9.887400 -10.499700 -11.751200
H -9.688900 -14.990500 -11.719200
C -9.251500 -11.695000 -11.644800
C -9.199800 -14.158800 -11.645500
C -7.872900 -14.158800 -11.397800
C -7.821200 -11.695000 -11.398500
H -7.383800 -14.990500 -11.324100
N -7.185300 -10.499700 -11.292100
C -7.145400 -12.930800 -11.274800
C -5.875200 -10.521600 -11.073000
C -5.754600 -12.893000 -11.048300
H -5.451900 -9.640000 -10.988400
H -5.260600 -13.747100 -10.955400
C -5.114300 -11.689700 -10.955600
H -4.161400 -11.617900 -10.817200
