20
Fragment
H -20.131200 -17.990100 -21.532100
C -19.915700 -17.401700 -20.734400
H -19.904800 -15.617000 -21.770200
H -19.816600 -18.889500 -19.306500
C -19.754000 -16.040400 -20.876400
C -19.746700 -17.948900 -19.477800
N -19.454500 -15.214400 -19.867100
C -19.432100 -17.123700 -18.425500
C -19.292300 -15.755300 -18.644400
H -19.259900 -17.448900 -17.566400
H -19.019100 -13.087800 -18.592200
C -18.952300 -14.826000 -17.534300
C -18.838400 -13.455300 -17.729400
N -18.763200 -15.397000 -16.330000
C -18.518900 -12.643700 -16.658800
C -18.459800 -14.590300 -15.307900
H -18.451600 -11.679600 -16.760400
C -18.320100 -13.227100 -15.419600
H -18.270700 -15.081500 -14.406600
H -18.069700 -12.683100 -14.635600
20
Fragment
H -22.550900 -25.926900 -21.532100
C -22.335400 -25.338500 -20.734400
H -22.324400 -23.553800 -21.770200
H -22.236300 -26.826200 -19.306500
C -22.173700 -23.977200 -20.876400
C -22.166400 -25.885700 -19.477800
N -21.874100 -23.151200 -19.867100
C -21.851800 -25.060400 -18.425500
C -21.712000 -23.692100 -18.644400
H -21.679600 -25.385700 -17.566400
H -21.438800 -21.024600 -18.592200
C -21.372000 -22.762800 -17.534300
C -21.258100 -21.392100 -17.729400
N -21.182900 -23.333700 -16.330000
C -20.938500 -20.580400 -16.658800
C -20.879500 -22.527000 -15.307900
H -20.871300 -19.616400 -16.760400
C -20.739700 -21.163800 -15.419600
H -20.690400 -23.018300 -14.406600
H -20.489400 -20.619800 -14.635600
40
Fragment
H -20.131200 -17.990100 -21.532100
C -19.915700 -17.401700 -20.734400
H -19.904800 -15.617000 -21.770200
H -19.816600 -18.889500 -19.306500
C -19.754000 -16.040400 -20.876400
C -19.746700 -17.948900 -19.477800
N -19.454500 -15.214400 -19.867100
C -19.432100 -17.123700 -18.425500
C -19.292300 -15.755300 -18.644400
H -19.259900 -17.448900 -17.566400
H -19.019100 -13.087800 -18.592200
C -18.952300 -14.826000 -17.534300
C -18.838400 -13.455300 -17.729400
N -18.763200 -15.397000 -16.330000
C -18.518900 -12.643700 -16.658800
C -18.459800 -14.590300 -15.307900
H -18.451600 -11.679600 -16.760400
C -18.320100 -13.227100 -15.419600
H -18.270700 -15.081500 -14.406600
H -18.069700 -12.683100 -14.635600
H -22.550900 -25.926900 -21.532100
C -22.335400 -25.338500 -20.734400
H -22.324400 -23.553800 -21.770200
H -22.236300 -26.826200 -19.306500
C -22.173700 -23.977200 -20.876400
C -22.166400 -25.885700 -19.477800
N -21.874100 -23.151200 -19.867100
C -21.851800 -25.060400 -18.425500
C -21.712000 -23.692100 -18.644400
H -21.679600 -25.385700 -17.566400
H -21.438800 -21.024600 -18.592200
C -21.372000 -22.762800 -17.534300
C -21.258100 -21.392100 -17.729400
N -21.182900 -23.333700 -16.330000
C -20.938500 -20.580400 -16.658800
C -20.879500 -22.527000 -15.307900
H -20.871300 -19.616400 -16.760400
C -20.739700 -21.163800 -15.419600
H -20.690400 -23.018300 -14.406600
H -20.489400 -20.619800 -14.635600
