20
Fragment
H -20.131200 -17.990100 -21.532100
C -19.915700 -17.401700 -20.734400
H -19.904800 -15.617000 -21.770200
H -19.816600 -18.889500 -19.306500
C -19.754000 -16.040400 -20.876400
C -19.746700 -17.948900 -19.477800
N -19.454500 -15.214400 -19.867100
C -19.432100 -17.123700 -18.425500
C -19.292300 -15.755300 -18.644400
H -19.259900 -17.448900 -17.566400
H -19.019100 -13.087800 -18.592200
C -18.952300 -14.826000 -17.534300
C -18.838400 -13.455300 -17.729400
N -18.763200 -15.397000 -16.330000
C -18.518900 -12.643700 -16.658800
C -18.459800 -14.590300 -15.307900
H -18.451600 -11.679600 -16.760400
C -18.320100 -13.227100 -15.419600
H -18.270700 -15.081500 -14.406600
H -18.069700 -12.683100 -14.635600
20
Fragment
H -16.887700 -16.465300 -12.373400
C -16.672300 -15.876900 -11.575700
H -16.661300 -14.092200 -12.611500
H -16.573100 -17.364600 -10.147800
C -16.510500 -14.515600 -11.717600
C -16.503200 -16.424100 -10.319100
N -16.211000 -13.689600 -10.708400
C -16.188700 -15.598800 -9.266800
C -16.048900 -14.230500 -9.485700
H -16.016400 -15.924100 -8.407700
H -15.775600 -11.563000 -9.433500
C -15.708800 -13.301200 -8.375600
C -15.594900 -11.930500 -8.570700
N -15.519700 -13.872100 -7.171300
C -15.275400 -11.118800 -7.500100
C -15.216400 -13.065400 -6.149200
H -15.208100 -10.154800 -7.601700
C -15.076600 -11.702200 -6.260900
H -15.027200 -13.556700 -5.247900
H -14.826200 -11.158200 -5.476900
40
Fragment
H -20.131200 -17.990100 -21.532100
C -19.915700 -17.401700 -20.734400
H -19.904800 -15.617000 -21.770200
H -19.816600 -18.889500 -19.306500
C -19.754000 -16.040400 -20.876400
C -19.746700 -17.948900 -19.477800
N -19.454500 -15.214400 -19.867100
C -19.432100 -17.123700 -18.425500
C -19.292300 -15.755300 -18.644400
H -19.259900 -17.448900 -17.566400
H -19.019100 -13.087800 -18.592200
C -18.952300 -14.826000 -17.534300
C -18.838400 -13.455300 -17.729400
N -18.763200 -15.397000 -16.330000
C -18.518900 -12.643700 -16.658800
C -18.459800 -14.590300 -15.307900
H -18.451600 -11.679600 -16.760400
C -18.320100 -13.227100 -15.419600
H -18.270700 -15.081500 -14.406600
H -18.069700 -12.683100 -14.635600
H -16.887700 -16.465300 -12.373400
C -16.672300 -15.876900 -11.575700
H -16.661300 -14.092200 -12.611500
H -16.573100 -17.364600 -10.147800
C -16.510500 -14.515600 -11.717600
C -16.503200 -16.424100 -10.319100
N -16.211000 -13.689600 -10.708400
C -16.188700 -15.598800 -9.266800
C -16.048900 -14.230500 -9.485700
H -16.016400 -15.924100 -8.407700
H -15.775600 -11.563000 -9.433500
C -15.708800 -13.301200 -8.375600
C -15.594900 -11.930500 -8.570700
N -15.519700 -13.872100 -7.171300
C -15.275400 -11.118800 -7.500100
C -15.216400 -13.065400 -6.149200
H -15.208100 -10.154800 -7.601700
C -15.076600 -11.702200 -6.260900
H -15.027200 -13.556700 -5.247900
H -14.826200 -11.158200 -5.476900
