20
Fragment
H -20.131200 -17.990100 -21.532100
C -19.915700 -17.401700 -20.734400
H -19.904800 -15.617000 -21.770200
H -19.816600 -18.889500 -19.306500
C -19.754000 -16.040400 -20.876400
C -19.746700 -17.948900 -19.477800
N -19.454500 -15.214400 -19.867100
C -19.432100 -17.123700 -18.425500
C -19.292300 -15.755300 -18.644400
H -19.259900 -17.448900 -17.566400
H -19.019100 -13.087800 -18.592200
C -18.952300 -14.826000 -17.534300
C -18.838400 -13.455300 -17.729400
N -18.763200 -15.397000 -16.330000
C -18.518900 -12.643700 -16.658800
C -18.459800 -14.590300 -15.307900
H -18.451600 -11.679600 -16.760400
C -18.320100 -13.227100 -15.419600
H -18.270700 -15.081500 -14.406600
H -18.069700 -12.683100 -14.635600
8
Fragment
H -24.268300 -17.364500 -14.818800
N -23.438100 -17.115200 -15.156700
H -23.394700 -16.397900 -15.734700
O -22.316700 -18.441600 -13.694400
C -22.303300 -17.615200 -14.618200
H -21.150400 -16.504100 -15.753000
N -21.142200 -17.196800 -15.179600
H -20.342400 -17.414600 -14.690600
28
Fragment
H -20.131200 -17.990100 -21.532100
C -19.915700 -17.401700 -20.734400
H -19.904800 -15.617000 -21.770200
H -19.816600 -18.889500 -19.306500
C -19.754000 -16.040400 -20.876400
C -19.746700 -17.948900 -19.477800
N -19.454500 -15.214400 -19.867100
C -19.432100 -17.123700 -18.425500
C -19.292300 -15.755300 -18.644400
H -19.259900 -17.448900 -17.566400
H -19.019100 -13.087800 -18.592200
C -18.952300 -14.826000 -17.534300
C -18.838400 -13.455300 -17.729400
N -18.763200 -15.397000 -16.330000
C -18.518900 -12.643700 -16.658800
C -18.459800 -14.590300 -15.307900
H -18.451600 -11.679600 -16.760400
C -18.320100 -13.227100 -15.419600
H -18.270700 -15.081500 -14.406600
H -18.069700 -12.683100 -14.635600
H -24.268300 -17.364500 -14.818800
N -23.438100 -17.115200 -15.156700
H -23.394700 -16.397900 -15.734700
O -22.316700 -18.441600 -13.694400
C -22.303300 -17.615200 -14.618200
H -21.150400 -16.504100 -15.753000
N -21.142200 -17.196800 -15.179600
H -20.342400 -17.414600 -14.690600
