9
Fragment
H -8.541800 -11.962900 -13.839100
H -8.533800 -11.992000 -15.681100
N -8.302000 -12.044500 -14.750200
C -7.015500 -12.533700 -14.747300
H -6.445900 -12.757500 -16.744800
N -6.308700 -12.763300 -13.657900
N -6.280100 -12.797600 -15.825800
N -5.103000 -13.240800 -14.113900
N -5.064800 -13.264200 -15.368800
9
Fragment
H -2.131800 -11.962900 -13.839100
H -2.123800 -11.992000 -15.681100
N -1.892000 -12.044500 -14.750200
C -0.605500 -12.533700 -14.747300
H -0.035900 -12.757500 -16.744800
N 0.101300 -12.763300 -13.657900
N 0.129900 -12.797600 -15.825800
N 1.307000 -13.240800 -14.113900
N 1.345200 -13.264200 -15.368800
18
Fragment
H -8.541800 -11.962900 -13.839100
H -8.533800 -11.992000 -15.681100
N -8.302000 -12.044500 -14.750200
C -7.015500 -12.533700 -14.747300
H -6.445900 -12.757500 -16.744800
N -6.308700 -12.763300 -13.657900
N -6.280100 -12.797600 -15.825800
N -5.103000 -13.240800 -14.113900
N -5.064800 -13.264200 -15.368800
H -2.131800 -11.962900 -13.839100
H -2.123800 -11.992000 -15.681100
N -1.892000 -12.044500 -14.750200
C -0.605500 -12.533700 -14.747300
H -0.035900 -12.757500 -16.744800
N 0.101300 -12.763300 -13.657900
N 0.129900 -12.797600 -15.825800
N 1.307000 -13.240800 -14.113900
N 1.345200 -13.264200 -15.368800
