9
Fragment
H -8.541800 -11.962900 -13.839100
H -8.533800 -11.992000 -15.681100
N -8.302000 -12.044500 -14.750200
C -7.015500 -12.533700 -14.747300
H -6.445900 -12.757500 -16.744800
N -6.308700 -12.763300 -13.657900
N -6.280100 -12.797600 -15.825800
N -5.103000 -13.240800 -14.113900
N -5.064800 -13.264200 -15.368800
9
Fragment
N -14.036300 -8.605800 -14.180900
N -13.998100 -8.629200 -15.435800
N -12.821000 -9.072400 -13.723900
N -12.792300 -9.106700 -15.891800
H -12.655200 -9.112500 -12.804900
C -12.085600 -9.336300 -14.802400
N -10.799100 -9.825500 -14.799500
H -10.567300 -9.878000 -13.868700
H -10.559200 -9.907100 -15.710600
18
Fragment
H -8.541800 -11.962900 -13.839100
H -8.533800 -11.992000 -15.681100
N -8.302000 -12.044500 -14.750200
C -7.015500 -12.533700 -14.747300
H -6.445900 -12.757500 -16.744800
N -6.308700 -12.763300 -13.657900
N -6.280100 -12.797600 -15.825800
N -5.103000 -13.240800 -14.113900
N -5.064800 -13.264200 -15.368800
N -14.036300 -8.605800 -14.180900
N -13.998100 -8.629200 -15.435800
N -12.821000 -9.072400 -13.723900
N -12.792300 -9.106700 -15.891800
H -12.655200 -9.112500 -12.804900
C -12.085600 -9.336300 -14.802400
N -10.799100 -9.825500 -14.799500
H -10.567300 -9.878000 -13.868700
H -10.559200 -9.907100 -15.710600
