9
Fragment
H -8.541800 -11.962900 -13.839100
H -8.533800 -11.992000 -15.681100
N -8.302000 -12.044500 -14.750200
C -7.015500 -12.533700 -14.747300
H -6.445900 -12.757500 -16.744800
N -6.308700 -12.763300 -13.657900
N -6.280100 -12.797600 -15.825800
N -5.103000 -13.240800 -14.113900
N -5.064800 -13.264200 -15.368800
9
Fragment
N -7.626300 -15.895800 -14.180900
N -7.588100 -15.919200 -15.435800
N -6.411000 -16.362400 -13.723900
N -6.382300 -16.396700 -15.891800
H -6.245200 -16.402500 -12.804900
C -5.675600 -16.626300 -14.802400
N -4.389100 -17.115500 -14.799500
H -4.157300 -17.168000 -13.868700
H -4.149200 -17.197100 -15.710600
18
Fragment
H -8.541800 -11.962900 -13.839100
H -8.533800 -11.992000 -15.681100
N -8.302000 -12.044500 -14.750200
C -7.015500 -12.533700 -14.747300
H -6.445900 -12.757500 -16.744800
N -6.308700 -12.763300 -13.657900
N -6.280100 -12.797600 -15.825800
N -5.103000 -13.240800 -14.113900
N -5.064800 -13.264200 -15.368800
N -7.626300 -15.895800 -14.180900
N -7.588100 -15.919200 -15.435800
N -6.411000 -16.362400 -13.723900
N -6.382300 -16.396700 -15.891800
H -6.245200 -16.402500 -12.804900
C -5.675600 -16.626300 -14.802400
N -4.389100 -17.115500 -14.799500
H -4.157300 -17.168000 -13.868700
H -4.149200 -17.197100 -15.710600
