9
Fragment
H -8.541800 -11.962900 -13.839100
H -8.533800 -11.992000 -15.681100
N -8.302000 -12.044500 -14.750200
C -7.015500 -12.533700 -14.747300
H -6.445900 -12.757500 -16.744800
N -6.308700 -12.763300 -13.657900
N -6.280100 -12.797600 -15.825800
N -5.103000 -13.240800 -14.113900
N -5.064800 -13.264200 -15.368800
9
Fragment
H -8.563300 -13.552100 -8.914200
H -8.555300 -13.523000 -10.756100
N -8.323500 -13.470500 -9.825300
C -7.037000 -12.981300 -9.822300
H -6.467400 -12.757500 -11.819900
N -6.330200 -12.751700 -8.732900
N -6.301500 -12.717400 -10.900900
N -5.124400 -12.274200 -9.189000
N -5.086300 -12.250800 -10.443900
18
Fragment
H -8.541800 -11.962900 -13.839100
H -8.533800 -11.992000 -15.681100
N -8.302000 -12.044500 -14.750200
C -7.015500 -12.533700 -14.747300
H -6.445900 -12.757500 -16.744800
N -6.308700 -12.763300 -13.657900
N -6.280100 -12.797600 -15.825800
N -5.103000 -13.240800 -14.113900
N -5.064800 -13.264200 -15.368800
H -8.563300 -13.552100 -8.914200
H -8.555300 -13.523000 -10.756100
N -8.323500 -13.470500 -9.825300
C -7.037000 -12.981300 -9.822300
H -6.467400 -12.757500 -11.819900
N -6.330200 -12.751700 -8.732900
N -6.301500 -12.717400 -10.900900
N -5.124400 -12.274200 -9.189000
N -5.086300 -12.250800 -10.443900
