24
Fragment
Cl -17.305500 -8.026000 -15.037400
H -15.966200 -9.509000 -13.012400
C -15.802400 -8.888900 -14.977300
C -15.379800 -9.535300 -13.837400
H -15.281800 -8.434600 -16.962200
C -15.001000 -8.929500 -16.141200
C -14.177900 -10.227300 -13.826400
H -13.872900 -10.693400 -12.982300
C -13.852200 -9.627500 -16.123100
C -13.397600 -10.298400 -14.982300
H -13.315700 -9.686700 -16.972200
N -12.217000 -11.023400 -15.069500
H -11.888800 -11.192600 -15.949700
N -11.647100 -11.220500 -12.751700
C -11.450000 -11.492900 -14.022900
N -10.592900 -11.889700 -12.139200
H -10.482100 -13.113000 -16.100100
H -10.451700 -11.877800 -11.197900
N -10.374200 -12.289800 -14.253500
C -9.797200 -12.540300 -12.999300
C -9.790000 -12.723000 -15.496500
H -9.358400 -11.937100 -15.949700
H -9.082200 -13.409100 -15.308100
O -8.799500 -13.230600 -12.768800
24
Fragment
Cl -13.919600 -17.354000 -10.024900
H -12.580400 -15.871000 -7.999900
C -12.416500 -16.491100 -9.964800
C -11.994000 -15.844700 -8.825000
H -11.896000 -16.945400 -11.949700
C -11.615100 -16.450500 -11.128700
C -10.792100 -15.152700 -8.813900
H -10.487100 -14.686600 -7.969800
C -10.466400 -15.752500 -11.110600
C -10.011800 -15.081600 -9.969800
H -9.929900 -15.693300 -11.959800
N -8.831200 -14.356600 -10.057000
H -8.502900 -14.187400 -10.937200
N -8.261300 -14.159500 -7.739300
C -8.064200 -13.887100 -9.010400
N -7.207100 -13.490300 -7.126700
H -7.096300 -12.267000 -11.087600
H -7.065900 -13.502200 -6.185400
N -6.988400 -13.090200 -9.241000
C -6.411400 -12.839700 -7.986900
C -6.404200 -12.657000 -10.484100
H -5.972600 -13.442900 -10.937200
H -5.696400 -11.970900 -10.295600
O -5.413600 -12.149400 -7.756300
48
Fragment
Cl -17.305500 -8.026000 -15.037400
H -15.966200 -9.509000 -13.012400
C -15.802400 -8.888900 -14.977300
C -15.379800 -9.535300 -13.837400
H -15.281800 -8.434600 -16.962200
C -15.001000 -8.929500 -16.141200
C -14.177900 -10.227300 -13.826400
H -13.872900 -10.693400 -12.982300
C -13.852200 -9.627500 -16.123100
C -13.397600 -10.298400 -14.982300
H -13.315700 -9.686700 -16.972200
N -12.217000 -11.023400 -15.069500
H -11.888800 -11.192600 -15.949700
N -11.647100 -11.220500 -12.751700
C -11.450000 -11.492900 -14.022900
N -10.592900 -11.889700 -12.139200
H -10.482100 -13.113000 -16.100100
H -10.451700 -11.877800 -11.197900
N -10.374200 -12.289800 -14.253500
C -9.797200 -12.540300 -12.999300
C -9.790000 -12.723000 -15.496500
H -9.358400 -11.937100 -15.949700
H -9.082200 -13.409100 -15.308100
O -8.799500 -13.230600 -12.768800
Cl -13.919600 -17.354000 -10.024900
H -12.580400 -15.871000 -7.999900
C -12.416500 -16.491100 -9.964800
C -11.994000 -15.844700 -8.825000
H -11.896000 -16.945400 -11.949700
C -11.615100 -16.450500 -11.128700
C -10.792100 -15.152700 -8.813900
H -10.487100 -14.686600 -7.969800
C -10.466400 -15.752500 -11.110600
C -10.011800 -15.081600 -9.969800
H -9.929900 -15.693300 -11.959800
N -8.831200 -14.356600 -10.057000
H -8.502900 -14.187400 -10.937200
N -8.261300 -14.159500 -7.739300
C -8.064200 -13.887100 -9.010400
N -7.207100 -13.490300 -7.126700
H -7.096300 -12.267000 -11.087600
H -7.065900 -13.502200 -6.185400
N -6.988400 -13.090200 -9.241000
C -6.411400 -12.839700 -7.986900
C -6.404200 -12.657000 -10.484100
H -5.972600 -13.442900 -10.937200
H -5.696400 -11.970900 -10.295600
O -5.413600 -12.149400 -7.756300
