24
Fragment
Cl -17.305500 -8.026000 -15.037400
H -15.966200 -9.509000 -13.012400
C -15.802400 -8.888900 -14.977300
C -15.379800 -9.535300 -13.837400
H -15.281800 -8.434600 -16.962200
C -15.001000 -8.929500 -16.141200
C -14.177900 -10.227300 -13.826400
H -13.872900 -10.693400 -12.982300
C -13.852200 -9.627500 -16.123100
C -13.397600 -10.298400 -14.982300
H -13.315700 -9.686700 -16.972200
N -12.217000 -11.023400 -15.069500
H -11.888800 -11.192600 -15.949700
N -11.647100 -11.220500 -12.751700
C -11.450000 -11.492900 -14.022900
N -10.592900 -11.889700 -12.139200
H -10.482100 -13.113000 -16.100100
H -10.451700 -11.877800 -11.197900
N -10.374200 -12.289800 -14.253500
C -9.797200 -12.540300 -12.999300
C -9.790000 -12.723000 -15.496500
H -9.358400 -11.937100 -15.949700
H -9.082200 -13.409100 -15.308100
O -8.799500 -13.230600 -12.768800
24
Fragment
Cl -24.453500 0.434000 -15.037400
H -23.114200 -1.049000 -13.012400
C -22.950400 -0.428900 -14.977300
C -22.527800 -1.075300 -13.837400
H -22.429800 0.025400 -16.962200
C -22.149000 -0.469500 -16.141200
C -21.325900 -1.767300 -13.826400
H -21.020900 -2.233400 -12.982300
C -21.000200 -1.167500 -16.123100
C -20.545600 -1.838400 -14.982300
H -20.463700 -1.226700 -16.972200
N -19.365000 -2.563400 -15.069500
H -19.036800 -2.732600 -15.949700
N -18.795100 -2.760500 -12.751700
C -18.598000 -3.032900 -14.022900
N -17.740900 -3.429700 -12.139200
H -17.630100 -4.653000 -16.100100
H -17.599700 -3.417800 -11.197900
N -17.522200 -3.829800 -14.253500
C -16.945200 -4.080300 -12.999300
C -16.938000 -4.263000 -15.496500
H -16.506400 -3.477100 -15.949700
H -16.230200 -4.949100 -15.308100
O -15.947500 -4.770600 -12.768800
48
Fragment
Cl -17.305500 -8.026000 -15.037400
H -15.966200 -9.509000 -13.012400
C -15.802400 -8.888900 -14.977300
C -15.379800 -9.535300 -13.837400
H -15.281800 -8.434600 -16.962200
C -15.001000 -8.929500 -16.141200
C -14.177900 -10.227300 -13.826400
H -13.872900 -10.693400 -12.982300
C -13.852200 -9.627500 -16.123100
C -13.397600 -10.298400 -14.982300
H -13.315700 -9.686700 -16.972200
N -12.217000 -11.023400 -15.069500
H -11.888800 -11.192600 -15.949700
N -11.647100 -11.220500 -12.751700
C -11.450000 -11.492900 -14.022900
N -10.592900 -11.889700 -12.139200
H -10.482100 -13.113000 -16.100100
H -10.451700 -11.877800 -11.197900
N -10.374200 -12.289800 -14.253500
C -9.797200 -12.540300 -12.999300
C -9.790000 -12.723000 -15.496500
H -9.358400 -11.937100 -15.949700
H -9.082200 -13.409100 -15.308100
O -8.799500 -13.230600 -12.768800
Cl -24.453500 0.434000 -15.037400
H -23.114200 -1.049000 -13.012400
C -22.950400 -0.428900 -14.977300
C -22.527800 -1.075300 -13.837400
H -22.429800 0.025400 -16.962200
C -22.149000 -0.469500 -16.141200
C -21.325900 -1.767300 -13.826400
H -21.020900 -2.233400 -12.982300
C -21.000200 -1.167500 -16.123100
C -20.545600 -1.838400 -14.982300
H -20.463700 -1.226700 -16.972200
N -19.365000 -2.563400 -15.069500
H -19.036800 -2.732600 -15.949700
N -18.795100 -2.760500 -12.751700
C -18.598000 -3.032900 -14.022900
N -17.740900 -3.429700 -12.139200
H -17.630100 -4.653000 -16.100100
H -17.599700 -3.417800 -11.197900
N -17.522200 -3.829800 -14.253500
C -16.945200 -4.080300 -12.999300
C -16.938000 -4.263000 -15.496500
H -16.506400 -3.477100 -15.949700
H -16.230200 -4.949100 -15.308100
O -15.947500 -4.770600 -12.768800
