23
Fragment
H -33.873500 -9.577400 -18.006400
H -33.432300 -10.174300 -15.646100
H -33.062800 -9.113000 -20.125700
C -32.939600 -9.613500 -18.173300
C -32.495300 -10.217500 -15.802500
C -32.459300 -9.351200 -19.431000
C -32.054800 -9.936800 -17.130700
N -31.751200 -10.523800 -14.789300
C -31.118300 -9.428500 -19.694300
H -30.809900 -9.266900 -20.578300
C -30.675600 -9.984300 -17.425700
N -30.407100 -10.552800 -15.099600
H -30.402400 -11.698400 -12.713500
C -30.205700 -9.733300 -18.710500
C -29.832700 -10.301200 -16.311400
O -29.690200 -10.002700 -11.977600
C -29.580900 -11.154000 -12.805100
C -29.386100 -10.807300 -14.227400
H -29.275900 -9.771600 -18.904400
H -28.955700 -9.995600 -11.542700
H -28.816900 -11.703400 -12.498300
N -28.517400 -10.386900 -16.195100
N -28.252300 -10.718700 -14.871500
23
Fragment
H -39.234600 -7.364900 -11.538000
H -38.822600 -6.949400 -9.143700
C -38.310200 -7.507400 -11.704900
N -37.977700 -7.789500 -12.921500
C -37.891700 -7.065000 -9.297700
H -37.458800 -9.072600 -15.418100
C -37.426800 -7.389000 -10.580000
H -37.324400 -6.692100 -7.406400
O -37.050800 -7.313800 -16.216200
C -37.007500 -6.916100 -8.273900
C -36.657100 -8.509000 -15.565000
N -36.626200 -7.968900 -13.089800
H -36.330100 -6.954400 -16.444300
H -36.041200 -9.009500 -16.157500
C -36.038300 -7.570400 -10.786900
C -35.986100 -8.281500 -14.261500
C -35.649800 -7.884500 -12.128100
C -35.625400 -7.091200 -8.490100
C -35.144100 -7.417300 -9.734900
H -35.020000 -6.982800 -7.767200
N -34.702900 -8.389900 -14.027600
N -34.479700 -8.147500 -12.671100
H -34.211600 -7.535700 -9.874800
46
Fragment
H -33.873500 -9.577400 -18.006400
H -33.432300 -10.174300 -15.646100
H -33.062800 -9.113000 -20.125700
C -32.939600 -9.613500 -18.173300
C -32.495300 -10.217500 -15.802500
C -32.459300 -9.351200 -19.431000
C -32.054800 -9.936800 -17.130700
N -31.751200 -10.523800 -14.789300
C -31.118300 -9.428500 -19.694300
H -30.809900 -9.266900 -20.578300
C -30.675600 -9.984300 -17.425700
N -30.407100 -10.552800 -15.099600
H -30.402400 -11.698400 -12.713500
C -30.205700 -9.733300 -18.710500
C -29.832700 -10.301200 -16.311400
O -29.690200 -10.002700 -11.977600
C -29.580900 -11.154000 -12.805100
C -29.386100 -10.807300 -14.227400
H -29.275900 -9.771600 -18.904400
H -28.955700 -9.995600 -11.542700
H -28.816900 -11.703400 -12.498300
N -28.517400 -10.386900 -16.195100
N -28.252300 -10.718700 -14.871500
H -39.234600 -7.364900 -11.538000
H -38.822600 -6.949400 -9.143700
C -38.310200 -7.507400 -11.704900
N -37.977700 -7.789500 -12.921500
C -37.891700 -7.065000 -9.297700
H -37.458800 -9.072600 -15.418100
C -37.426800 -7.389000 -10.580000
H -37.324400 -6.692100 -7.406400
O -37.050800 -7.313800 -16.216200
C -37.007500 -6.916100 -8.273900
C -36.657100 -8.509000 -15.565000
N -36.626200 -7.968900 -13.089800
H -36.330100 -6.954400 -16.444300
H -36.041200 -9.009500 -16.157500
C -36.038300 -7.570400 -10.786900
C -35.986100 -8.281500 -14.261500
C -35.649800 -7.884500 -12.128100
C -35.625400 -7.091200 -8.490100
C -35.144100 -7.417300 -9.734900
H -35.020000 -6.982800 -7.767200
N -34.702900 -8.389900 -14.027600
N -34.479700 -8.147500 -12.671100
H -34.211600 -7.535700 -9.874800
