23
Fragment
H -33.873500 -9.577400 -18.006400
H -33.432300 -10.174300 -15.646100
H -33.062800 -9.113000 -20.125700
C -32.939600 -9.613500 -18.173300
C -32.495300 -10.217500 -15.802500
C -32.459300 -9.351200 -19.431000
C -32.054800 -9.936800 -17.130700
N -31.751200 -10.523800 -14.789300
C -31.118300 -9.428500 -19.694300
H -30.809900 -9.266900 -20.578300
C -30.675600 -9.984300 -17.425700
N -30.407100 -10.552800 -15.099600
H -30.402400 -11.698400 -12.713500
C -30.205700 -9.733300 -18.710500
C -29.832700 -10.301200 -16.311400
O -29.690200 -10.002700 -11.977600
C -29.580900 -11.154000 -12.805100
C -29.386100 -10.807300 -14.227400
H -29.275900 -9.771600 -18.904400
H -28.955700 -9.995600 -11.542700
H -28.816900 -11.703400 -12.498300
N -28.517400 -10.386900 -16.195100
N -28.252300 -10.718700 -14.871500
23
Fragment
N -27.733200 -10.718700 -20.748700
N -27.468100 -10.386900 -22.072200
H -27.168600 -11.703400 -18.375500
H -27.029800 -9.995600 -17.419900
H -26.709600 -9.771600 -24.781600
C -26.599400 -10.807300 -20.104600
C -26.404600 -11.154000 -18.682300
O -26.295300 -10.002700 -17.854800
C -26.152800 -10.301200 -22.188600
C -25.779800 -9.733300 -24.587600
H -25.583100 -11.698400 -18.590600
N -25.578400 -10.552800 -20.976700
C -25.309900 -9.984300 -23.302900
H -25.175600 -9.266900 -26.455400
C -24.867200 -9.428500 -25.571500
N -24.234300 -10.523800 -20.666400
C -23.930700 -9.936800 -23.007900
C -23.526200 -9.351200 -25.308200
C -23.490200 -10.217500 -21.679600
C -23.045900 -9.613500 -24.050500
H -22.922700 -9.113000 -26.002900
H -22.553200 -10.174300 -21.523300
H -22.112000 -9.577400 -23.883600
46
Fragment
H -33.873500 -9.577400 -18.006400
H -33.432300 -10.174300 -15.646100
H -33.062800 -9.113000 -20.125700
C -32.939600 -9.613500 -18.173300
C -32.495300 -10.217500 -15.802500
C -32.459300 -9.351200 -19.431000
C -32.054800 -9.936800 -17.130700
N -31.751200 -10.523800 -14.789300
C -31.118300 -9.428500 -19.694300
H -30.809900 -9.266900 -20.578300
C -30.675600 -9.984300 -17.425700
N -30.407100 -10.552800 -15.099600
H -30.402400 -11.698400 -12.713500
C -30.205700 -9.733300 -18.710500
C -29.832700 -10.301200 -16.311400
O -29.690200 -10.002700 -11.977600
C -29.580900 -11.154000 -12.805100
C -29.386100 -10.807300 -14.227400
H -29.275900 -9.771600 -18.904400
H -28.955700 -9.995600 -11.542700
H -28.816900 -11.703400 -12.498300
N -28.517400 -10.386900 -16.195100
N -28.252300 -10.718700 -14.871500
N -27.733200 -10.718700 -20.748700
N -27.468100 -10.386900 -22.072200
H -27.168600 -11.703400 -18.375500
H -27.029800 -9.995600 -17.419900
H -26.709600 -9.771600 -24.781600
C -26.599400 -10.807300 -20.104600
C -26.404600 -11.154000 -18.682300
O -26.295300 -10.002700 -17.854800
C -26.152800 -10.301200 -22.188600
C -25.779800 -9.733300 -24.587600
H -25.583100 -11.698400 -18.590600
N -25.578400 -10.552800 -20.976700
C -25.309900 -9.984300 -23.302900
H -25.175600 -9.266900 -26.455400
C -24.867200 -9.428500 -25.571500
N -24.234300 -10.523800 -20.666400
C -23.930700 -9.936800 -23.007900
C -23.526200 -9.351200 -25.308200
C -23.490200 -10.217500 -21.679600
C -23.045900 -9.613500 -24.050500
H -22.922700 -9.113000 -26.002900
H -22.553200 -10.174300 -21.523300
H -22.112000 -9.577400 -23.883600
