16
Fragment
N -17.069100 -21.122200 -10.063800
N -17.069100 -17.121800 -10.063800
C -16.143700 -20.542100 -10.363900
C -16.143700 -17.701900 -10.363900
C -14.957300 -19.821900 -10.746300
C -14.957300 -18.422100 -10.746300
H -13.819900 -21.518600 -11.115300
H -13.819900 -16.725400 -11.115300
C -13.817100 -20.524300 -11.115300
C -13.817100 -17.719700 -11.115300
C -12.677800 -19.821900 -11.485100
C -12.677800 -18.422100 -11.485100
C -11.490400 -20.542100 -11.867500
C -11.490400 -17.701900 -11.867500
N -10.565100 -21.122200 -12.167600
N -10.565100 -17.121800 -12.167600
24
Fragment
H -17.795200 -20.371300 -13.286500
H -17.795200 -17.872700 -13.286500
C -17.020400 -19.801500 -13.600700
C -17.020400 -18.442500 -13.600700
C -15.938900 -20.510300 -13.974900
C -15.938900 -17.733700 -13.974900
H -15.855200 -21.493100 -13.975700
H -15.855200 -16.750900 -13.975700
C -14.761400 -19.832100 -14.413600
C -14.761400 -18.411900 -14.413600
H -13.623400 -21.493100 -14.820400
C -13.623400 -20.493700 -14.820400
C -13.623400 -17.750300 -14.820400
H -13.623400 -16.750900 -14.820400
C -12.485300 -19.832100 -15.227300
C -12.485300 -18.411900 -15.227300
H -11.391600 -21.493100 -15.665200
H -11.391600 -16.750900 -15.665200
C -11.307900 -20.510300 -15.665900
C -11.307900 -17.733700 -15.665900
C -10.226400 -19.801500 -16.040200
C -10.226400 -18.442500 -16.040200
H -9.451600 -20.371300 -16.354400
H -9.451600 -17.872700 -16.354400
40
Fragment
N -17.069100 -21.122200 -10.063800
N -17.069100 -17.121800 -10.063800
C -16.143700 -20.542100 -10.363900
C -16.143700 -17.701900 -10.363900
C -14.957300 -19.821900 -10.746300
C -14.957300 -18.422100 -10.746300
H -13.819900 -21.518600 -11.115300
H -13.819900 -16.725400 -11.115300
C -13.817100 -20.524300 -11.115300
C -13.817100 -17.719700 -11.115300
C -12.677800 -19.821900 -11.485100
C -12.677800 -18.422100 -11.485100
C -11.490400 -20.542100 -11.867500
C -11.490400 -17.701900 -11.867500
N -10.565100 -21.122200 -12.167600
N -10.565100 -17.121800 -12.167600
H -17.795200 -20.371300 -13.286500
H -17.795200 -17.872700 -13.286500
C -17.020400 -19.801500 -13.600700
C -17.020400 -18.442500 -13.600700
C -15.938900 -20.510300 -13.974900
C -15.938900 -17.733700 -13.974900
H -15.855200 -21.493100 -13.975700
H -15.855200 -16.750900 -13.975700
C -14.761400 -19.832100 -14.413600
C -14.761400 -18.411900 -14.413600
H -13.623400 -21.493100 -14.820400
C -13.623400 -20.493700 -14.820400
C -13.623400 -17.750300 -14.820400
H -13.623400 -16.750900 -14.820400
C -12.485300 -19.832100 -15.227300
C -12.485300 -18.411900 -15.227300
H -11.391600 -21.493100 -15.665200
H -11.391600 -16.750900 -15.665200
C -11.307900 -20.510300 -15.665900
C -11.307900 -17.733700 -15.665900
C -10.226400 -19.801500 -16.040200
C -10.226400 -18.442500 -16.040200
H -9.451600 -20.371300 -16.354400
H -9.451600 -17.872700 -16.354400
