16
Fragment
N -17.069100 -21.122200 -10.063800
N -17.069100 -17.121800 -10.063800
C -16.143700 -20.542100 -10.363900
C -16.143700 -17.701900 -10.363900
C -14.957300 -19.821900 -10.746300
C -14.957300 -18.422100 -10.746300
H -13.819900 -21.518600 -11.115300
H -13.819900 -16.725400 -11.115300
C -13.817100 -20.524300 -11.115300
C -13.817100 -17.719700 -11.115300
C -12.677800 -19.821900 -11.485100
C -12.677800 -18.422100 -11.485100
C -11.490400 -20.542100 -11.867500
C -11.490400 -17.701900 -11.867500
N -10.565100 -21.122200 -12.167600
N -10.565100 -17.121800 -12.167600
24
Fragment
H -18.112200 -20.371300 -5.876300
H -18.112200 -17.872700 -5.876300
C -17.337400 -19.801500 -6.190500
C -17.337400 -18.442500 -6.190500
C -16.255900 -20.510300 -6.564700
C -16.255900 -17.733700 -6.564700
H -16.172200 -21.493100 -6.565500
H -16.172200 -16.750900 -6.565500
C -15.078500 -19.832100 -7.003400
C -15.078500 -18.411900 -7.003400
H -13.940400 -21.493100 -7.410200
C -13.940400 -20.493700 -7.410200
C -13.940400 -17.750300 -7.410200
H -13.940400 -16.750900 -7.410200
C -12.802400 -19.832100 -7.817000
C -12.802400 -18.411900 -7.817000
H -11.708600 -21.493100 -8.255000
H -11.708600 -16.750900 -8.255000
C -11.625000 -20.510300 -8.255700
C -11.625000 -17.733700 -8.255700
C -10.543400 -19.801500 -8.629900
C -10.543400 -18.442500 -8.629900
H -9.768700 -20.371300 -8.944100
H -9.768700 -17.872700 -8.944100
40
Fragment
N -17.069100 -21.122200 -10.063800
N -17.069100 -17.121800 -10.063800
C -16.143700 -20.542100 -10.363900
C -16.143700 -17.701900 -10.363900
C -14.957300 -19.821900 -10.746300
C -14.957300 -18.422100 -10.746300
H -13.819900 -21.518600 -11.115300
H -13.819900 -16.725400 -11.115300
C -13.817100 -20.524300 -11.115300
C -13.817100 -17.719700 -11.115300
C -12.677800 -19.821900 -11.485100
C -12.677800 -18.422100 -11.485100
C -11.490400 -20.542100 -11.867500
C -11.490400 -17.701900 -11.867500
N -10.565100 -21.122200 -12.167600
N -10.565100 -17.121800 -12.167600
H -18.112200 -20.371300 -5.876300
H -18.112200 -17.872700 -5.876300
C -17.337400 -19.801500 -6.190500
C -17.337400 -18.442500 -6.190500
C -16.255900 -20.510300 -6.564700
C -16.255900 -17.733700 -6.564700
H -16.172200 -21.493100 -6.565500
H -16.172200 -16.750900 -6.565500
C -15.078500 -19.832100 -7.003400
C -15.078500 -18.411900 -7.003400
H -13.940400 -21.493100 -7.410200
C -13.940400 -20.493700 -7.410200
C -13.940400 -17.750300 -7.410200
H -13.940400 -16.750900 -7.410200
C -12.802400 -19.832100 -7.817000
C -12.802400 -18.411900 -7.817000
H -11.708600 -21.493100 -8.255000
H -11.708600 -16.750900 -8.255000
C -11.625000 -20.510300 -8.255700
C -11.625000 -17.733700 -8.255700
C -10.543400 -19.801500 -8.629900
C -10.543400 -18.442500 -8.629900
H -9.768700 -20.371300 -8.944100
H -9.768700 -17.872700 -8.944100
