16
Fragment
N -17.069100 -21.122200 -10.063800
N -17.069100 -17.121800 -10.063800
C -16.143700 -20.542100 -10.363900
C -16.143700 -17.701900 -10.363900
C -14.957300 -19.821900 -10.746300
C -14.957300 -18.422100 -10.746300
H -13.819900 -21.518600 -11.115300
H -13.819900 -16.725400 -11.115300
C -13.817100 -20.524300 -11.115300
C -13.817100 -17.719700 -11.115300
C -12.677800 -19.821900 -11.485100
C -12.677800 -18.422100 -11.485100
C -11.490400 -20.542100 -11.867500
C -11.490400 -17.701900 -11.867500
N -10.565100 -21.122200 -12.167600
N -10.565100 -17.121800 -12.167600
24
Fragment
H -8.290200 -20.371300 -13.286500
H -8.290200 -17.872700 -13.286500
C -7.515400 -19.801500 -13.600700
C -7.515400 -18.442500 -13.600700
C -6.433900 -20.510300 -13.974900
C -6.433900 -17.733700 -13.974900
H -6.350200 -21.493100 -13.975700
H -6.350200 -16.750900 -13.975700
C -5.256400 -19.832100 -14.413600
C -5.256400 -18.411900 -14.413600
H -4.118400 -21.493100 -14.820400
C -4.118400 -20.493700 -14.820400
C -4.118400 -17.750300 -14.820400
H -4.118400 -16.750900 -14.820400
C -2.980300 -19.832100 -15.227300
C -2.980300 -18.411900 -15.227300
H -1.886600 -21.493100 -15.665200
H -1.886600 -16.750900 -15.665200
C -1.802900 -20.510300 -15.665900
C -1.802900 -17.733700 -15.665900
C -0.721400 -19.801500 -16.040200
C -0.721400 -18.442500 -16.040200
H 0.053400 -20.371300 -16.354400
H 0.053400 -17.872700 -16.354400
40
Fragment
N -17.069100 -21.122200 -10.063800
N -17.069100 -17.121800 -10.063800
C -16.143700 -20.542100 -10.363900
C -16.143700 -17.701900 -10.363900
C -14.957300 -19.821900 -10.746300
C -14.957300 -18.422100 -10.746300
H -13.819900 -21.518600 -11.115300
H -13.819900 -16.725400 -11.115300
C -13.817100 -20.524300 -11.115300
C -13.817100 -17.719700 -11.115300
C -12.677800 -19.821900 -11.485100
C -12.677800 -18.422100 -11.485100
C -11.490400 -20.542100 -11.867500
C -11.490400 -17.701900 -11.867500
N -10.565100 -21.122200 -12.167600
N -10.565100 -17.121800 -12.167600
H -8.290200 -20.371300 -13.286500
H -8.290200 -17.872700 -13.286500
C -7.515400 -19.801500 -13.600700
C -7.515400 -18.442500 -13.600700
C -6.433900 -20.510300 -13.974900
C -6.433900 -17.733700 -13.974900
H -6.350200 -21.493100 -13.975700
H -6.350200 -16.750900 -13.975700
C -5.256400 -19.832100 -14.413600
C -5.256400 -18.411900 -14.413600
H -4.118400 -21.493100 -14.820400
C -4.118400 -20.493700 -14.820400
C -4.118400 -17.750300 -14.820400
H -4.118400 -16.750900 -14.820400
C -2.980300 -19.832100 -15.227300
C -2.980300 -18.411900 -15.227300
H -1.886600 -21.493100 -15.665200
H -1.886600 -16.750900 -15.665200
C -1.802900 -20.510300 -15.665900
C -1.802900 -17.733700 -15.665900
C -0.721400 -19.801500 -16.040200
C -0.721400 -18.442500 -16.040200
H 0.053400 -20.371300 -16.354400
H 0.053400 -17.872700 -16.354400
