16
Fragment
N -17.069100 -21.122200 -10.063800
N -17.069100 -17.121800 -10.063800
C -16.143700 -20.542100 -10.363900
C -16.143700 -17.701900 -10.363900
C -14.957300 -19.821900 -10.746300
C -14.957300 -18.422100 -10.746300
H -13.819900 -21.518600 -11.115300
H -13.819900 -16.725400 -11.115300
C -13.817100 -20.524300 -11.115300
C -13.817100 -17.719700 -11.115300
C -12.677800 -19.821900 -11.485100
C -12.677800 -18.422100 -11.485100
C -11.490400 -20.542100 -11.867500
C -11.490400 -17.701900 -11.867500
N -10.565100 -21.122200 -12.167600
N -10.565100 -17.121800 -12.167600
16
Fragment
N -26.574100 -21.122200 -10.063800
N -26.574100 -17.121800 -10.063800
C -25.648700 -20.542100 -10.363900
C -25.648700 -17.701900 -10.363900
C -24.462300 -19.821900 -10.746300
C -24.462300 -18.422100 -10.746300
H -23.324900 -21.518600 -11.115300
H -23.324900 -16.725400 -11.115300
C -23.322100 -20.524300 -11.115300
C -23.322100 -17.719700 -11.115300
C -22.182800 -19.821900 -11.485100
C -22.182800 -18.422100 -11.485100
C -20.995400 -20.542100 -11.867500
C -20.995400 -17.701900 -11.867500
N -20.070100 -21.122200 -12.167600
N -20.070100 -17.121800 -12.167600
32
Fragment
N -17.069100 -21.122200 -10.063800
N -17.069100 -17.121800 -10.063800
C -16.143700 -20.542100 -10.363900
C -16.143700 -17.701900 -10.363900
C -14.957300 -19.821900 -10.746300
C -14.957300 -18.422100 -10.746300
H -13.819900 -21.518600 -11.115300
H -13.819900 -16.725400 -11.115300
C -13.817100 -20.524300 -11.115300
C -13.817100 -17.719700 -11.115300
C -12.677800 -19.821900 -11.485100
C -12.677800 -18.422100 -11.485100
C -11.490400 -20.542100 -11.867500
C -11.490400 -17.701900 -11.867500
N -10.565100 -21.122200 -12.167600
N -10.565100 -17.121800 -12.167600
N -26.574100 -21.122200 -10.063800
N -26.574100 -17.121800 -10.063800
C -25.648700 -20.542100 -10.363900
C -25.648700 -17.701900 -10.363900
C -24.462300 -19.821900 -10.746300
C -24.462300 -18.422100 -10.746300
H -23.324900 -21.518600 -11.115300
H -23.324900 -16.725400 -11.115300
C -23.322100 -20.524300 -11.115300
C -23.322100 -17.719700 -11.115300
C -22.182800 -19.821900 -11.485100
C -22.182800 -18.422100 -11.485100
C -20.995400 -20.542100 -11.867500
C -20.995400 -17.701900 -11.867500
N -20.070100 -21.122200 -12.167600
N -20.070100 -17.121800 -12.167600
