38
Fragment
H -37.061700 -19.729400 -10.806600
H -36.956600 -19.625900 -9.462800
C -36.564900 -19.982200 -10.071000
H -36.549500 -20.968500 -10.021700
C -35.150300 -19.552500 -10.046800
O -35.038000 -18.213000 -9.904500
O -34.284000 -16.022200 -7.989300
O -34.186500 -20.271400 -10.159800
H -33.805200 -16.794400 -10.276400
C -33.706300 -17.671900 -9.922400
N -33.458500 -16.859100 -7.669200
H -33.130200 -18.220700 -10.513700
N -33.064900 -17.767000 -8.641300
O -32.930700 -16.973700 -6.581100
H -32.418200 -19.232300 -7.406500
H -32.210500 -19.547000 -8.863100
C -32.164400 -18.826500 -8.241400
H -30.822100 -18.203200 -6.096900
O -30.819200 -20.628100 -6.211700
N -30.791200 -18.397000 -8.089600
O -30.669300 -18.263700 -10.284700
C -30.122100 -18.202600 -6.819500
N -30.070300 -18.182200 -9.216900
H -29.673400 -17.421300 -6.780200
N -29.609400 -20.479400 -6.200300
N -29.131000 -19.224900 -6.515000
O -28.878300 -17.927400 -9.082300
O -28.759300 -21.337400 -5.970800
O -27.882200 -16.707400 -5.166000
C -27.717200 -18.993400 -6.480100
H -27.576000 -18.139000 -7.028100
C -27.304800 -17.601000 -4.611200
H -27.300800 -19.927500 -6.841300
O -27.215400 -18.849900 -5.140900
H -26.987000 -16.961300 -2.837700
C -26.584000 -17.516300 -3.310600
H -26.566700 -18.275900 -2.842800
H -25.763600 -17.360100 -3.403700
14
Fragment
H -32.108300 -13.424400 -1.575200
H -32.058400 -14.691800 -0.417200
O -31.655400 -15.227400 -2.214400
H -31.583600 -13.843200 -3.623900
C -31.577300 -14.300100 -1.147000
C -30.985300 -14.702100 -3.355900
H -30.935100 -15.337200 -4.080800
H -30.193600 -13.232800 -0.118400
C -30.148200 -13.986900 -0.823400
H -29.608100 -14.836600 -0.731400
C -29.553800 -14.365600 -3.031500
O -29.485600 -13.436300 -1.960800
H -29.011100 -15.246300 -2.783100
H -28.965000 -13.955800 -3.761100
52
Fragment
H -37.061700 -19.729400 -10.806600
H -36.956600 -19.625900 -9.462800
C -36.564900 -19.982200 -10.071000
H -36.549500 -20.968500 -10.021700
C -35.150300 -19.552500 -10.046800
O -35.038000 -18.213000 -9.904500
O -34.284000 -16.022200 -7.989300
O -34.186500 -20.271400 -10.159800
H -33.805200 -16.794400 -10.276400
C -33.706300 -17.671900 -9.922400
N -33.458500 -16.859100 -7.669200
H -33.130200 -18.220700 -10.513700
N -33.064900 -17.767000 -8.641300
O -32.930700 -16.973700 -6.581100
H -32.418200 -19.232300 -7.406500
H -32.210500 -19.547000 -8.863100
C -32.164400 -18.826500 -8.241400
H -30.822100 -18.203200 -6.096900
O -30.819200 -20.628100 -6.211700
N -30.791200 -18.397000 -8.089600
O -30.669300 -18.263700 -10.284700
C -30.122100 -18.202600 -6.819500
N -30.070300 -18.182200 -9.216900
H -29.673400 -17.421300 -6.780200
N -29.609400 -20.479400 -6.200300
N -29.131000 -19.224900 -6.515000
O -28.878300 -17.927400 -9.082300
O -28.759300 -21.337400 -5.970800
O -27.882200 -16.707400 -5.166000
C -27.717200 -18.993400 -6.480100
H -27.576000 -18.139000 -7.028100
C -27.304800 -17.601000 -4.611200
H -27.300800 -19.927500 -6.841300
O -27.215400 -18.849900 -5.140900
H -26.987000 -16.961300 -2.837700
C -26.584000 -17.516300 -3.310600
H -26.566700 -18.275900 -2.842800
H -25.763600 -17.360100 -3.403700
H -32.108300 -13.424400 -1.575200
H -32.058400 -14.691800 -0.417200
O -31.655400 -15.227400 -2.214400
H -31.583600 -13.843200 -3.623900
C -31.577300 -14.300100 -1.147000
C -30.985300 -14.702100 -3.355900
H -30.935100 -15.337200 -4.080800
H -30.193600 -13.232800 -0.118400
C -30.148200 -13.986900 -0.823400
H -29.608100 -14.836600 -0.731400
C -29.553800 -14.365600 -3.031500
O -29.485600 -13.436300 -1.960800
H -29.011100 -15.246300 -2.783100
H -28.965000 -13.955800 -3.761100
