38
Fragment
H -37.061700 -19.729400 -10.806600
H -36.956600 -19.625900 -9.462800
C -36.564900 -19.982200 -10.071000
H -36.549500 -20.968500 -10.021700
C -35.150300 -19.552500 -10.046800
O -35.038000 -18.213000 -9.904500
O -34.284000 -16.022200 -7.989300
O -34.186500 -20.271400 -10.159800
H -33.805200 -16.794400 -10.276400
C -33.706300 -17.671900 -9.922400
N -33.458500 -16.859100 -7.669200
H -33.130200 -18.220700 -10.513700
N -33.064900 -17.767000 -8.641300
O -32.930700 -16.973700 -6.581100
H -32.418200 -19.232300 -7.406500
H -32.210500 -19.547000 -8.863100
C -32.164400 -18.826500 -8.241400
H -30.822100 -18.203200 -6.096900
O -30.819200 -20.628100 -6.211700
N -30.791200 -18.397000 -8.089600
O -30.669300 -18.263700 -10.284700
C -30.122100 -18.202600 -6.819500
N -30.070300 -18.182200 -9.216900
H -29.673400 -17.421300 -6.780200
N -29.609400 -20.479400 -6.200300
N -29.131000 -19.224900 -6.515000
O -28.878300 -17.927400 -9.082300
O -28.759300 -21.337400 -5.970800
O -27.882200 -16.707400 -5.166000
C -27.717200 -18.993400 -6.480100
H -27.576000 -18.139000 -7.028100
C -27.304800 -17.601000 -4.611200
H -27.300800 -19.927500 -6.841300
O -27.215400 -18.849900 -5.140900
H -26.987000 -16.961300 -2.837700
C -26.584000 -17.516300 -3.310600
H -26.566700 -18.275900 -2.842800
H -25.763600 -17.360100 -3.403700
14
Fragment
H -42.034800 -21.145600 -11.255200
H -41.984900 -19.878200 -10.097200
O -41.581900 -19.342600 -11.894400
H -41.510100 -20.726800 -13.303900
C -41.503800 -20.269900 -10.827000
C -40.911700 -19.867900 -13.036000
H -40.861500 -19.232800 -13.760900
H -40.120100 -21.337200 -9.798500
C -40.074600 -20.583100 -10.503500
H -39.534600 -19.733400 -10.411400
C -39.480200 -20.204400 -12.711500
O -39.412100 -21.133700 -11.640800
H -38.937600 -19.323700 -12.463200
H -38.891400 -20.614200 -13.441200
52
Fragment
H -37.061700 -19.729400 -10.806600
H -36.956600 -19.625900 -9.462800
C -36.564900 -19.982200 -10.071000
H -36.549500 -20.968500 -10.021700
C -35.150300 -19.552500 -10.046800
O -35.038000 -18.213000 -9.904500
O -34.284000 -16.022200 -7.989300
O -34.186500 -20.271400 -10.159800
H -33.805200 -16.794400 -10.276400
C -33.706300 -17.671900 -9.922400
N -33.458500 -16.859100 -7.669200
H -33.130200 -18.220700 -10.513700
N -33.064900 -17.767000 -8.641300
O -32.930700 -16.973700 -6.581100
H -32.418200 -19.232300 -7.406500
H -32.210500 -19.547000 -8.863100
C -32.164400 -18.826500 -8.241400
H -30.822100 -18.203200 -6.096900
O -30.819200 -20.628100 -6.211700
N -30.791200 -18.397000 -8.089600
O -30.669300 -18.263700 -10.284700
C -30.122100 -18.202600 -6.819500
N -30.070300 -18.182200 -9.216900
H -29.673400 -17.421300 -6.780200
N -29.609400 -20.479400 -6.200300
N -29.131000 -19.224900 -6.515000
O -28.878300 -17.927400 -9.082300
O -28.759300 -21.337400 -5.970800
O -27.882200 -16.707400 -5.166000
C -27.717200 -18.993400 -6.480100
H -27.576000 -18.139000 -7.028100
C -27.304800 -17.601000 -4.611200
H -27.300800 -19.927500 -6.841300
O -27.215400 -18.849900 -5.140900
H -26.987000 -16.961300 -2.837700
C -26.584000 -17.516300 -3.310600
H -26.566700 -18.275900 -2.842800
H -25.763600 -17.360100 -3.403700
H -42.034800 -21.145600 -11.255200
H -41.984900 -19.878200 -10.097200
O -41.581900 -19.342600 -11.894400
H -41.510100 -20.726800 -13.303900
C -41.503800 -20.269900 -10.827000
C -40.911700 -19.867900 -13.036000
H -40.861500 -19.232800 -13.760900
H -40.120100 -21.337200 -9.798500
C -40.074600 -20.583100 -10.503500
H -39.534600 -19.733400 -10.411400
C -39.480200 -20.204400 -12.711500
O -39.412100 -21.133700 -11.640800
H -38.937600 -19.323700 -12.463200
H -38.891400 -20.614200 -13.441200
