38
Fragment
H -37.061700 -19.729400 -10.806600
H -36.956600 -19.625900 -9.462800
C -36.564900 -19.982200 -10.071000
H -36.549500 -20.968500 -10.021700
C -35.150300 -19.552500 -10.046800
O -35.038000 -18.213000 -9.904500
O -34.284000 -16.022200 -7.989300
O -34.186500 -20.271400 -10.159800
H -33.805200 -16.794400 -10.276400
C -33.706300 -17.671900 -9.922400
N -33.458500 -16.859100 -7.669200
H -33.130200 -18.220700 -10.513700
N -33.064900 -17.767000 -8.641300
O -32.930700 -16.973700 -6.581100
H -32.418200 -19.232300 -7.406500
H -32.210500 -19.547000 -8.863100
C -32.164400 -18.826500 -8.241400
H -30.822100 -18.203200 -6.096900
O -30.819200 -20.628100 -6.211700
N -30.791200 -18.397000 -8.089600
O -30.669300 -18.263700 -10.284700
C -30.122100 -18.202600 -6.819500
N -30.070300 -18.182200 -9.216900
H -29.673400 -17.421300 -6.780200
N -29.609400 -20.479400 -6.200300
N -29.131000 -19.224900 -6.515000
O -28.878300 -17.927400 -9.082300
O -28.759300 -21.337400 -5.970800
O -27.882200 -16.707400 -5.166000
C -27.717200 -18.993400 -6.480100
H -27.576000 -18.139000 -7.028100
C -27.304800 -17.601000 -4.611200
H -27.300800 -19.927500 -6.841300
O -27.215400 -18.849900 -5.140900
H -26.987000 -16.961300 -2.837700
C -26.584000 -17.516300 -3.310600
H -26.566700 -18.275900 -2.842800
H -25.763600 -17.360100 -3.403700
14
Fragment
H -25.229500 -20.869800 -5.918900
H -25.183300 -22.160300 -6.896900
O -24.708800 -20.350300 -7.719200
C -24.640600 -21.279600 -6.648600
H -24.586300 -21.750600 -8.948700
C -24.046200 -20.900900 -8.856600
H -24.000800 -20.146800 -9.561600
H -23.259400 -22.251200 -5.599200
C -23.209200 -21.616100 -6.324100
C -22.617100 -21.214100 -8.533100
H -22.610800 -20.757200 -6.056200
O -22.539000 -22.141400 -7.465600
H -22.136000 -21.605800 -9.262800
H -22.086100 -20.338400 -8.104800
52
Fragment
H -37.061700 -19.729400 -10.806600
H -36.956600 -19.625900 -9.462800
C -36.564900 -19.982200 -10.071000
H -36.549500 -20.968500 -10.021700
C -35.150300 -19.552500 -10.046800
O -35.038000 -18.213000 -9.904500
O -34.284000 -16.022200 -7.989300
O -34.186500 -20.271400 -10.159800
H -33.805200 -16.794400 -10.276400
C -33.706300 -17.671900 -9.922400
N -33.458500 -16.859100 -7.669200
H -33.130200 -18.220700 -10.513700
N -33.064900 -17.767000 -8.641300
O -32.930700 -16.973700 -6.581100
H -32.418200 -19.232300 -7.406500
H -32.210500 -19.547000 -8.863100
C -32.164400 -18.826500 -8.241400
H -30.822100 -18.203200 -6.096900
O -30.819200 -20.628100 -6.211700
N -30.791200 -18.397000 -8.089600
O -30.669300 -18.263700 -10.284700
C -30.122100 -18.202600 -6.819500
N -30.070300 -18.182200 -9.216900
H -29.673400 -17.421300 -6.780200
N -29.609400 -20.479400 -6.200300
N -29.131000 -19.224900 -6.515000
O -28.878300 -17.927400 -9.082300
O -28.759300 -21.337400 -5.970800
O -27.882200 -16.707400 -5.166000
C -27.717200 -18.993400 -6.480100
H -27.576000 -18.139000 -7.028100
C -27.304800 -17.601000 -4.611200
H -27.300800 -19.927500 -6.841300
O -27.215400 -18.849900 -5.140900
H -26.987000 -16.961300 -2.837700
C -26.584000 -17.516300 -3.310600
H -26.566700 -18.275900 -2.842800
H -25.763600 -17.360100 -3.403700
H -25.229500 -20.869800 -5.918900
H -25.183300 -22.160300 -6.896900
O -24.708800 -20.350300 -7.719200
C -24.640600 -21.279600 -6.648600
H -24.586300 -21.750600 -8.948700
C -24.046200 -20.900900 -8.856600
H -24.000800 -20.146800 -9.561600
H -23.259400 -22.251200 -5.599200
C -23.209200 -21.616100 -6.324100
C -22.617100 -21.214100 -8.533100
H -22.610800 -20.757200 -6.056200
O -22.539000 -22.141400 -7.465600
H -22.136000 -21.605800 -9.262800
H -22.086100 -20.338400 -8.104800
