27
Fragment
H -20.864300 -18.281900 -15.022600
H -20.424200 -18.409000 -17.294900
N -20.059000 -18.294800 -15.445600
H -20.056100 -17.381300 -13.220800
N -20.039200 -18.969100 -16.689600
H -19.726800 -16.397200 -8.509400
N -19.423200 -15.554600 -8.670200
H -19.162800 -19.075200 -16.911000
H -19.145100 -15.000200 -8.004200
N -19.125300 -16.239200 -10.886500
C -19.093700 -17.391100 -13.451100
C -18.976900 -15.322900 -9.911900
C -18.937600 -17.914700 -14.854300
H -18.643100 -18.014300 -12.827600
N -18.608800 -15.563500 -11.965800
C -18.535000 -16.015000 -13.242000
N -18.390400 -14.144100 -10.281800
C -18.172700 -14.308300 -11.587800
C -17.996300 -15.144000 -14.151700
H -17.906000 -15.404200 -15.060400
O -17.822600 -18.025200 -15.391700
H -17.792900 -12.393800 -15.151400
N -17.652600 -13.447700 -12.470000
C -17.574200 -13.854700 -13.739100
C -17.045700 -12.878000 -14.741900
H -16.548300 -13.358800 -15.435900
H -16.449600 -12.241300 -14.295100
27
Fragment
H -19.450100 -26.112900 -19.382100
H -19.351400 -24.995400 -18.241200
C -18.854100 -25.476300 -18.935300
C -18.325500 -24.499500 -19.938100
N -18.247100 -24.906500 -21.207200
H -18.106800 -25.960400 -18.525800
O -18.077100 -20.329000 -18.285500
H -17.993800 -22.950000 -18.616700
C -17.903400 -23.210200 -19.525500
C -17.727000 -24.045900 -22.089400
N -17.509300 -24.210100 -23.395400
C -17.364700 -22.339200 -20.435100
N -17.290900 -22.790800 -21.711300
H -17.256600 -20.339900 -20.849500
C -16.962100 -20.439600 -18.822900
C -16.922800 -23.031300 -23.765300
C -16.806000 -20.963200 -20.226100
N -16.774400 -22.115100 -22.790700
H -16.754600 -23.354000 -25.673000
H -16.736900 -19.279000 -16.766200
N -16.476500 -22.799700 -25.007000
H -16.172900 -21.957000 -25.167800
N -15.860600 -19.385100 -16.987600
H -15.843600 -20.973000 -20.456400
N -15.840700 -20.059500 -18.231600
H -15.475600 -19.945200 -16.382300
H -15.035400 -20.072300 -18.654600
54
Fragment
H -20.864300 -18.281900 -15.022600
H -20.424200 -18.409000 -17.294900
N -20.059000 -18.294800 -15.445600
H -20.056100 -17.381300 -13.220800
N -20.039200 -18.969100 -16.689600
H -19.726800 -16.397200 -8.509400
N -19.423200 -15.554600 -8.670200
H -19.162800 -19.075200 -16.911000
H -19.145100 -15.000200 -8.004200
N -19.125300 -16.239200 -10.886500
C -19.093700 -17.391100 -13.451100
C -18.976900 -15.322900 -9.911900
C -18.937600 -17.914700 -14.854300
H -18.643100 -18.014300 -12.827600
N -18.608800 -15.563500 -11.965800
C -18.535000 -16.015000 -13.242000
N -18.390400 -14.144100 -10.281800
C -18.172700 -14.308300 -11.587800
C -17.996300 -15.144000 -14.151700
H -17.906000 -15.404200 -15.060400
O -17.822600 -18.025200 -15.391700
H -17.792900 -12.393800 -15.151400
N -17.652600 -13.447700 -12.470000
C -17.574200 -13.854700 -13.739100
C -17.045700 -12.878000 -14.741900
H -16.548300 -13.358800 -15.435900
H -16.449600 -12.241300 -14.295100
H -19.450100 -26.112900 -19.382100
H -19.351400 -24.995400 -18.241200
C -18.854100 -25.476300 -18.935300
C -18.325500 -24.499500 -19.938100
N -18.247100 -24.906500 -21.207200
H -18.106800 -25.960400 -18.525800
O -18.077100 -20.329000 -18.285500
H -17.993800 -22.950000 -18.616700
C -17.903400 -23.210200 -19.525500
C -17.727000 -24.045900 -22.089400
N -17.509300 -24.210100 -23.395400
C -17.364700 -22.339200 -20.435100
N -17.290900 -22.790800 -21.711300
H -17.256600 -20.339900 -20.849500
C -16.962100 -20.439600 -18.822900
C -16.922800 -23.031300 -23.765300
C -16.806000 -20.963200 -20.226100
N -16.774400 -22.115100 -22.790700
H -16.754600 -23.354000 -25.673000
H -16.736900 -19.279000 -16.766200
N -16.476500 -22.799700 -25.007000
H -16.172900 -21.957000 -25.167800
N -15.860600 -19.385100 -16.987600
H -15.843600 -20.973000 -20.456400
N -15.840700 -20.059500 -18.231600
H -15.475600 -19.945200 -16.382300
H -15.035400 -20.072300 -18.654600
