27
Fragment
H -20.864300 -18.281900 -15.022600
H -20.424200 -18.409000 -17.294900
N -20.059000 -18.294800 -15.445600
H -20.056100 -17.381300 -13.220800
N -20.039200 -18.969100 -16.689600
H -19.726800 -16.397200 -8.509400
N -19.423200 -15.554600 -8.670200
H -19.162800 -19.075200 -16.911000
H -19.145100 -15.000200 -8.004200
N -19.125300 -16.239200 -10.886500
C -19.093700 -17.391100 -13.451100
C -18.976900 -15.322900 -9.911900
C -18.937600 -17.914700 -14.854300
H -18.643100 -18.014300 -12.827600
N -18.608800 -15.563500 -11.965800
C -18.535000 -16.015000 -13.242000
N -18.390400 -14.144100 -10.281800
C -18.172700 -14.308300 -11.587800
C -17.996300 -15.144000 -14.151700
H -17.906000 -15.404200 -15.060400
O -17.822600 -18.025200 -15.391700
H -17.792900 -12.393800 -15.151400
N -17.652600 -13.447700 -12.470000
C -17.574200 -13.854700 -13.739100
C -17.045700 -12.878000 -14.741900
H -16.548300 -13.358800 -15.435900
H -16.449600 -12.241300 -14.295100
27
Fragment
H -23.702900 -19.174800 -23.441800
H -23.262800 -19.301900 -25.714200
N -22.897600 -19.187700 -23.864900
H -22.894700 -18.274200 -21.640100
N -22.877800 -19.862000 -25.108900
H -22.565400 -17.290100 -16.928700
N -22.261800 -16.447500 -17.089500
H -22.001500 -19.968100 -25.330300
H -21.983700 -15.893100 -16.423500
N -21.963900 -17.132100 -19.305800
C -21.932300 -18.284000 -21.870400
C -21.815500 -16.215800 -18.331200
C -21.776200 -18.807600 -23.273600
H -21.481700 -18.907200 -21.246900
N -21.447400 -16.456400 -20.385100
C -21.373600 -16.907900 -21.661300
N -21.229000 -15.037000 -18.701100
C -21.011300 -15.201200 -20.007100
C -20.834900 -16.036900 -22.571000
H -20.744600 -16.297100 -23.479700
O -20.661200 -18.918100 -23.811000
H -20.631500 -13.286700 -23.570700
N -20.491200 -14.340600 -20.889300
C -20.412800 -14.747700 -22.158400
C -19.884300 -13.770900 -23.161100
H -19.387000 -14.251700 -23.855200
H -19.288200 -13.134200 -22.714400
54
Fragment
H -20.864300 -18.281900 -15.022600
H -20.424200 -18.409000 -17.294900
N -20.059000 -18.294800 -15.445600
H -20.056100 -17.381300 -13.220800
N -20.039200 -18.969100 -16.689600
H -19.726800 -16.397200 -8.509400
N -19.423200 -15.554600 -8.670200
H -19.162800 -19.075200 -16.911000
H -19.145100 -15.000200 -8.004200
N -19.125300 -16.239200 -10.886500
C -19.093700 -17.391100 -13.451100
C -18.976900 -15.322900 -9.911900
C -18.937600 -17.914700 -14.854300
H -18.643100 -18.014300 -12.827600
N -18.608800 -15.563500 -11.965800
C -18.535000 -16.015000 -13.242000
N -18.390400 -14.144100 -10.281800
C -18.172700 -14.308300 -11.587800
C -17.996300 -15.144000 -14.151700
H -17.906000 -15.404200 -15.060400
O -17.822600 -18.025200 -15.391700
H -17.792900 -12.393800 -15.151400
N -17.652600 -13.447700 -12.470000
C -17.574200 -13.854700 -13.739100
C -17.045700 -12.878000 -14.741900
H -16.548300 -13.358800 -15.435900
H -16.449600 -12.241300 -14.295100
H -23.702900 -19.174800 -23.441800
H -23.262800 -19.301900 -25.714200
N -22.897600 -19.187700 -23.864900
H -22.894700 -18.274200 -21.640100
N -22.877800 -19.862000 -25.108900
H -22.565400 -17.290100 -16.928700
N -22.261800 -16.447500 -17.089500
H -22.001500 -19.968100 -25.330300
H -21.983700 -15.893100 -16.423500
N -21.963900 -17.132100 -19.305800
C -21.932300 -18.284000 -21.870400
C -21.815500 -16.215800 -18.331200
C -21.776200 -18.807600 -23.273600
H -21.481700 -18.907200 -21.246900
N -21.447400 -16.456400 -20.385100
C -21.373600 -16.907900 -21.661300
N -21.229000 -15.037000 -18.701100
C -21.011300 -15.201200 -20.007100
C -20.834900 -16.036900 -22.571000
H -20.744600 -16.297100 -23.479700
O -20.661200 -18.918100 -23.811000
H -20.631500 -13.286700 -23.570700
N -20.491200 -14.340600 -20.889300
C -20.412800 -14.747700 -22.158400
C -19.884300 -13.770900 -23.161100
H -19.387000 -14.251700 -23.855200
H -19.288200 -13.134200 -22.714400
