20
Fragment
H -9.947700 -15.740900 -19.473200
H -9.873900 -17.298100 -19.760500
N -9.544400 -16.554300 -19.360200
H -8.741500 -19.327200 -19.574100
C -8.514900 -16.615300 -18.509000
C -8.099400 -19.169900 -18.891700
O -8.089500 -15.611900 -17.911600
C -7.885200 -17.915100 -18.286800
N -7.303600 -20.102600 -18.398100
C -6.877100 -18.159300 -17.353900
H -6.569500 -16.421400 -16.535000
N -6.554000 -19.458000 -17.454200
N -6.308900 -17.265800 -16.456600
H -5.957200 -19.894700 -16.967400
H -5.395100 -15.704900 -14.784800
C -5.362500 -17.607100 -15.540600
O -4.958300 -18.765700 -15.447200
H -4.874900 -16.789000 -13.728100
C -4.842200 -16.504600 -14.665600
H -3.915700 -16.301000 -14.913300
20
Fragment
H -18.142100 -15.841500 -25.896600
C -17.192900 -16.082300 -25.925500
H -17.047700 -16.899500 -25.403400
H -16.923200 -16.235200 -26.855300
O -16.588500 -13.785900 -25.605800
C -16.376200 -14.967400 -25.345200
N -15.375100 -15.326200 -24.489100
H -15.245500 -16.184200 -24.327400
H -15.178000 -12.662500 -24.541500
N -14.606900 -13.093100 -23.998200
C -14.542100 -14.422000 -23.848800
O -13.755100 -17.015600 -22.897200
N -13.661200 -12.444800 -23.252400
C -13.509700 -14.684900 -22.948100
C -13.116900 -16.019500 -22.493600
C -13.007200 -13.411300 -22.624400
H -12.284700 -13.262300 -22.026000
N -12.113600 -16.117600 -21.625800
H -11.866500 -16.928100 -21.332500
H -11.682000 -15.387000 -21.336700
40
Fragment
H -9.947700 -15.740900 -19.473200
H -9.873900 -17.298100 -19.760500
N -9.544400 -16.554300 -19.360200
H -8.741500 -19.327200 -19.574100
C -8.514900 -16.615300 -18.509000
C -8.099400 -19.169900 -18.891700
O -8.089500 -15.611900 -17.911600
C -7.885200 -17.915100 -18.286800
N -7.303600 -20.102600 -18.398100
C -6.877100 -18.159300 -17.353900
H -6.569500 -16.421400 -16.535000
N -6.554000 -19.458000 -17.454200
N -6.308900 -17.265800 -16.456600
H -5.957200 -19.894700 -16.967400
H -5.395100 -15.704900 -14.784800
C -5.362500 -17.607100 -15.540600
O -4.958300 -18.765700 -15.447200
H -4.874900 -16.789000 -13.728100
C -4.842200 -16.504600 -14.665600
H -3.915700 -16.301000 -14.913300
H -18.142100 -15.841500 -25.896600
C -17.192900 -16.082300 -25.925500
H -17.047700 -16.899500 -25.403400
H -16.923200 -16.235200 -26.855300
O -16.588500 -13.785900 -25.605800
C -16.376200 -14.967400 -25.345200
N -15.375100 -15.326200 -24.489100
H -15.245500 -16.184200 -24.327400
H -15.178000 -12.662500 -24.541500
N -14.606900 -13.093100 -23.998200
C -14.542100 -14.422000 -23.848800
O -13.755100 -17.015600 -22.897200
N -13.661200 -12.444800 -23.252400
C -13.509700 -14.684900 -22.948100
C -13.116900 -16.019500 -22.493600
C -13.007200 -13.411300 -22.624400
H -12.284700 -13.262300 -22.026000
N -12.113600 -16.117600 -21.625800
H -11.866500 -16.928100 -21.332500
H -11.682000 -15.387000 -21.336700
