20
Fragment
H -9.947700 -15.740900 -19.473200
H -9.873900 -17.298100 -19.760500
N -9.544400 -16.554300 -19.360200
H -8.741500 -19.327200 -19.574100
C -8.514900 -16.615300 -18.509000
C -8.099400 -19.169900 -18.891700
O -8.089500 -15.611900 -17.911600
C -7.885200 -17.915100 -18.286800
N -7.303600 -20.102600 -18.398100
C -6.877100 -18.159300 -17.353900
H -6.569500 -16.421400 -16.535000
N -6.554000 -19.458000 -17.454200
N -6.308900 -17.265800 -16.456600
H -5.957200 -19.894700 -16.967400
H -5.395100 -15.704900 -14.784800
C -5.362500 -17.607100 -15.540600
O -4.958300 -18.765700 -15.447200
H -4.874900 -16.789000 -13.728100
C -4.842200 -16.504600 -14.665600
H -3.915700 -16.301000 -14.913300
20
Fragment
H -2.904300 -15.841500 -12.082900
C -1.955100 -16.082300 -12.111700
H -1.809900 -16.899500 -11.589700
H -1.685400 -16.235200 -13.041500
O -1.350700 -13.785900 -11.792100
C -1.138400 -14.967400 -11.531400
N -0.137300 -15.326200 -10.675400
H -0.007700 -16.184200 -10.513600
H 0.059800 -12.662500 -10.727700
N 0.630900 -13.093100 -10.184400
C 0.695700 -14.422000 -10.035100
O 1.482700 -17.015600 -9.083500
N 1.576600 -12.444800 -9.438600
C 1.728100 -14.684900 -9.134300
C 2.120900 -16.019500 -8.679900
C 2.230600 -13.411300 -8.810700
H 2.953100 -13.262300 -8.212300
N 3.124200 -16.117600 -7.812100
H 3.371300 -16.928100 -7.518800
H 3.555800 -15.387000 -7.523000
40
Fragment
H -9.947700 -15.740900 -19.473200
H -9.873900 -17.298100 -19.760500
N -9.544400 -16.554300 -19.360200
H -8.741500 -19.327200 -19.574100
C -8.514900 -16.615300 -18.509000
C -8.099400 -19.169900 -18.891700
O -8.089500 -15.611900 -17.911600
C -7.885200 -17.915100 -18.286800
N -7.303600 -20.102600 -18.398100
C -6.877100 -18.159300 -17.353900
H -6.569500 -16.421400 -16.535000
N -6.554000 -19.458000 -17.454200
N -6.308900 -17.265800 -16.456600
H -5.957200 -19.894700 -16.967400
H -5.395100 -15.704900 -14.784800
C -5.362500 -17.607100 -15.540600
O -4.958300 -18.765700 -15.447200
H -4.874900 -16.789000 -13.728100
C -4.842200 -16.504600 -14.665600
H -3.915700 -16.301000 -14.913300
H -2.904300 -15.841500 -12.082900
C -1.955100 -16.082300 -12.111700
H -1.809900 -16.899500 -11.589700
H -1.685400 -16.235200 -13.041500
O -1.350700 -13.785900 -11.792100
C -1.138400 -14.967400 -11.531400
N -0.137300 -15.326200 -10.675400
H -0.007700 -16.184200 -10.513600
H 0.059800 -12.662500 -10.727700
N 0.630900 -13.093100 -10.184400
C 0.695700 -14.422000 -10.035100
O 1.482700 -17.015600 -9.083500
N 1.576600 -12.444800 -9.438600
C 1.728100 -14.684900 -9.134300
C 2.120900 -16.019500 -8.679900
C 2.230600 -13.411300 -8.810700
H 2.953100 -13.262300 -8.212300
N 3.124200 -16.117600 -7.812100
H 3.371300 -16.928100 -7.518800
H 3.555800 -15.387000 -7.523000
