20
Fragment
H -9.947700 -15.740900 -19.473200
H -9.873900 -17.298100 -19.760500
N -9.544400 -16.554300 -19.360200
H -8.741500 -19.327200 -19.574100
C -8.514900 -16.615300 -18.509000
C -8.099400 -19.169900 -18.891700
O -8.089500 -15.611900 -17.911600
C -7.885200 -17.915100 -18.286800
N -7.303600 -20.102600 -18.398100
C -6.877100 -18.159300 -17.353900
H -6.569500 -16.421400 -16.535000
N -6.554000 -19.458000 -17.454200
N -6.308900 -17.265800 -16.456600
H -5.957200 -19.894700 -16.967400
H -5.395100 -15.704900 -14.784800
C -5.362500 -17.607100 -15.540600
O -4.958300 -18.765700 -15.447200
H -4.874900 -16.789000 -13.728100
C -4.842200 -16.504600 -14.665600
H -3.915700 -16.301000 -14.913300
20
Fragment
H -4.645500 -21.866700 -20.104500
H -4.461000 -20.325600 -20.108600
N -4.213900 -21.136100 -19.815400
H -4.042800 -23.991400 -19.415200
C -3.320300 -23.842400 -18.816800
C -3.210600 -21.234200 -18.947600
C -2.817800 -22.568800 -18.493100
N -2.666300 -24.808900 -18.188800
O -2.572400 -20.238100 -18.544000
C -1.785400 -22.831700 -17.592300
N -1.720600 -24.160600 -17.443000
H -1.149500 -24.591200 -16.899700
H -1.082000 -21.069500 -17.113800
N -0.952400 -21.927500 -16.952100
C 0.048700 -22.286300 -16.096000
O 0.261000 -23.467800 -15.835400
H 0.595700 -21.018500 -14.585900
H 0.720200 -20.354200 -16.037700
C 0.865400 -21.171400 -15.515700
H 1.814600 -21.412200 -15.544600
40
Fragment
H -9.947700 -15.740900 -19.473200
H -9.873900 -17.298100 -19.760500
N -9.544400 -16.554300 -19.360200
H -8.741500 -19.327200 -19.574100
C -8.514900 -16.615300 -18.509000
C -8.099400 -19.169900 -18.891700
O -8.089500 -15.611900 -17.911600
C -7.885200 -17.915100 -18.286800
N -7.303600 -20.102600 -18.398100
C -6.877100 -18.159300 -17.353900
H -6.569500 -16.421400 -16.535000
N -6.554000 -19.458000 -17.454200
N -6.308900 -17.265800 -16.456600
H -5.957200 -19.894700 -16.967400
H -5.395100 -15.704900 -14.784800
C -5.362500 -17.607100 -15.540600
O -4.958300 -18.765700 -15.447200
H -4.874900 -16.789000 -13.728100
C -4.842200 -16.504600 -14.665600
H -3.915700 -16.301000 -14.913300
H -4.645500 -21.866700 -20.104500
H -4.461000 -20.325600 -20.108600
N -4.213900 -21.136100 -19.815400
H -4.042800 -23.991400 -19.415200
C -3.320300 -23.842400 -18.816800
C -3.210600 -21.234200 -18.947600
C -2.817800 -22.568800 -18.493100
N -2.666300 -24.808900 -18.188800
O -2.572400 -20.238100 -18.544000
C -1.785400 -22.831700 -17.592300
N -1.720600 -24.160600 -17.443000
H -1.149500 -24.591200 -16.899700
H -1.082000 -21.069500 -17.113800
N -0.952400 -21.927500 -16.952100
C 0.048700 -22.286300 -16.096000
O 0.261000 -23.467800 -15.835400
H 0.595700 -21.018500 -14.585900
H 0.720200 -20.354200 -16.037700
C 0.865400 -21.171400 -15.515700
H 1.814600 -21.412200 -15.544600
