20
Fragment
H -9.947700 -15.740900 -19.473200
H -9.873900 -17.298100 -19.760500
N -9.544400 -16.554300 -19.360200
H -8.741500 -19.327200 -19.574100
C -8.514900 -16.615300 -18.509000
C -8.099400 -19.169900 -18.891700
O -8.089500 -15.611900 -17.911600
C -7.885200 -17.915100 -18.286800
N -7.303600 -20.102600 -18.398100
C -6.877100 -18.159300 -17.353900
H -6.569500 -16.421400 -16.535000
N -6.554000 -19.458000 -17.454200
N -6.308900 -17.265800 -16.456600
H -5.957200 -19.894700 -16.967400
H -5.395100 -15.704900 -14.784800
C -5.362500 -17.607100 -15.540600
O -4.958300 -18.765700 -15.447200
H -4.874900 -16.789000 -13.728100
C -4.842200 -16.504600 -14.665600
H -3.915700 -16.301000 -14.913300
20
Fragment
H -9.690600 -22.509900 -19.621000
C -8.764000 -22.713600 -19.868700
H -8.731300 -22.998000 -20.806200
O -8.647900 -24.974600 -19.087100
C -8.243800 -23.816000 -18.993700
H -8.211200 -21.913900 -19.749500
H -7.649000 -26.103700 -17.566900
N -7.297300 -23.474800 -18.077800
N -7.052300 -25.666900 -17.080100
H -7.036700 -22.630400 -17.999300
C -6.729200 -24.368300 -17.180400
N -6.302700 -26.311500 -16.136200
C -5.721000 -24.124000 -16.247600
O -5.516700 -21.820900 -16.622800
C -5.506800 -25.378800 -15.642700
C -5.091400 -22.824200 -16.025300
H -4.864700 -25.536200 -14.960300
N -4.061800 -22.763300 -15.174100
H -3.732400 -23.507100 -14.773800
H -3.658500 -21.949900 -15.061100
40
Fragment
H -9.947700 -15.740900 -19.473200
H -9.873900 -17.298100 -19.760500
N -9.544400 -16.554300 -19.360200
H -8.741500 -19.327200 -19.574100
C -8.514900 -16.615300 -18.509000
C -8.099400 -19.169900 -18.891700
O -8.089500 -15.611900 -17.911600
C -7.885200 -17.915100 -18.286800
N -7.303600 -20.102600 -18.398100
C -6.877100 -18.159300 -17.353900
H -6.569500 -16.421400 -16.535000
N -6.554000 -19.458000 -17.454200
N -6.308900 -17.265800 -16.456600
H -5.957200 -19.894700 -16.967400
H -5.395100 -15.704900 -14.784800
C -5.362500 -17.607100 -15.540600
O -4.958300 -18.765700 -15.447200
H -4.874900 -16.789000 -13.728100
C -4.842200 -16.504600 -14.665600
H -3.915700 -16.301000 -14.913300
H -9.690600 -22.509900 -19.621000
C -8.764000 -22.713600 -19.868700
H -8.731300 -22.998000 -20.806200
O -8.647900 -24.974600 -19.087100
C -8.243800 -23.816000 -18.993700
H -8.211200 -21.913900 -19.749500
H -7.649000 -26.103700 -17.566900
N -7.297300 -23.474800 -18.077800
N -7.052300 -25.666900 -17.080100
H -7.036700 -22.630400 -17.999300
C -6.729200 -24.368300 -17.180400
N -6.302700 -26.311500 -16.136200
C -5.721000 -24.124000 -16.247600
O -5.516700 -21.820900 -16.622800
C -5.506800 -25.378800 -15.642700
C -5.091400 -22.824200 -16.025300
H -4.864700 -25.536200 -14.960300
N -4.061800 -22.763300 -15.174100
H -3.732400 -23.507100 -14.773800
H -3.658500 -21.949900 -15.061100
