20
Fragment
H -9.947700 -15.740900 -19.473200
H -9.873900 -17.298100 -19.760500
N -9.544400 -16.554300 -19.360200
H -8.741500 -19.327200 -19.574100
C -8.514900 -16.615300 -18.509000
C -8.099400 -19.169900 -18.891700
O -8.089500 -15.611900 -17.911600
C -7.885200 -17.915100 -18.286800
N -7.303600 -20.102600 -18.398100
C -6.877100 -18.159300 -17.353900
H -6.569500 -16.421400 -16.535000
N -6.554000 -19.458000 -17.454200
N -6.308900 -17.265800 -16.456600
H -5.957200 -19.894700 -16.967400
H -5.395100 -15.704900 -14.784800
C -5.362500 -17.607100 -15.540600
O -4.958300 -18.765700 -15.447200
H -4.874900 -16.789000 -13.728100
C -4.842200 -16.504600 -14.665600
H -3.915700 -16.301000 -14.913300
20
Fragment
H -12.669000 -15.303800 -26.380100
H -12.595100 -13.746600 -26.667400
N -12.265700 -14.490400 -26.267100
H -11.462800 -11.717500 -26.480900
C -11.236100 -14.429500 -25.415900
C -10.820700 -11.874900 -25.798500
O -10.810800 -15.432800 -24.818400
C -10.606500 -13.129700 -25.193600
N -10.024800 -10.942200 -25.305000
C -9.598300 -12.885400 -24.260800
H -9.290800 -14.623300 -23.441900
N -9.275200 -11.586800 -24.361100
N -9.030200 -13.778900 -23.363400
H -8.678500 -11.150000 -23.874300
H -8.116300 -15.339800 -21.691700
C -8.083700 -13.437700 -22.447400
O -7.679600 -12.279100 -22.354100
H -7.596200 -14.255700 -20.634900
C -7.563400 -14.540100 -21.572500
H -6.636900 -14.743800 -21.820200
40
Fragment
H -9.947700 -15.740900 -19.473200
H -9.873900 -17.298100 -19.760500
N -9.544400 -16.554300 -19.360200
H -8.741500 -19.327200 -19.574100
C -8.514900 -16.615300 -18.509000
C -8.099400 -19.169900 -18.891700
O -8.089500 -15.611900 -17.911600
C -7.885200 -17.915100 -18.286800
N -7.303600 -20.102600 -18.398100
C -6.877100 -18.159300 -17.353900
H -6.569500 -16.421400 -16.535000
N -6.554000 -19.458000 -17.454200
N -6.308900 -17.265800 -16.456600
H -5.957200 -19.894700 -16.967400
H -5.395100 -15.704900 -14.784800
C -5.362500 -17.607100 -15.540600
O -4.958300 -18.765700 -15.447200
H -4.874900 -16.789000 -13.728100
C -4.842200 -16.504600 -14.665600
H -3.915700 -16.301000 -14.913300
H -12.669000 -15.303800 -26.380100
H -12.595100 -13.746600 -26.667400
N -12.265700 -14.490400 -26.267100
H -11.462800 -11.717500 -26.480900
C -11.236100 -14.429500 -25.415900
C -10.820700 -11.874900 -25.798500
O -10.810800 -15.432800 -24.818400
C -10.606500 -13.129700 -25.193600
N -10.024800 -10.942200 -25.305000
C -9.598300 -12.885400 -24.260800
H -9.290800 -14.623300 -23.441900
N -9.275200 -11.586800 -24.361100
N -9.030200 -13.778900 -23.363400
H -8.678500 -11.150000 -23.874300
H -8.116300 -15.339800 -21.691700
C -8.083700 -13.437700 -22.447400
O -7.679600 -12.279100 -22.354100
H -7.596200 -14.255700 -20.634900
C -7.563400 -14.540100 -21.572500
H -6.636900 -14.743800 -21.820200
