26
Fragment
O -8.045000 -10.537600 -29.558000
N -7.482800 -11.426700 -30.444500
F -7.350800 -6.272800 -26.134900
F -7.262000 -8.050200 -24.920800
N -7.070300 -9.820200 -28.855400
F -7.027400 -6.112100 -24.004200
C -6.744800 -6.828900 -25.081800
H -6.320900 -13.338500 -32.191000
C -6.194300 -11.280000 -30.311900
C -5.937500 -10.280700 -29.321900
N -5.472400 -13.048300 -31.903200
N -5.279800 -8.455700 -27.217700
C -5.266000 -6.909800 -25.300700
C -5.216200 -12.054500 -31.049800
N -4.698100 -7.673800 -26.258700
N -4.671600 -9.899200 -28.931000
C -4.349500 -9.038000 -27.929600
N -4.327600 -6.308300 -24.585600
N -4.303300 -13.501100 -32.383200
H -4.057900 -10.275900 -29.315500
N -3.904100 -11.867200 -30.971600
N -3.369400 -12.790700 -31.816700
C -3.350800 -7.515100 -26.088600
N -3.103400 -6.689200 -25.077800
N -2.950800 -8.881700 -27.840600
N -2.460800 -8.122700 -26.932300
3
Fragment
O -6.227900 -3.663400 -27.271100
H -6.028400 -3.185400 -26.629400
H -5.521700 -4.098100 -27.488900
29
Fragment
O -8.045000 -10.537600 -29.558000
N -7.482800 -11.426700 -30.444500
F -7.350800 -6.272800 -26.134900
F -7.262000 -8.050200 -24.920800
N -7.070300 -9.820200 -28.855400
F -7.027400 -6.112100 -24.004200
C -6.744800 -6.828900 -25.081800
H -6.320900 -13.338500 -32.191000
C -6.194300 -11.280000 -30.311900
C -5.937500 -10.280700 -29.321900
N -5.472400 -13.048300 -31.903200
N -5.279800 -8.455700 -27.217700
C -5.266000 -6.909800 -25.300700
C -5.216200 -12.054500 -31.049800
N -4.698100 -7.673800 -26.258700
N -4.671600 -9.899200 -28.931000
C -4.349500 -9.038000 -27.929600
N -4.327600 -6.308300 -24.585600
N -4.303300 -13.501100 -32.383200
H -4.057900 -10.275900 -29.315500
N -3.904100 -11.867200 -30.971600
N -3.369400 -12.790700 -31.816700
C -3.350800 -7.515100 -26.088600
N -3.103400 -6.689200 -25.077800
N -2.950800 -8.881700 -27.840600
N -2.460800 -8.122700 -26.932300
O -6.227900 -3.663400 -27.271100
H -6.028400 -3.185400 -26.629400
H -5.521700 -4.098100 -27.488900
