26
Fragment
H -6.661600 -15.959500 -14.448000
H -6.534600 -11.169000 -17.456200
N -6.343800 -15.798500 -12.460600
C -6.319500 -15.479000 -13.753500
C -5.729400 -11.594200 -17.782200
N -5.723100 -14.816800 -11.739500
N -5.685700 -14.297700 -13.892000
N -5.464800 -11.964600 -19.005000
N -5.421500 -13.570000 -15.010500
C -5.336400 -13.907800 -12.627800
C -4.826400 -12.449000 -14.691600
N -4.679700 -11.895400 -16.967800
N -4.672200 -12.742800 -12.396100
N -4.552400 -11.517800 -15.645400
N -4.416400 -12.008500 -13.421800
N -4.188500 -12.529000 -19.007200
H -3.976700 -10.874700 -15.533500
C -3.738000 -12.484600 -17.774300
C -2.461800 -13.009100 -17.322400
N -2.183700 -13.152500 -16.052800
H -1.887500 -13.340000 -19.956500
C -1.358000 -13.493100 -18.113800
N -1.212800 -13.495300 -19.454100
O -0.941300 -13.712800 -15.994800
H -0.520100 -13.903200 -19.773100
N -0.428900 -13.923900 -17.283600
26
Fragment
N 1.307300 -15.093500 -20.146500
H 1.398500 -15.114200 -17.657100
O 1.819700 -15.304700 -21.435400
N 2.091300 -15.522100 -17.976100
C 2.236500 -15.524300 -19.316300
H 2.765900 -15.677400 -17.473700
N 3.062200 -15.865000 -21.377400
C 3.340200 -16.008300 -20.107700
C 4.616400 -16.532800 -19.655800
H 4.855200 -18.142700 -21.896700
N 5.066900 -16.488400 -18.423000
N 5.294800 -17.008900 -24.008300
N 5.430800 -17.499600 -21.784700
N 5.550600 -16.274600 -25.034100
N 5.558100 -17.122000 -20.462300
C 5.704800 -16.568500 -22.738600
C 6.214800 -15.109600 -24.802400
N 6.299900 -15.447400 -22.419700
N 6.343200 -17.052800 -18.425100
N 6.564100 -14.719800 -23.538200
N 6.601500 -14.200600 -25.690700
C 6.607800 -17.423200 -19.648000
C 7.197900 -13.538400 -23.676700
N 7.222200 -13.218900 -24.969500
H 7.413000 -17.848500 -19.974000
H 7.540000 -13.058000 -22.982100
52
Fragment
H -6.661600 -15.959500 -14.448000
H -6.534600 -11.169000 -17.456200
N -6.343800 -15.798500 -12.460600
C -6.319500 -15.479000 -13.753500
C -5.729400 -11.594200 -17.782200
N -5.723100 -14.816800 -11.739500
N -5.685700 -14.297700 -13.892000
N -5.464800 -11.964600 -19.005000
N -5.421500 -13.570000 -15.010500
C -5.336400 -13.907800 -12.627800
C -4.826400 -12.449000 -14.691600
N -4.679700 -11.895400 -16.967800
N -4.672200 -12.742800 -12.396100
N -4.552400 -11.517800 -15.645400
N -4.416400 -12.008500 -13.421800
N -4.188500 -12.529000 -19.007200
H -3.976700 -10.874700 -15.533500
C -3.738000 -12.484600 -17.774300
C -2.461800 -13.009100 -17.322400
N -2.183700 -13.152500 -16.052800
H -1.887500 -13.340000 -19.956500
C -1.358000 -13.493100 -18.113800
N -1.212800 -13.495300 -19.454100
O -0.941300 -13.712800 -15.994800
H -0.520100 -13.903200 -19.773100
N -0.428900 -13.923900 -17.283600
N 1.307300 -15.093500 -20.146500
H 1.398500 -15.114200 -17.657100
O 1.819700 -15.304700 -21.435400
N 2.091300 -15.522100 -17.976100
C 2.236500 -15.524300 -19.316300
H 2.765900 -15.677400 -17.473700
N 3.062200 -15.865000 -21.377400
C 3.340200 -16.008300 -20.107700
C 4.616400 -16.532800 -19.655800
H 4.855200 -18.142700 -21.896700
N 5.066900 -16.488400 -18.423000
N 5.294800 -17.008900 -24.008300
N 5.430800 -17.499600 -21.784700
N 5.550600 -16.274600 -25.034100
N 5.558100 -17.122000 -20.462300
C 5.704800 -16.568500 -22.738600
C 6.214800 -15.109600 -24.802400
N 6.299900 -15.447400 -22.419700
N 6.343200 -17.052800 -18.425100
N 6.564100 -14.719800 -23.538200
N 6.601500 -14.200600 -25.690700
C 6.607800 -17.423200 -19.648000
C 7.197900 -13.538400 -23.676700
N 7.222200 -13.218900 -24.969500
H 7.413000 -17.848500 -19.974000
H 7.540000 -13.058000 -22.982100
