26
Fragment
H -6.661600 -15.959500 -14.448000
H -6.534600 -11.169000 -17.456200
N -6.343800 -15.798500 -12.460600
C -6.319500 -15.479000 -13.753500
C -5.729400 -11.594200 -17.782200
N -5.723100 -14.816800 -11.739500
N -5.685700 -14.297700 -13.892000
N -5.464800 -11.964600 -19.005000
N -5.421500 -13.570000 -15.010500
C -5.336400 -13.907800 -12.627800
C -4.826400 -12.449000 -14.691600
N -4.679700 -11.895400 -16.967800
N -4.672200 -12.742800 -12.396100
N -4.552400 -11.517800 -15.645400
N -4.416400 -12.008500 -13.421800
N -4.188500 -12.529000 -19.007200
H -3.976700 -10.874700 -15.533500
C -3.738000 -12.484600 -17.774300
C -2.461800 -13.009100 -17.322400
N -2.183700 -13.152500 -16.052800
H -1.887500 -13.340000 -19.956500
C -1.358000 -13.493100 -18.113800
N -1.212800 -13.495300 -19.454100
O -0.941300 -13.712800 -15.994800
H -0.520100 -13.903200 -19.773100
N -0.428900 -13.923900 -17.283600
26
Fragment
N -10.490000 -8.105000 -7.669800
H -10.398800 -8.125800 -5.180300
O -9.977500 -8.316200 -8.958700
N -9.706000 -8.533600 -5.499400
C -9.560800 -8.535900 -6.839600
H -9.031300 -8.688900 -4.996900
N -8.735100 -8.876500 -8.900600
C -8.457000 -9.019800 -7.631000
C -7.180900 -9.544400 -7.179100
H -6.942100 -11.154300 -9.419900
N -6.730400 -9.499900 -5.946300
N -6.502500 -10.020400 -11.531600
N -6.366500 -10.511100 -9.308000
N -6.246600 -9.286200 -12.557300
N -6.239100 -10.133500 -7.985600
C -6.092400 -9.580000 -10.261900
C -5.582500 -8.121100 -12.325600
N -5.497400 -8.459000 -9.943000
N -5.454100 -10.064300 -5.948400
N -5.233200 -7.731300 -11.061500
N -5.195800 -7.212100 -13.214000
C -5.189500 -10.434800 -7.171200
C -4.599300 -6.549900 -11.200000
N -4.575100 -6.230500 -12.492800
H -4.384200 -10.860000 -7.497300
H -4.257300 -6.069500 -10.505400
52
Fragment
H -6.661600 -15.959500 -14.448000
H -6.534600 -11.169000 -17.456200
N -6.343800 -15.798500 -12.460600
C -6.319500 -15.479000 -13.753500
C -5.729400 -11.594200 -17.782200
N -5.723100 -14.816800 -11.739500
N -5.685700 -14.297700 -13.892000
N -5.464800 -11.964600 -19.005000
N -5.421500 -13.570000 -15.010500
C -5.336400 -13.907800 -12.627800
C -4.826400 -12.449000 -14.691600
N -4.679700 -11.895400 -16.967800
N -4.672200 -12.742800 -12.396100
N -4.552400 -11.517800 -15.645400
N -4.416400 -12.008500 -13.421800
N -4.188500 -12.529000 -19.007200
H -3.976700 -10.874700 -15.533500
C -3.738000 -12.484600 -17.774300
C -2.461800 -13.009100 -17.322400
N -2.183700 -13.152500 -16.052800
H -1.887500 -13.340000 -19.956500
C -1.358000 -13.493100 -18.113800
N -1.212800 -13.495300 -19.454100
O -0.941300 -13.712800 -15.994800
H -0.520100 -13.903200 -19.773100
N -0.428900 -13.923900 -17.283600
N -10.490000 -8.105000 -7.669800
H -10.398800 -8.125800 -5.180300
O -9.977500 -8.316200 -8.958700
N -9.706000 -8.533600 -5.499400
C -9.560800 -8.535900 -6.839600
H -9.031300 -8.688900 -4.996900
N -8.735100 -8.876500 -8.900600
C -8.457000 -9.019800 -7.631000
C -7.180900 -9.544400 -7.179100
H -6.942100 -11.154300 -9.419900
N -6.730400 -9.499900 -5.946300
N -6.502500 -10.020400 -11.531600
N -6.366500 -10.511100 -9.308000
N -6.246600 -9.286200 -12.557300
N -6.239100 -10.133500 -7.985600
C -6.092400 -9.580000 -10.261900
C -5.582500 -8.121100 -12.325600
N -5.497400 -8.459000 -9.943000
N -5.454100 -10.064300 -5.948400
N -5.233200 -7.731300 -11.061500
N -5.195800 -7.212100 -13.214000
C -5.189500 -10.434800 -7.171200
C -4.599300 -6.549900 -11.200000
N -4.575100 -6.230500 -12.492800
H -4.384200 -10.860000 -7.497300
H -4.257300 -6.069500 -10.505400
