25
Fragment
O -12.225600 -31.501000 -14.736200
N -11.607200 -32.313000 -13.812000
N -11.521400 -31.489300 -15.945500
H -11.265400 -33.320600 -11.613400
H -11.254900 -29.453800 -20.302100
H -10.728700 -34.445900 -10.708200
N -10.616500 -33.883500 -11.430500
C -10.550400 -32.782500 -14.401300
C -10.495900 -32.264900 -15.740000
C -10.453700 -29.932700 -20.475000
N -10.203800 -31.151300 -18.358700
N -9.859700 -30.787800 -19.630500
N -9.739700 -29.864000 -21.594700
C -9.731200 -34.238000 -12.390900
C -9.677100 -33.727900 -13.737800
N -9.491900 -32.535900 -16.636200
C -9.347600 -32.019500 -17.896200
H -8.856800 -33.194800 -16.365500
C -8.741500 -31.236200 -20.276800
N -8.741000 -35.076900 -12.213500
N -8.667100 -34.266500 -14.363300
N -8.655600 -30.691300 -21.481500
N -8.207900 -32.557000 -18.516200
O -8.058900 -35.106000 -13.453600
N -7.907400 -32.151600 -19.702900
25
Fragment
O -12.187400 -31.501000 -23.787900
N -11.568900 -32.313000 -22.863700
N -11.483200 -31.489300 -24.997200
H -11.227100 -33.320600 -20.665100
H -11.216700 -29.453800 -29.353800
H -10.690500 -34.445900 -19.759900
N -10.578300 -33.883500 -20.482200
C -10.512200 -32.782500 -23.453000
C -10.457600 -32.264900 -24.791800
C -10.415500 -29.932700 -29.526700
N -10.165500 -31.151300 -27.410400
N -9.821400 -30.787800 -28.682200
N -9.701400 -29.864000 -30.646400
C -9.693000 -34.238000 -21.442600
C -9.638900 -33.727900 -22.789500
N -9.453700 -32.535900 -25.687900
C -9.309400 -32.019500 -26.947900
H -8.818600 -33.194800 -25.417200
C -8.703200 -31.236200 -29.328500
N -8.702800 -35.076900 -21.265200
N -8.628900 -34.266500 -23.415000
N -8.617300 -30.691300 -30.533300
N -8.169700 -32.557000 -27.567900
O -8.020700 -35.106000 -22.505300
N -7.869200 -32.151600 -28.754600
50
Fragment
O -12.225600 -31.501000 -14.736200
N -11.607200 -32.313000 -13.812000
N -11.521400 -31.489300 -15.945500
H -11.265400 -33.320600 -11.613400
H -11.254900 -29.453800 -20.302100
H -10.728700 -34.445900 -10.708200
N -10.616500 -33.883500 -11.430500
C -10.550400 -32.782500 -14.401300
C -10.495900 -32.264900 -15.740000
C -10.453700 -29.932700 -20.475000
N -10.203800 -31.151300 -18.358700
N -9.859700 -30.787800 -19.630500
N -9.739700 -29.864000 -21.594700
C -9.731200 -34.238000 -12.390900
C -9.677100 -33.727900 -13.737800
N -9.491900 -32.535900 -16.636200
C -9.347600 -32.019500 -17.896200
H -8.856800 -33.194800 -16.365500
C -8.741500 -31.236200 -20.276800
N -8.741000 -35.076900 -12.213500
N -8.667100 -34.266500 -14.363300
N -8.655600 -30.691300 -21.481500
N -8.207900 -32.557000 -18.516200
O -8.058900 -35.106000 -13.453600
N -7.907400 -32.151600 -19.702900
O -12.187400 -31.501000 -23.787900
N -11.568900 -32.313000 -22.863700
N -11.483200 -31.489300 -24.997200
H -11.227100 -33.320600 -20.665100
H -11.216700 -29.453800 -29.353800
H -10.690500 -34.445900 -19.759900
N -10.578300 -33.883500 -20.482200
C -10.512200 -32.782500 -23.453000
C -10.457600 -32.264900 -24.791800
C -10.415500 -29.932700 -29.526700
N -10.165500 -31.151300 -27.410400
N -9.821400 -30.787800 -28.682200
N -9.701400 -29.864000 -30.646400
C -9.693000 -34.238000 -21.442600
C -9.638900 -33.727900 -22.789500
N -9.453700 -32.535900 -25.687900
C -9.309400 -32.019500 -26.947900
H -8.818600 -33.194800 -25.417200
C -8.703200 -31.236200 -29.328500
N -8.702800 -35.076900 -21.265200
N -8.628900 -34.266500 -23.415000
N -8.617300 -30.691300 -30.533300
N -8.169700 -32.557000 -27.567900
O -8.020700 -35.106000 -22.505300
N -7.869200 -32.151600 -28.754600
