25
Fragment
O -12.225600 -31.501000 -14.736200
N -11.607200 -32.313000 -13.812000
N -11.521400 -31.489300 -15.945500
H -11.265400 -33.320600 -11.613400
H -11.254900 -29.453800 -20.302100
H -10.728700 -34.445900 -10.708200
N -10.616500 -33.883500 -11.430500
C -10.550400 -32.782500 -14.401300
C -10.495900 -32.264900 -15.740000
C -10.453700 -29.932700 -20.475000
N -10.203800 -31.151300 -18.358700
N -9.859700 -30.787800 -19.630500
N -9.739700 -29.864000 -21.594700
C -9.731200 -34.238000 -12.390900
C -9.677100 -33.727900 -13.737800
N -9.491900 -32.535900 -16.636200
C -9.347600 -32.019500 -17.896200
H -8.856800 -33.194800 -16.365500
C -8.741500 -31.236200 -20.276800
N -8.741000 -35.076900 -12.213500
N -8.667100 -34.266500 -14.363300
N -8.655600 -30.691300 -21.481500
N -8.207900 -32.557000 -18.516200
O -8.058900 -35.106000 -13.453600
N -7.907400 -32.151600 -19.702900
3
Fragment
H -10.865500 -28.142300 -14.881000
O -10.235400 -28.693700 -15.138100
H -9.992100 -29.151300 -14.482800
28
Fragment
O -12.225600 -31.501000 -14.736200
N -11.607200 -32.313000 -13.812000
N -11.521400 -31.489300 -15.945500
H -11.265400 -33.320600 -11.613400
H -11.254900 -29.453800 -20.302100
H -10.728700 -34.445900 -10.708200
N -10.616500 -33.883500 -11.430500
C -10.550400 -32.782500 -14.401300
C -10.495900 -32.264900 -15.740000
C -10.453700 -29.932700 -20.475000
N -10.203800 -31.151300 -18.358700
N -9.859700 -30.787800 -19.630500
N -9.739700 -29.864000 -21.594700
C -9.731200 -34.238000 -12.390900
C -9.677100 -33.727900 -13.737800
N -9.491900 -32.535900 -16.636200
C -9.347600 -32.019500 -17.896200
H -8.856800 -33.194800 -16.365500
C -8.741500 -31.236200 -20.276800
N -8.741000 -35.076900 -12.213500
N -8.667100 -34.266500 -14.363300
N -8.655600 -30.691300 -21.481500
N -8.207900 -32.557000 -18.516200
O -8.058900 -35.106000 -13.453600
N -7.907400 -32.151600 -19.702900
H -10.865500 -28.142300 -14.881000
O -10.235400 -28.693700 -15.138100
H -9.992100 -29.151300 -14.482800
