25
Fragment
O -12.225600 -31.501000 -14.736200
N -11.607200 -32.313000 -13.812000
N -11.521400 -31.489300 -15.945500
H -11.265400 -33.320600 -11.613400
H -11.254900 -29.453800 -20.302100
H -10.728700 -34.445900 -10.708200
N -10.616500 -33.883500 -11.430500
C -10.550400 -32.782500 -14.401300
C -10.495900 -32.264900 -15.740000
C -10.453700 -29.932700 -20.475000
N -10.203800 -31.151300 -18.358700
N -9.859700 -30.787800 -19.630500
N -9.739700 -29.864000 -21.594700
C -9.731200 -34.238000 -12.390900
C -9.677100 -33.727900 -13.737800
N -9.491900 -32.535900 -16.636200
C -9.347600 -32.019500 -17.896200
H -8.856800 -33.194800 -16.365500
C -8.741500 -31.236200 -20.276800
N -8.741000 -35.076900 -12.213500
N -8.667100 -34.266500 -14.363300
N -8.655600 -30.691300 -21.481500
N -8.207900 -32.557000 -18.516200
O -8.058900 -35.106000 -13.453600
N -7.907400 -32.151600 -19.702900
25
Fragment
O -14.716900 -38.978100 -15.366200
N -14.107200 -38.147700 -16.277700
N -14.019400 -38.988300 -14.147800
H -13.951600 -41.158400 -9.982200
H -13.841300 -37.006000 -18.411200
H -13.224700 -36.057400 -19.370700
N -13.182600 -36.537300 -18.622100
C -13.173300 -40.672200 -9.736900
C -13.072600 -37.641000 -15.659500
C -13.015900 -38.175500 -14.332500
N -12.862100 -39.275300 -11.737400
N -12.560100 -39.735300 -10.490000
N -12.508900 -40.801200 -8.595500
C -12.293500 -36.191500 -17.679800
C -12.209100 -36.690700 -16.322100
N -12.057300 -37.876400 -13.393800
C -11.972000 -38.415100 -12.128400
H -11.519600 -37.347200 -13.577600
C -11.482700 -39.305800 -9.755000
N -11.433100 -39.940000 -8.597300
N -11.288900 -35.359300 -17.861800
N -11.185200 -36.162000 -15.724600
N -10.883700 -37.887100 -11.423300
N -10.644700 -38.345600 -10.241100
O -10.587800 -35.325000 -16.641600
50
Fragment
O -12.225600 -31.501000 -14.736200
N -11.607200 -32.313000 -13.812000
N -11.521400 -31.489300 -15.945500
H -11.265400 -33.320600 -11.613400
H -11.254900 -29.453800 -20.302100
H -10.728700 -34.445900 -10.708200
N -10.616500 -33.883500 -11.430500
C -10.550400 -32.782500 -14.401300
C -10.495900 -32.264900 -15.740000
C -10.453700 -29.932700 -20.475000
N -10.203800 -31.151300 -18.358700
N -9.859700 -30.787800 -19.630500
N -9.739700 -29.864000 -21.594700
C -9.731200 -34.238000 -12.390900
C -9.677100 -33.727900 -13.737800
N -9.491900 -32.535900 -16.636200
C -9.347600 -32.019500 -17.896200
H -8.856800 -33.194800 -16.365500
C -8.741500 -31.236200 -20.276800
N -8.741000 -35.076900 -12.213500
N -8.667100 -34.266500 -14.363300
N -8.655600 -30.691300 -21.481500
N -8.207900 -32.557000 -18.516200
O -8.058900 -35.106000 -13.453600
N -7.907400 -32.151600 -19.702900
O -14.716900 -38.978100 -15.366200
N -14.107200 -38.147700 -16.277700
N -14.019400 -38.988300 -14.147800
H -13.951600 -41.158400 -9.982200
H -13.841300 -37.006000 -18.411200
H -13.224700 -36.057400 -19.370700
N -13.182600 -36.537300 -18.622100
C -13.173300 -40.672200 -9.736900
C -13.072600 -37.641000 -15.659500
C -13.015900 -38.175500 -14.332500
N -12.862100 -39.275300 -11.737400
N -12.560100 -39.735300 -10.490000
N -12.508900 -40.801200 -8.595500
C -12.293500 -36.191500 -17.679800
C -12.209100 -36.690700 -16.322100
N -12.057300 -37.876400 -13.393800
C -11.972000 -38.415100 -12.128400
H -11.519600 -37.347200 -13.577600
C -11.482700 -39.305800 -9.755000
N -11.433100 -39.940000 -8.597300
N -11.288900 -35.359300 -17.861800
N -11.185200 -36.162000 -15.724600
N -10.883700 -37.887100 -11.423300
N -10.644700 -38.345600 -10.241100
O -10.587800 -35.325000 -16.641600
