26
Fragment
O -8.045000 -10.537600 -29.558000
N -7.482800 -11.426700 -30.444500
F -7.350800 -6.272800 -26.134900
F -7.262000 -8.050200 -24.920800
N -7.070300 -9.820200 -28.855400
F -7.027400 -6.112100 -24.004200
C -6.744800 -6.828900 -25.081800
H -6.320900 -13.338500 -32.191000
C -6.194300 -11.280000 -30.311900
C -5.937500 -10.280700 -29.321900
N -5.472400 -13.048300 -31.903200
N -5.279800 -8.455700 -27.217700
C -5.266000 -6.909800 -25.300700
C -5.216200 -12.054500 -31.049800
N -4.698100 -7.673800 -26.258700
N -4.671600 -9.899200 -28.931000
C -4.349500 -9.038000 -27.929600
N -4.327600 -6.308300 -24.585600
N -4.303300 -13.501100 -32.383200
H -4.057900 -10.275900 -29.315500
N -3.904100 -11.867200 -30.971600
N -3.369400 -12.790700 -31.816700
C -3.350800 -7.515100 -26.088600
N -3.103400 -6.689200 -25.077800
N -2.950800 -8.881700 -27.840600
N -2.460800 -8.122700 -26.932300
26
Fragment
N -11.700400 -18.203200 -32.891100
N -11.210500 -17.444200 -31.982800
N -11.057800 -19.636700 -34.745700
C -10.810400 -18.810800 -33.734800
N -10.791800 -13.535200 -28.006700
N -10.257100 -14.458700 -28.851800
H -10.103400 -16.050000 -30.508000
N -9.858000 -12.824800 -27.440200
N -9.833600 -20.017600 -35.237800
C -9.811800 -17.287900 -31.893900
N -9.489600 -16.426700 -30.892400
N -9.463100 -18.652100 -33.564700
C -8.945000 -14.271400 -28.773700
C -8.895200 -19.416100 -34.522700
N -8.881400 -17.870200 -32.605800
N -8.688800 -13.277600 -27.920200
C -8.223700 -16.045200 -30.501600
C -7.966900 -15.045900 -29.511500
H -7.840300 -12.987400 -27.632400
C -7.416400 -19.497000 -34.741700
F -7.133800 -20.213800 -35.819300
N -7.090900 -16.505700 -30.968000
F -6.899200 -18.275700 -34.902600
F -6.810400 -20.053100 -33.688600
N -6.678400 -14.899200 -29.378900
O -6.116200 -15.788300 -30.265500
52
Fragment
O -8.045000 -10.537600 -29.558000
N -7.482800 -11.426700 -30.444500
F -7.350800 -6.272800 -26.134900
F -7.262000 -8.050200 -24.920800
N -7.070300 -9.820200 -28.855400
F -7.027400 -6.112100 -24.004200
C -6.744800 -6.828900 -25.081800
H -6.320900 -13.338500 -32.191000
C -6.194300 -11.280000 -30.311900
C -5.937500 -10.280700 -29.321900
N -5.472400 -13.048300 -31.903200
N -5.279800 -8.455700 -27.217700
C -5.266000 -6.909800 -25.300700
C -5.216200 -12.054500 -31.049800
N -4.698100 -7.673800 -26.258700
N -4.671600 -9.899200 -28.931000
C -4.349500 -9.038000 -27.929600
N -4.327600 -6.308300 -24.585600
N -4.303300 -13.501100 -32.383200
H -4.057900 -10.275900 -29.315500
N -3.904100 -11.867200 -30.971600
N -3.369400 -12.790700 -31.816700
C -3.350800 -7.515100 -26.088600
N -3.103400 -6.689200 -25.077800
N -2.950800 -8.881700 -27.840600
N -2.460800 -8.122700 -26.932300
N -11.700400 -18.203200 -32.891100
N -11.210500 -17.444200 -31.982800
N -11.057800 -19.636700 -34.745700
C -10.810400 -18.810800 -33.734800
N -10.791800 -13.535200 -28.006700
N -10.257100 -14.458700 -28.851800
H -10.103400 -16.050000 -30.508000
N -9.858000 -12.824800 -27.440200
N -9.833600 -20.017600 -35.237800
C -9.811800 -17.287900 -31.893900
N -9.489600 -16.426700 -30.892400
N -9.463100 -18.652100 -33.564700
C -8.945000 -14.271400 -28.773700
C -8.895200 -19.416100 -34.522700
N -8.881400 -17.870200 -32.605800
N -8.688800 -13.277600 -27.920200
C -8.223700 -16.045200 -30.501600
C -7.966900 -15.045900 -29.511500
H -7.840300 -12.987400 -27.632400
C -7.416400 -19.497000 -34.741700
F -7.133800 -20.213800 -35.819300
N -7.090900 -16.505700 -30.968000
F -6.899200 -18.275700 -34.902600
F -6.810400 -20.053100 -33.688600
N -6.678400 -14.899200 -29.378900
O -6.116200 -15.788300 -30.265500
