20
Fragment
N -13.804700 -13.312400 -32.547100
N -13.561600 -14.640200 -32.305500
C -12.760300 -12.672300 -32.061900
N -12.554600 -11.317500 -32.048900
C -12.402000 -14.756000 -31.689200
H -12.001300 -15.566000 -31.403600
N -11.871200 -13.535500 -31.517600
N -11.437300 -10.912500 -31.551400
N -10.672500 -13.158200 -30.979700
C -10.518500 -11.864500 -31.073900
N -9.375100 -11.263500 -30.662700
H -9.305100 -10.415200 -30.755400
C -8.246000 -11.900000 -30.191600
N -8.119500 -13.174600 -29.973100
H -7.342000 -9.377900 -30.349100
C -7.031800 -11.214500 -29.842300
O -6.833200 -13.335100 -29.478200
N -6.796300 -9.884500 -29.896900
N -6.173900 -12.094700 -29.398100
H -5.923500 -9.576900 -29.642800
20
Fragment
H -19.655800 -6.024600 -38.079100
N -19.405400 -8.542500 -38.323800
N -18.783100 -6.332200 -37.825000
O -18.746100 -9.782900 -38.243700
C -18.547500 -7.662200 -37.879600
H -18.237400 -5.825700 -37.372800
N -17.459800 -9.622300 -37.748800
C -17.333300 -8.347800 -37.530300
H -16.274200 -6.862900 -36.966500
N -16.204300 -7.711200 -37.059200
C -15.060900 -8.312300 -36.648000
N -14.906800 -9.606000 -36.742200
N -14.142000 -7.360300 -36.170500
N -13.708100 -9.983200 -36.204300
H -13.578100 -12.013700 -36.318300
C -13.177300 -11.203800 -36.032700
N -13.024700 -7.765200 -35.673000
C -12.819000 -9.120000 -35.660000
N -12.017700 -11.088000 -35.416400
N -11.774600 -9.760200 -35.174800
40
Fragment
N -13.804700 -13.312400 -32.547100
N -13.561600 -14.640200 -32.305500
C -12.760300 -12.672300 -32.061900
N -12.554600 -11.317500 -32.048900
C -12.402000 -14.756000 -31.689200
H -12.001300 -15.566000 -31.403600
N -11.871200 -13.535500 -31.517600
N -11.437300 -10.912500 -31.551400
N -10.672500 -13.158200 -30.979700
C -10.518500 -11.864500 -31.073900
N -9.375100 -11.263500 -30.662700
H -9.305100 -10.415200 -30.755400
C -8.246000 -11.900000 -30.191600
N -8.119500 -13.174600 -29.973100
H -7.342000 -9.377900 -30.349100
C -7.031800 -11.214500 -29.842300
O -6.833200 -13.335100 -29.478200
N -6.796300 -9.884500 -29.896900
N -6.173900 -12.094700 -29.398100
H -5.923500 -9.576900 -29.642800
H -19.655800 -6.024600 -38.079100
N -19.405400 -8.542500 -38.323800
N -18.783100 -6.332200 -37.825000
O -18.746100 -9.782900 -38.243700
C -18.547500 -7.662200 -37.879600
H -18.237400 -5.825700 -37.372800
N -17.459800 -9.622300 -37.748800
C -17.333300 -8.347800 -37.530300
H -16.274200 -6.862900 -36.966500
N -16.204300 -7.711200 -37.059200
C -15.060900 -8.312300 -36.648000
N -14.906800 -9.606000 -36.742200
N -14.142000 -7.360300 -36.170500
N -13.708100 -9.983200 -36.204300
H -13.578100 -12.013700 -36.318300
C -13.177300 -11.203800 -36.032700
N -13.024700 -7.765200 -35.673000
C -12.819000 -9.120000 -35.660000
N -12.017700 -11.088000 -35.416400
N -11.774600 -9.760200 -35.174800
