26
Fragment
O -8.045000 -10.537600 -29.558000
N -7.482800 -11.426700 -30.444500
F -7.350800 -6.272800 -26.134900
F -7.262000 -8.050200 -24.920800
N -7.070300 -9.820200 -28.855400
F -7.027400 -6.112100 -24.004200
C -6.744800 -6.828900 -25.081800
H -6.320900 -13.338500 -32.191000
C -6.194300 -11.280000 -30.311900
C -5.937500 -10.280700 -29.321900
N -5.472400 -13.048300 -31.903200
N -5.279800 -8.455700 -27.217700
C -5.266000 -6.909800 -25.300700
C -5.216200 -12.054500 -31.049800
N -4.698100 -7.673800 -26.258700
N -4.671600 -9.899200 -28.931000
C -4.349500 -9.038000 -27.929600
N -4.327600 -6.308300 -24.585600
N -4.303300 -13.501100 -32.383200
H -4.057900 -10.275900 -29.315500
N -3.904100 -11.867200 -30.971600
N -3.369400 -12.790700 -31.816700
C -3.350800 -7.515100 -26.088600
N -3.103400 -6.689200 -25.077800
N -2.950800 -8.881700 -27.840600
N -2.460800 -8.122700 -26.932300
26
Fragment
N -5.757000 -3.735000 -22.920600
N -5.267100 -4.494100 -22.012200
N -5.114400 -2.301600 -24.775100
C -4.867000 -3.127400 -23.764300
N -4.848400 -8.403100 -18.036200
N -4.313700 -7.479500 -18.881300
H -4.160000 -5.888200 -20.537400
N -3.914600 -9.113400 -17.469600
N -3.890200 -1.920600 -25.267200
C -3.868300 -4.650400 -21.923300
N -3.546200 -5.511500 -20.921900
N -3.519700 -3.286200 -23.594200
C -3.001600 -7.666900 -18.803100
C -2.951800 -2.522200 -24.552100
N -2.938000 -4.068100 -22.635200
N -2.745400 -8.660700 -17.949600
C -2.280300 -5.893100 -20.531000
C -2.023500 -6.892400 -19.540900
H -1.896900 -8.950800 -17.661900
C -1.473000 -2.441300 -24.771100
F -1.190400 -1.724400 -25.848700
N -1.147500 -5.432500 -20.997400
F -0.955800 -3.662500 -24.932000
F -0.867000 -1.885200 -23.718000
N -0.735000 -7.039000 -19.408300
O -0.172800 -6.150000 -20.294900
52
Fragment
O -8.045000 -10.537600 -29.558000
N -7.482800 -11.426700 -30.444500
F -7.350800 -6.272800 -26.134900
F -7.262000 -8.050200 -24.920800
N -7.070300 -9.820200 -28.855400
F -7.027400 -6.112100 -24.004200
C -6.744800 -6.828900 -25.081800
H -6.320900 -13.338500 -32.191000
C -6.194300 -11.280000 -30.311900
C -5.937500 -10.280700 -29.321900
N -5.472400 -13.048300 -31.903200
N -5.279800 -8.455700 -27.217700
C -5.266000 -6.909800 -25.300700
C -5.216200 -12.054500 -31.049800
N -4.698100 -7.673800 -26.258700
N -4.671600 -9.899200 -28.931000
C -4.349500 -9.038000 -27.929600
N -4.327600 -6.308300 -24.585600
N -4.303300 -13.501100 -32.383200
H -4.057900 -10.275900 -29.315500
N -3.904100 -11.867200 -30.971600
N -3.369400 -12.790700 -31.816700
C -3.350800 -7.515100 -26.088600
N -3.103400 -6.689200 -25.077800
N -2.950800 -8.881700 -27.840600
N -2.460800 -8.122700 -26.932300
N -5.757000 -3.735000 -22.920600
N -5.267100 -4.494100 -22.012200
N -5.114400 -2.301600 -24.775100
C -4.867000 -3.127400 -23.764300
N -4.848400 -8.403100 -18.036200
N -4.313700 -7.479500 -18.881300
H -4.160000 -5.888200 -20.537400
N -3.914600 -9.113400 -17.469600
N -3.890200 -1.920600 -25.267200
C -3.868300 -4.650400 -21.923300
N -3.546200 -5.511500 -20.921900
N -3.519700 -3.286200 -23.594200
C -3.001600 -7.666900 -18.803100
C -2.951800 -2.522200 -24.552100
N -2.938000 -4.068100 -22.635200
N -2.745400 -8.660700 -17.949600
C -2.280300 -5.893100 -20.531000
C -2.023500 -6.892400 -19.540900
H -1.896900 -8.950800 -17.661900
C -1.473000 -2.441300 -24.771100
F -1.190400 -1.724400 -25.848700
N -1.147500 -5.432500 -20.997400
F -0.955800 -3.662500 -24.932000
F -0.867000 -1.885200 -23.718000
N -0.735000 -7.039000 -19.408300
O -0.172800 -6.150000 -20.294900
