26
Fragment
O -8.045000 -10.537600 -29.558000
N -7.482800 -11.426700 -30.444500
F -7.350800 -6.272800 -26.134900
F -7.262000 -8.050200 -24.920800
N -7.070300 -9.820200 -28.855400
F -7.027400 -6.112100 -24.004200
C -6.744800 -6.828900 -25.081800
H -6.320900 -13.338500 -32.191000
C -6.194300 -11.280000 -30.311900
C -5.937500 -10.280700 -29.321900
N -5.472400 -13.048300 -31.903200
N -5.279800 -8.455700 -27.217700
C -5.266000 -6.909800 -25.300700
C -5.216200 -12.054500 -31.049800
N -4.698100 -7.673800 -26.258700
N -4.671600 -9.899200 -28.931000
C -4.349500 -9.038000 -27.929600
N -4.327600 -6.308300 -24.585600
N -4.303300 -13.501100 -32.383200
H -4.057900 -10.275900 -29.315500
N -3.904100 -11.867200 -30.971600
N -3.369400 -12.790700 -31.816700
C -3.350800 -7.515100 -26.088600
N -3.103400 -6.689200 -25.077800
N -2.950800 -8.881700 -27.840600
N -2.460800 -8.122700 -26.932300
26
Fragment
O -9.268000 -11.400600 -19.587400
N -8.705800 -10.511600 -20.474000
F -8.573800 -15.665400 -16.164300
F -8.485000 -13.888100 -14.950300
N -8.293300 -12.118100 -18.884900
F -8.250400 -15.826200 -14.033600
C -7.967800 -15.109300 -15.111200
H -7.543900 -8.599800 -22.220400
C -7.417300 -10.658200 -20.341400
C -7.160500 -11.657500 -19.351300
N -6.695400 -8.889900 -21.932700
N -6.502800 -13.482500 -17.247100
C -6.489000 -15.028400 -15.330200
C -6.439200 -9.883700 -21.079200
N -5.921100 -14.264400 -16.288100
N -5.894600 -12.039100 -18.960400
C -5.572500 -12.900200 -17.959000
N -5.550600 -15.630000 -14.615100
N -5.526300 -8.437200 -22.412700
H -5.280900 -11.662400 -19.344900
N -5.127100 -10.071100 -21.001000
N -4.592400 -9.147500 -21.846100
C -4.573800 -14.423200 -16.118000
N -4.326400 -15.249000 -15.107200
N -4.173700 -13.056500 -17.870100
N -3.683800 -13.815600 -16.961700
52
Fragment
O -8.045000 -10.537600 -29.558000
N -7.482800 -11.426700 -30.444500
F -7.350800 -6.272800 -26.134900
F -7.262000 -8.050200 -24.920800
N -7.070300 -9.820200 -28.855400
F -7.027400 -6.112100 -24.004200
C -6.744800 -6.828900 -25.081800
H -6.320900 -13.338500 -32.191000
C -6.194300 -11.280000 -30.311900
C -5.937500 -10.280700 -29.321900
N -5.472400 -13.048300 -31.903200
N -5.279800 -8.455700 -27.217700
C -5.266000 -6.909800 -25.300700
C -5.216200 -12.054500 -31.049800
N -4.698100 -7.673800 -26.258700
N -4.671600 -9.899200 -28.931000
C -4.349500 -9.038000 -27.929600
N -4.327600 -6.308300 -24.585600
N -4.303300 -13.501100 -32.383200
H -4.057900 -10.275900 -29.315500
N -3.904100 -11.867200 -30.971600
N -3.369400 -12.790700 -31.816700
C -3.350800 -7.515100 -26.088600
N -3.103400 -6.689200 -25.077800
N -2.950800 -8.881700 -27.840600
N -2.460800 -8.122700 -26.932300
O -9.268000 -11.400600 -19.587400
N -8.705800 -10.511600 -20.474000
F -8.573800 -15.665400 -16.164300
F -8.485000 -13.888100 -14.950300
N -8.293300 -12.118100 -18.884900
F -8.250400 -15.826200 -14.033600
C -7.967800 -15.109300 -15.111200
H -7.543900 -8.599800 -22.220400
C -7.417300 -10.658200 -20.341400
C -7.160500 -11.657500 -19.351300
N -6.695400 -8.889900 -21.932700
N -6.502800 -13.482500 -17.247100
C -6.489000 -15.028400 -15.330200
C -6.439200 -9.883700 -21.079200
N -5.921100 -14.264400 -16.288100
N -5.894600 -12.039100 -18.960400
C -5.572500 -12.900200 -17.959000
N -5.550600 -15.630000 -14.615100
N -5.526300 -8.437200 -22.412700
H -5.280900 -11.662400 -19.344900
N -5.127100 -10.071100 -21.001000
N -4.592400 -9.147500 -21.846100
C -4.573800 -14.423200 -16.118000
N -4.326400 -15.249000 -15.107200
N -4.173700 -13.056500 -17.870100
N -3.683800 -13.815600 -16.961700
