26
Fragment
H -6.661600 -15.959500 -14.448000
H -6.534600 -11.169000 -17.456200
N -6.343800 -15.798500 -12.460600
C -6.319500 -15.479000 -13.753500
C -5.729400 -11.594200 -17.782200
N -5.723100 -14.816800 -11.739500
N -5.685700 -14.297700 -13.892000
N -5.464800 -11.964600 -19.005000
N -5.421500 -13.570000 -15.010500
C -5.336400 -13.907800 -12.627800
C -4.826400 -12.449000 -14.691600
N -4.679700 -11.895400 -16.967800
N -4.672200 -12.742800 -12.396100
N -4.552400 -11.517800 -15.645400
N -4.416400 -12.008500 -13.421800
N -4.188500 -12.529000 -19.007200
H -3.976700 -10.874700 -15.533500
C -3.738000 -12.484600 -17.774300
C -2.461800 -13.009100 -17.322400
N -2.183700 -13.152500 -16.052800
H -1.887500 -13.340000 -19.956500
C -1.358000 -13.493100 -18.113800
N -1.212800 -13.495300 -19.454100
O -0.941300 -13.712800 -15.994800
H -0.520100 -13.903200 -19.773100
N -0.428900 -13.923900 -17.283600
26
Fragment
H -14.108400 -15.959500 -14.448000
H -13.981400 -11.169000 -17.456200
N -13.790600 -15.798500 -12.460600
C -13.766300 -15.479000 -13.753500
C -13.176200 -11.594200 -17.782200
N -13.169900 -14.816800 -11.739500
N -13.132500 -14.297700 -13.892000
N -12.911600 -11.964600 -19.005000
N -12.868300 -13.570000 -15.010500
C -12.783200 -13.907800 -12.627800
C -12.273200 -12.449000 -14.691600
N -12.126500 -11.895400 -16.967800
N -12.119000 -12.742800 -12.396100
N -11.999200 -11.517800 -15.645400
N -11.863200 -12.008500 -13.421800
N -11.635300 -12.529000 -19.007200
H -11.423500 -10.874700 -15.533500
C -11.184800 -12.484600 -17.774300
C -9.908600 -13.009100 -17.322400
N -9.630500 -13.152500 -16.052800
H -9.334300 -13.340000 -19.956500
C -8.804800 -13.493100 -18.113800
N -8.659600 -13.495300 -19.454100
O -8.388100 -13.712800 -15.994800
H -7.966900 -13.903200 -19.773100
N -7.875700 -13.923900 -17.283600
52
Fragment
H -6.661600 -15.959500 -14.448000
H -6.534600 -11.169000 -17.456200
N -6.343800 -15.798500 -12.460600
C -6.319500 -15.479000 -13.753500
C -5.729400 -11.594200 -17.782200
N -5.723100 -14.816800 -11.739500
N -5.685700 -14.297700 -13.892000
N -5.464800 -11.964600 -19.005000
N -5.421500 -13.570000 -15.010500
C -5.336400 -13.907800 -12.627800
C -4.826400 -12.449000 -14.691600
N -4.679700 -11.895400 -16.967800
N -4.672200 -12.742800 -12.396100
N -4.552400 -11.517800 -15.645400
N -4.416400 -12.008500 -13.421800
N -4.188500 -12.529000 -19.007200
H -3.976700 -10.874700 -15.533500
C -3.738000 -12.484600 -17.774300
C -2.461800 -13.009100 -17.322400
N -2.183700 -13.152500 -16.052800
H -1.887500 -13.340000 -19.956500
C -1.358000 -13.493100 -18.113800
N -1.212800 -13.495300 -19.454100
O -0.941300 -13.712800 -15.994800
H -0.520100 -13.903200 -19.773100
N -0.428900 -13.923900 -17.283600
H -14.108400 -15.959500 -14.448000
H -13.981400 -11.169000 -17.456200
N -13.790600 -15.798500 -12.460600
C -13.766300 -15.479000 -13.753500
C -13.176200 -11.594200 -17.782200
N -13.169900 -14.816800 -11.739500
N -13.132500 -14.297700 -13.892000
N -12.911600 -11.964600 -19.005000
N -12.868300 -13.570000 -15.010500
C -12.783200 -13.907800 -12.627800
C -12.273200 -12.449000 -14.691600
N -12.126500 -11.895400 -16.967800
N -12.119000 -12.742800 -12.396100
N -11.999200 -11.517800 -15.645400
N -11.863200 -12.008500 -13.421800
N -11.635300 -12.529000 -19.007200
H -11.423500 -10.874700 -15.533500
C -11.184800 -12.484600 -17.774300
C -9.908600 -13.009100 -17.322400
N -9.630500 -13.152500 -16.052800
H -9.334300 -13.340000 -19.956500
C -8.804800 -13.493100 -18.113800
N -8.659600 -13.495300 -19.454100
O -8.388100 -13.712800 -15.994800
H -7.966900 -13.903200 -19.773100
N -7.875700 -13.923900 -17.283600
