26
Fragment
O -8.045000 -10.537600 -29.558000
N -7.482800 -11.426700 -30.444500
F -7.350800 -6.272800 -26.134900
F -7.262000 -8.050200 -24.920800
N -7.070300 -9.820200 -28.855400
F -7.027400 -6.112100 -24.004200
C -6.744800 -6.828900 -25.081800
H -6.320900 -13.338500 -32.191000
C -6.194300 -11.280000 -30.311900
C -5.937500 -10.280700 -29.321900
N -5.472400 -13.048300 -31.903200
N -5.279800 -8.455700 -27.217700
C -5.266000 -6.909800 -25.300700
C -5.216200 -12.054500 -31.049800
N -4.698100 -7.673800 -26.258700
N -4.671600 -9.899200 -28.931000
C -4.349500 -9.038000 -27.929600
N -4.327600 -6.308300 -24.585600
N -4.303300 -13.501100 -32.383200
H -4.057900 -10.275900 -29.315500
N -3.904100 -11.867200 -30.971600
N -3.369400 -12.790700 -31.816700
C -3.350800 -7.515100 -26.088600
N -3.103400 -6.689200 -25.077800
N -2.950800 -8.881700 -27.840600
N -2.460800 -8.122700 -26.932300
26
Fragment
N -4.534000 -18.203200 -32.891100
N -4.044100 -17.444200 -31.982800
N -3.891400 -19.636700 -34.745700
C -3.644000 -18.810800 -33.734800
N -3.625400 -13.535200 -28.006700
N -3.090700 -14.458700 -28.851800
H -2.937000 -16.050000 -30.508000
N -2.691600 -12.824800 -27.440200
N -2.667200 -20.017600 -35.237800
C -2.645400 -17.287900 -31.893900
N -2.323200 -16.426700 -30.892400
N -2.296700 -18.652100 -33.564700
C -1.778600 -14.271400 -28.773700
C -1.728800 -19.416100 -34.522700
N -1.715000 -17.870200 -32.605800
N -1.522400 -13.277600 -27.920200
C -1.057300 -16.045200 -30.501600
C -0.800500 -15.045900 -29.511500
H -0.673900 -12.987400 -27.632400
C -0.250000 -19.497000 -34.741700
F 0.032600 -20.213800 -35.819300
N 0.075500 -16.505700 -30.968000
F 0.267200 -18.275700 -34.902600
F 0.356000 -20.053100 -33.688600
N 0.488000 -14.899200 -29.378900
O 1.050200 -15.788300 -30.265500
52
Fragment
O -8.045000 -10.537600 -29.558000
N -7.482800 -11.426700 -30.444500
F -7.350800 -6.272800 -26.134900
F -7.262000 -8.050200 -24.920800
N -7.070300 -9.820200 -28.855400
F -7.027400 -6.112100 -24.004200
C -6.744800 -6.828900 -25.081800
H -6.320900 -13.338500 -32.191000
C -6.194300 -11.280000 -30.311900
C -5.937500 -10.280700 -29.321900
N -5.472400 -13.048300 -31.903200
N -5.279800 -8.455700 -27.217700
C -5.266000 -6.909800 -25.300700
C -5.216200 -12.054500 -31.049800
N -4.698100 -7.673800 -26.258700
N -4.671600 -9.899200 -28.931000
C -4.349500 -9.038000 -27.929600
N -4.327600 -6.308300 -24.585600
N -4.303300 -13.501100 -32.383200
H -4.057900 -10.275900 -29.315500
N -3.904100 -11.867200 -30.971600
N -3.369400 -12.790700 -31.816700
C -3.350800 -7.515100 -26.088600
N -3.103400 -6.689200 -25.077800
N -2.950800 -8.881700 -27.840600
N -2.460800 -8.122700 -26.932300
N -4.534000 -18.203200 -32.891100
N -4.044100 -17.444200 -31.982800
N -3.891400 -19.636700 -34.745700
C -3.644000 -18.810800 -33.734800
N -3.625400 -13.535200 -28.006700
N -3.090700 -14.458700 -28.851800
H -2.937000 -16.050000 -30.508000
N -2.691600 -12.824800 -27.440200
N -2.667200 -20.017600 -35.237800
C -2.645400 -17.287900 -31.893900
N -2.323200 -16.426700 -30.892400
N -2.296700 -18.652100 -33.564700
C -1.778600 -14.271400 -28.773700
C -1.728800 -19.416100 -34.522700
N -1.715000 -17.870200 -32.605800
N -1.522400 -13.277600 -27.920200
C -1.057300 -16.045200 -30.501600
C -0.800500 -15.045900 -29.511500
H -0.673900 -12.987400 -27.632400
C -0.250000 -19.497000 -34.741700
F 0.032600 -20.213800 -35.819300
N 0.075500 -16.505700 -30.968000
F 0.267200 -18.275700 -34.902600
F 0.356000 -20.053100 -33.688600
N 0.488000 -14.899200 -29.378900
O 1.050200 -15.788300 -30.265500
