27
Fragment
H -11.694300 -33.920100 -13.137300
N -11.029800 -34.250600 -12.528900
O -10.912400 -32.321500 -11.383100
N -10.751600 -35.591700 -12.749200
C -10.580300 -33.500400 -11.496700
H -10.155600 -38.162600 -11.432500
H -10.061500 -37.917300 -12.977900
C -10.020300 -36.205000 -11.908300
H -9.808000 -35.997100 -9.907800
N -9.728400 -34.138800 -10.626100
C -9.728200 -37.645600 -12.119900
C -9.445900 -35.563700 -10.696900
N -9.237000 -33.359400 -9.609500
H -8.780000 -37.788400 -12.084400
H -8.683400 -31.278400 -8.123000
H -8.485400 -35.696400 -10.693700
C -8.485400 -33.907800 -8.737200
H -8.292900 -34.816200 -8.790400
C -8.153500 -31.735300 -7.510000
C -7.927300 -33.101800 -7.655100
H -7.719400 -30.155500 -6.339600
C -7.584400 -31.069100 -6.450600
C -7.117200 -33.727500 -6.711100
H -6.956900 -34.639000 -6.802900
C -6.806600 -31.778100 -5.551200
N -6.556900 -33.085400 -5.675300
H -6.440800 -31.323700 -4.827300
17
Fragment
H -17.625300 -42.511200 -11.983500
O -17.520700 -41.867800 -12.591900
H -16.589100 -39.995600 -14.000300
C -16.221000 -41.451200 -12.641700
C -15.915600 -40.390800 -13.495700
H -15.404200 -42.741500 -11.340400
C -15.213300 -42.020600 -11.896100
C -14.625900 -39.925700 -13.596200
H -14.433700 -39.229700 -14.182600
C -13.904200 -41.526600 -11.965200
C -13.611800 -40.478900 -12.838400
O -13.272100 -43.048700 -10.302200
C -12.868600 -42.063000 -11.078900
H -12.612400 -43.372100 -9.658500
O -12.354900 -39.966700 -12.973800
H -11.828100 -40.422700 -12.368100
O -11.722800 -41.622300 -11.048700
44
Fragment
H -11.694300 -33.920100 -13.137300
N -11.029800 -34.250600 -12.528900
O -10.912400 -32.321500 -11.383100
N -10.751600 -35.591700 -12.749200
C -10.580300 -33.500400 -11.496700
H -10.155600 -38.162600 -11.432500
H -10.061500 -37.917300 -12.977900
C -10.020300 -36.205000 -11.908300
H -9.808000 -35.997100 -9.907800
N -9.728400 -34.138800 -10.626100
C -9.728200 -37.645600 -12.119900
C -9.445900 -35.563700 -10.696900
N -9.237000 -33.359400 -9.609500
H -8.780000 -37.788400 -12.084400
H -8.683400 -31.278400 -8.123000
H -8.485400 -35.696400 -10.693700
C -8.485400 -33.907800 -8.737200
H -8.292900 -34.816200 -8.790400
C -8.153500 -31.735300 -7.510000
C -7.927300 -33.101800 -7.655100
H -7.719400 -30.155500 -6.339600
C -7.584400 -31.069100 -6.450600
C -7.117200 -33.727500 -6.711100
H -6.956900 -34.639000 -6.802900
C -6.806600 -31.778100 -5.551200
N -6.556900 -33.085400 -5.675300
H -6.440800 -31.323700 -4.827300
H -17.625300 -42.511200 -11.983500
O -17.520700 -41.867800 -12.591900
H -16.589100 -39.995600 -14.000300
C -16.221000 -41.451200 -12.641700
C -15.915600 -40.390800 -13.495700
H -15.404200 -42.741500 -11.340400
C -15.213300 -42.020600 -11.896100
C -14.625900 -39.925700 -13.596200
H -14.433700 -39.229700 -14.182600
C -13.904200 -41.526600 -11.965200
C -13.611800 -40.478900 -12.838400
O -13.272100 -43.048700 -10.302200
C -12.868600 -42.063000 -11.078900
H -12.612400 -43.372100 -9.658500
O -12.354900 -39.966700 -12.973800
H -11.828100 -40.422700 -12.368100
O -11.722800 -41.622300 -11.048700
