27
Fragment
H -11.694300 -33.920100 -13.137300
N -11.029800 -34.250600 -12.528900
O -10.912400 -32.321500 -11.383100
N -10.751600 -35.591700 -12.749200
C -10.580300 -33.500400 -11.496700
H -10.155600 -38.162600 -11.432500
H -10.061500 -37.917300 -12.977900
C -10.020300 -36.205000 -11.908300
H -9.808000 -35.997100 -9.907800
N -9.728400 -34.138800 -10.626100
C -9.728200 -37.645600 -12.119900
C -9.445900 -35.563700 -10.696900
N -9.237000 -33.359400 -9.609500
H -8.780000 -37.788400 -12.084400
H -8.683400 -31.278400 -8.123000
H -8.485400 -35.696400 -10.693700
C -8.485400 -33.907800 -8.737200
H -8.292900 -34.816200 -8.790400
C -8.153500 -31.735300 -7.510000
C -7.927300 -33.101800 -7.655100
H -7.719400 -30.155500 -6.339600
C -7.584400 -31.069100 -6.450600
C -7.117200 -33.727500 -6.711100
H -6.956900 -34.639000 -6.802900
C -6.806600 -31.778100 -5.551200
N -6.556900 -33.085400 -5.675300
H -6.440800 -31.323700 -4.827300
27
Fragment
H -5.364500 -33.920100 -4.396600
N -4.700100 -34.250600 -3.788200
O -4.582600 -32.321500 -2.642400
N -4.421800 -35.591700 -4.008500
C -4.250500 -33.500400 -2.755900
H -3.825800 -38.162600 -2.691800
H -3.731700 -37.917300 -4.237200
C -3.690500 -36.205000 -3.167600
H -3.478200 -35.997100 -1.167100
N -3.398600 -34.138800 -1.885400
C -3.398400 -37.645600 -3.379200
C -3.116200 -35.563700 -1.956200
N -2.907200 -33.359400 -0.868800
H -2.450200 -37.788400 -3.343700
H -2.353600 -31.278400 0.617700
H -2.155600 -35.696400 -1.952900
C -2.155600 -33.907800 0.003500
H -1.963100 -34.816200 -0.049700
C -1.823700 -31.735300 1.230700
C -1.597500 -33.101800 1.085600
H -1.389600 -30.155500 2.401100
C -1.254600 -31.069100 2.290100
C -0.787400 -33.727500 2.029600
H -0.627100 -34.639000 1.937800
C -0.476800 -31.778100 3.189500
N -0.227100 -33.085400 3.065400
H -0.111000 -31.323700 3.913400
54
Fragment
H -11.694300 -33.920100 -13.137300
N -11.029800 -34.250600 -12.528900
O -10.912400 -32.321500 -11.383100
N -10.751600 -35.591700 -12.749200
C -10.580300 -33.500400 -11.496700
H -10.155600 -38.162600 -11.432500
H -10.061500 -37.917300 -12.977900
C -10.020300 -36.205000 -11.908300
H -9.808000 -35.997100 -9.907800
N -9.728400 -34.138800 -10.626100
C -9.728200 -37.645600 -12.119900
C -9.445900 -35.563700 -10.696900
N -9.237000 -33.359400 -9.609500
H -8.780000 -37.788400 -12.084400
H -8.683400 -31.278400 -8.123000
H -8.485400 -35.696400 -10.693700
C -8.485400 -33.907800 -8.737200
H -8.292900 -34.816200 -8.790400
C -8.153500 -31.735300 -7.510000
C -7.927300 -33.101800 -7.655100
H -7.719400 -30.155500 -6.339600
C -7.584400 -31.069100 -6.450600
C -7.117200 -33.727500 -6.711100
H -6.956900 -34.639000 -6.802900
C -6.806600 -31.778100 -5.551200
N -6.556900 -33.085400 -5.675300
H -6.440800 -31.323700 -4.827300
H -5.364500 -33.920100 -4.396600
N -4.700100 -34.250600 -3.788200
O -4.582600 -32.321500 -2.642400
N -4.421800 -35.591700 -4.008500
C -4.250500 -33.500400 -2.755900
H -3.825800 -38.162600 -2.691800
H -3.731700 -37.917300 -4.237200
C -3.690500 -36.205000 -3.167600
H -3.478200 -35.997100 -1.167100
N -3.398600 -34.138800 -1.885400
C -3.398400 -37.645600 -3.379200
C -3.116200 -35.563700 -1.956200
N -2.907200 -33.359400 -0.868800
H -2.450200 -37.788400 -3.343700
H -2.353600 -31.278400 0.617700
H -2.155600 -35.696400 -1.952900
C -2.155600 -33.907800 0.003500
H -1.963100 -34.816200 -0.049700
C -1.823700 -31.735300 1.230700
C -1.597500 -33.101800 1.085600
H -1.389600 -30.155500 2.401100
C -1.254600 -31.069100 2.290100
C -0.787400 -33.727500 2.029600
H -0.627100 -34.639000 1.937800
C -0.476800 -31.778100 3.189500
N -0.227100 -33.085400 3.065400
H -0.111000 -31.323700 3.913400
