27
Fragment
H -11.694300 -33.920100 -13.137300
N -11.029800 -34.250600 -12.528900
O -10.912400 -32.321500 -11.383100
N -10.751600 -35.591700 -12.749200
C -10.580300 -33.500400 -11.496700
H -10.155600 -38.162600 -11.432500
H -10.061500 -37.917300 -12.977900
C -10.020300 -36.205000 -11.908300
H -9.808000 -35.997100 -9.907800
N -9.728400 -34.138800 -10.626100
C -9.728200 -37.645600 -12.119900
C -9.445900 -35.563700 -10.696900
N -9.237000 -33.359400 -9.609500
H -8.780000 -37.788400 -12.084400
H -8.683400 -31.278400 -8.123000
H -8.485400 -35.696400 -10.693700
C -8.485400 -33.907800 -8.737200
H -8.292900 -34.816200 -8.790400
C -8.153500 -31.735300 -7.510000
C -7.927300 -33.101800 -7.655100
H -7.719400 -30.155500 -6.339600
C -7.584400 -31.069100 -6.450600
C -7.117200 -33.727500 -6.711100
H -6.956900 -34.639000 -6.802900
C -6.806600 -31.778100 -5.551200
N -6.556900 -33.085400 -5.675300
H -6.440800 -31.323700 -4.827300
27
Fragment
H -8.212000 -37.004000 -3.913400
N -8.095900 -35.242300 -3.065400
C -7.846200 -36.549600 -3.189500
H -7.695900 -33.688700 -1.937800
C -7.535600 -34.600200 -2.029600
C -7.068400 -37.258600 -2.290100
H -6.933400 -38.172200 -2.401100
C -6.725500 -35.225900 -1.085600
C -6.499300 -36.592400 -1.230700
H -6.359900 -33.511500 0.049700
C -6.167400 -34.419900 -0.003500
H -6.167400 -32.631300 1.952900
H -5.969400 -37.049300 -0.617700
H -5.872800 -30.539300 3.343700
N -5.415800 -34.968300 0.868800
C -5.206800 -32.764000 1.956200
C -4.924600 -30.682100 3.379200
N -4.924400 -34.188900 1.885400
H -4.844800 -32.330600 1.167100
C -4.632500 -32.122700 3.167600
H -4.591300 -30.410400 4.237200
H -4.497200 -30.165100 2.691800
C -4.072500 -34.827300 2.755900
N -3.901200 -32.736000 4.008500
O -3.740400 -36.006200 2.642400
N -3.622900 -34.077100 3.788200
H -2.958500 -34.407600 4.396600
54
Fragment
H -11.694300 -33.920100 -13.137300
N -11.029800 -34.250600 -12.528900
O -10.912400 -32.321500 -11.383100
N -10.751600 -35.591700 -12.749200
C -10.580300 -33.500400 -11.496700
H -10.155600 -38.162600 -11.432500
H -10.061500 -37.917300 -12.977900
C -10.020300 -36.205000 -11.908300
H -9.808000 -35.997100 -9.907800
N -9.728400 -34.138800 -10.626100
C -9.728200 -37.645600 -12.119900
C -9.445900 -35.563700 -10.696900
N -9.237000 -33.359400 -9.609500
H -8.780000 -37.788400 -12.084400
H -8.683400 -31.278400 -8.123000
H -8.485400 -35.696400 -10.693700
C -8.485400 -33.907800 -8.737200
H -8.292900 -34.816200 -8.790400
C -8.153500 -31.735300 -7.510000
C -7.927300 -33.101800 -7.655100
H -7.719400 -30.155500 -6.339600
C -7.584400 -31.069100 -6.450600
C -7.117200 -33.727500 -6.711100
H -6.956900 -34.639000 -6.802900
C -6.806600 -31.778100 -5.551200
N -6.556900 -33.085400 -5.675300
H -6.440800 -31.323700 -4.827300
H -8.212000 -37.004000 -3.913400
N -8.095900 -35.242300 -3.065400
C -7.846200 -36.549600 -3.189500
H -7.695900 -33.688700 -1.937800
C -7.535600 -34.600200 -2.029600
C -7.068400 -37.258600 -2.290100
H -6.933400 -38.172200 -2.401100
C -6.725500 -35.225900 -1.085600
C -6.499300 -36.592400 -1.230700
H -6.359900 -33.511500 0.049700
C -6.167400 -34.419900 -0.003500
H -6.167400 -32.631300 1.952900
H -5.969400 -37.049300 -0.617700
H -5.872800 -30.539300 3.343700
N -5.415800 -34.968300 0.868800
C -5.206800 -32.764000 1.956200
C -4.924600 -30.682100 3.379200
N -4.924400 -34.188900 1.885400
H -4.844800 -32.330600 1.167100
C -4.632500 -32.122700 3.167600
H -4.591300 -30.410400 4.237200
H -4.497200 -30.165100 2.691800
C -4.072500 -34.827300 2.755900
N -3.901200 -32.736000 4.008500
O -3.740400 -36.006200 2.642400
N -3.622900 -34.077100 3.788200
H -2.958500 -34.407600 4.396600
