27
Fragment
H -11.694300 -33.920100 -13.137300
N -11.029800 -34.250600 -12.528900
O -10.912400 -32.321500 -11.383100
N -10.751600 -35.591700 -12.749200
C -10.580300 -33.500400 -11.496700
H -10.155600 -38.162600 -11.432500
H -10.061500 -37.917300 -12.977900
C -10.020300 -36.205000 -11.908300
H -9.808000 -35.997100 -9.907800
N -9.728400 -34.138800 -10.626100
C -9.728200 -37.645600 -12.119900
C -9.445900 -35.563700 -10.696900
N -9.237000 -33.359400 -9.609500
H -8.780000 -37.788400 -12.084400
H -8.683400 -31.278400 -8.123000
H -8.485400 -35.696400 -10.693700
C -8.485400 -33.907800 -8.737200
H -8.292900 -34.816200 -8.790400
C -8.153500 -31.735300 -7.510000
C -7.927300 -33.101800 -7.655100
H -7.719400 -30.155500 -6.339600
C -7.584400 -31.069100 -6.450600
C -7.117200 -33.727500 -6.711100
H -6.956900 -34.639000 -6.802900
C -6.806600 -31.778100 -5.551200
N -6.556900 -33.085400 -5.675300
H -6.440800 -31.323700 -4.827300
27
Fragment
H -12.548500 -37.004000 -21.394800
N -12.432400 -35.242300 -20.546800
C -12.182800 -36.549600 -20.670900
H -12.032500 -33.688700 -19.419200
C -11.872100 -34.600200 -19.511000
C -11.404900 -37.258600 -19.771500
H -11.270000 -38.172200 -19.882500
C -11.062000 -35.225900 -18.567000
C -10.835800 -36.592400 -18.712100
H -10.696400 -33.511500 -17.431700
H -10.504000 -32.631300 -15.528500
C -10.503900 -34.419900 -17.484900
H -10.305900 -37.049300 -18.099100
H -10.209400 -30.539300 -14.137800
N -9.752400 -34.968300 -16.612600
C -9.543400 -32.764000 -15.525300
C -9.261100 -30.682100 -14.102300
N -9.260900 -34.188900 -15.596100
H -9.181300 -32.330600 -16.314400
C -8.969000 -32.122700 -14.313800
H -8.927800 -30.410400 -13.244200
H -8.833700 -30.165100 -14.789600
C -8.409100 -34.827300 -14.725500
N -8.237800 -32.736000 -13.472900
O -8.077000 -36.006200 -14.839000
N -7.959500 -34.077100 -13.693200
H -7.295100 -34.407600 -13.084800
54
Fragment
H -11.694300 -33.920100 -13.137300
N -11.029800 -34.250600 -12.528900
O -10.912400 -32.321500 -11.383100
N -10.751600 -35.591700 -12.749200
C -10.580300 -33.500400 -11.496700
H -10.155600 -38.162600 -11.432500
H -10.061500 -37.917300 -12.977900
C -10.020300 -36.205000 -11.908300
H -9.808000 -35.997100 -9.907800
N -9.728400 -34.138800 -10.626100
C -9.728200 -37.645600 -12.119900
C -9.445900 -35.563700 -10.696900
N -9.237000 -33.359400 -9.609500
H -8.780000 -37.788400 -12.084400
H -8.683400 -31.278400 -8.123000
H -8.485400 -35.696400 -10.693700
C -8.485400 -33.907800 -8.737200
H -8.292900 -34.816200 -8.790400
C -8.153500 -31.735300 -7.510000
C -7.927300 -33.101800 -7.655100
H -7.719400 -30.155500 -6.339600
C -7.584400 -31.069100 -6.450600
C -7.117200 -33.727500 -6.711100
H -6.956900 -34.639000 -6.802900
C -6.806600 -31.778100 -5.551200
N -6.556900 -33.085400 -5.675300
H -6.440800 -31.323700 -4.827300
H -12.548500 -37.004000 -21.394800
N -12.432400 -35.242300 -20.546800
C -12.182800 -36.549600 -20.670900
H -12.032500 -33.688700 -19.419200
C -11.872100 -34.600200 -19.511000
C -11.404900 -37.258600 -19.771500
H -11.270000 -38.172200 -19.882500
C -11.062000 -35.225900 -18.567000
C -10.835800 -36.592400 -18.712100
H -10.696400 -33.511500 -17.431700
H -10.504000 -32.631300 -15.528500
C -10.503900 -34.419900 -17.484900
H -10.305900 -37.049300 -18.099100
H -10.209400 -30.539300 -14.137800
N -9.752400 -34.968300 -16.612600
C -9.543400 -32.764000 -15.525300
C -9.261100 -30.682100 -14.102300
N -9.260900 -34.188900 -15.596100
H -9.181300 -32.330600 -16.314400
C -8.969000 -32.122700 -14.313800
H -8.927800 -30.410400 -13.244200
H -8.833700 -30.165100 -14.789600
C -8.409100 -34.827300 -14.725500
N -8.237800 -32.736000 -13.472900
O -8.077000 -36.006200 -14.839000
N -7.959500 -34.077100 -13.693200
H -7.295100 -34.407600 -13.084800
