27
Fragment
H -11.694300 -33.920100 -13.137300
N -11.029800 -34.250600 -12.528900
O -10.912400 -32.321500 -11.383100
N -10.751600 -35.591700 -12.749200
C -10.580300 -33.500400 -11.496700
H -10.155600 -38.162600 -11.432500
H -10.061500 -37.917300 -12.977900
C -10.020300 -36.205000 -11.908300
H -9.808000 -35.997100 -9.907800
N -9.728400 -34.138800 -10.626100
C -9.728200 -37.645600 -12.119900
C -9.445900 -35.563700 -10.696900
N -9.237000 -33.359400 -9.609500
H -8.780000 -37.788400 -12.084400
H -8.683400 -31.278400 -8.123000
H -8.485400 -35.696400 -10.693700
C -8.485400 -33.907800 -8.737200
H -8.292900 -34.816200 -8.790400
C -8.153500 -31.735300 -7.510000
C -7.927300 -33.101800 -7.655100
H -7.719400 -30.155500 -6.339600
C -7.584400 -31.069100 -6.450600
C -7.117200 -33.727500 -6.711100
H -6.956900 -34.639000 -6.802900
C -6.806600 -31.778100 -5.551200
N -6.556900 -33.085400 -5.675300
H -6.440800 -31.323700 -4.827300
27
Fragment
H -6.218700 -37.004000 -12.654100
N -6.102700 -35.242300 -11.806100
C -5.853000 -36.549600 -11.930200
H -5.702700 -33.688700 -10.678500
C -5.542400 -34.600200 -10.770300
C -5.075100 -37.258600 -11.030800
H -4.940200 -38.172200 -11.141800
C -4.732200 -35.225900 -9.826300
C -4.506000 -36.592400 -9.971400
H -4.366700 -33.511500 -8.691000
C -4.174200 -34.419900 -8.744200
H -4.174200 -32.631300 -6.787800
H -3.976200 -37.049300 -9.358400
H -3.879600 -30.539300 -5.397000
N -3.422600 -34.968300 -7.871900
C -3.213600 -32.764000 -6.784500
C -2.931400 -30.682100 -5.361600
N -2.931100 -34.188900 -6.855300
H -2.851600 -32.330600 -7.573700
C -2.639300 -32.122700 -5.573100
H -2.598000 -30.410400 -4.503500
H -2.504000 -30.165100 -6.048900
C -2.079300 -34.827300 -5.984800
N -1.908000 -32.736000 -4.732200
O -1.747200 -36.006200 -6.098300
N -1.629700 -34.077100 -4.952500
H -0.965300 -34.407600 -4.344100
54
Fragment
H -11.694300 -33.920100 -13.137300
N -11.029800 -34.250600 -12.528900
O -10.912400 -32.321500 -11.383100
N -10.751600 -35.591700 -12.749200
C -10.580300 -33.500400 -11.496700
H -10.155600 -38.162600 -11.432500
H -10.061500 -37.917300 -12.977900
C -10.020300 -36.205000 -11.908300
H -9.808000 -35.997100 -9.907800
N -9.728400 -34.138800 -10.626100
C -9.728200 -37.645600 -12.119900
C -9.445900 -35.563700 -10.696900
N -9.237000 -33.359400 -9.609500
H -8.780000 -37.788400 -12.084400
H -8.683400 -31.278400 -8.123000
H -8.485400 -35.696400 -10.693700
C -8.485400 -33.907800 -8.737200
H -8.292900 -34.816200 -8.790400
C -8.153500 -31.735300 -7.510000
C -7.927300 -33.101800 -7.655100
H -7.719400 -30.155500 -6.339600
C -7.584400 -31.069100 -6.450600
C -7.117200 -33.727500 -6.711100
H -6.956900 -34.639000 -6.802900
C -6.806600 -31.778100 -5.551200
N -6.556900 -33.085400 -5.675300
H -6.440800 -31.323700 -4.827300
H -6.218700 -37.004000 -12.654100
N -6.102700 -35.242300 -11.806100
C -5.853000 -36.549600 -11.930200
H -5.702700 -33.688700 -10.678500
C -5.542400 -34.600200 -10.770300
C -5.075100 -37.258600 -11.030800
H -4.940200 -38.172200 -11.141800
C -4.732200 -35.225900 -9.826300
C -4.506000 -36.592400 -9.971400
H -4.366700 -33.511500 -8.691000
C -4.174200 -34.419900 -8.744200
H -4.174200 -32.631300 -6.787800
H -3.976200 -37.049300 -9.358400
H -3.879600 -30.539300 -5.397000
N -3.422600 -34.968300 -7.871900
C -3.213600 -32.764000 -6.784500
C -2.931400 -30.682100 -5.361600
N -2.931100 -34.188900 -6.855300
H -2.851600 -32.330600 -7.573700
C -2.639300 -32.122700 -5.573100
H -2.598000 -30.410400 -4.503500
H -2.504000 -30.165100 -6.048900
C -2.079300 -34.827300 -5.984800
N -1.908000 -32.736000 -4.732200
O -1.747200 -36.006200 -6.098300
N -1.629700 -34.077100 -4.952500
H -0.965300 -34.407600 -4.344100
