27
Fragment
H -32.101700 -7.854300 -34.956000
O -31.530500 -9.217300 -36.846600
N -31.196400 -7.926600 -35.060800
C -30.730200 -8.654200 -36.098700
N -30.426900 -7.306100 -34.097600
N -29.372200 -8.727700 -36.228700
C -29.155300 -7.385700 -34.197400
H -29.050400 -10.853300 -39.462000
N -28.947000 -9.469500 -37.307700
H -28.891200 -6.296300 -32.513600
C -28.441000 -8.096500 -35.306600
C -28.321100 -6.729100 -33.153500
H -28.198000 -11.976300 -41.307100
C -28.131800 -10.916700 -39.593800
H -27.890600 -7.461700 -35.791400
H -27.856200 -8.772100 -34.929300
H -27.785200 -7.389900 -32.709400
H -27.749000 -6.076600 -33.564500
C -27.691300 -9.573700 -37.522000
C -27.625700 -11.587100 -40.685700
C -27.247000 -10.337800 -38.692400
H -27.075200 -9.174900 -36.950600
C -26.255300 -11.673200 -40.845500
H -25.924100 -12.128700 -41.585700
C -25.884000 -10.476400 -38.932700
N -25.382800 -11.134500 -39.988400
H -25.289000 -10.092400 -38.329800
16
Fragment
H -30.299600 -7.436200 -43.717800
H -30.201200 -6.589800 -41.568100
C -29.572500 -7.634100 -43.172700
C -29.509100 -7.123700 -41.886000
O -29.482700 -6.389500 -39.251300
H -29.420500 -6.041200 -38.386600
H -29.274500 -8.677000 -45.382800
O -28.575100 -9.012800 -44.881700
C -28.547700 -8.443100 -43.645800
C -28.423100 -7.400200 -41.066600
C -28.332900 -6.888300 -39.671800
C -27.451000 -8.708300 -42.838100
C -27.393200 -8.184900 -41.563400
O -27.320500 -6.933000 -39.003200
H -26.755800 -9.238200 -43.155900
H -26.652700 -8.361600 -41.029100
43
Fragment
H -32.101700 -7.854300 -34.956000
O -31.530500 -9.217300 -36.846600
N -31.196400 -7.926600 -35.060800
C -30.730200 -8.654200 -36.098700
N -30.426900 -7.306100 -34.097600
N -29.372200 -8.727700 -36.228700
C -29.155300 -7.385700 -34.197400
H -29.050400 -10.853300 -39.462000
N -28.947000 -9.469500 -37.307700
H -28.891200 -6.296300 -32.513600
C -28.441000 -8.096500 -35.306600
C -28.321100 -6.729100 -33.153500
H -28.198000 -11.976300 -41.307100
C -28.131800 -10.916700 -39.593800
H -27.890600 -7.461700 -35.791400
H -27.856200 -8.772100 -34.929300
H -27.785200 -7.389900 -32.709400
H -27.749000 -6.076600 -33.564500
C -27.691300 -9.573700 -37.522000
C -27.625700 -11.587100 -40.685700
C -27.247000 -10.337800 -38.692400
H -27.075200 -9.174900 -36.950600
C -26.255300 -11.673200 -40.845500
H -25.924100 -12.128700 -41.585700
C -25.884000 -10.476400 -38.932700
N -25.382800 -11.134500 -39.988400
H -25.289000 -10.092400 -38.329800
H -30.299600 -7.436200 -43.717800
H -30.201200 -6.589800 -41.568100
C -29.572500 -7.634100 -43.172700
C -29.509100 -7.123700 -41.886000
O -29.482700 -6.389500 -39.251300
H -29.420500 -6.041200 -38.386600
H -29.274500 -8.677000 -45.382800
O -28.575100 -9.012800 -44.881700
C -28.547700 -8.443100 -43.645800
C -28.423100 -7.400200 -41.066600
C -28.332900 -6.888300 -39.671800
C -27.451000 -8.708300 -42.838100
C -27.393200 -8.184900 -41.563400
O -27.320500 -6.933000 -39.003200
H -26.755800 -9.238200 -43.155900
H -26.652700 -8.361600 -41.029100
