27
Fragment
H -32.101700 -7.854300 -34.956000
O -31.530500 -9.217300 -36.846600
N -31.196400 -7.926600 -35.060800
C -30.730200 -8.654200 -36.098700
N -30.426900 -7.306100 -34.097600
N -29.372200 -8.727700 -36.228700
C -29.155300 -7.385700 -34.197400
H -29.050400 -10.853300 -39.462000
N -28.947000 -9.469500 -37.307700
H -28.891200 -6.296300 -32.513600
C -28.441000 -8.096500 -35.306600
C -28.321100 -6.729100 -33.153500
H -28.198000 -11.976300 -41.307100
C -28.131800 -10.916700 -39.593800
H -27.890600 -7.461700 -35.791400
H -27.856200 -8.772100 -34.929300
H -27.785200 -7.389900 -32.709400
H -27.749000 -6.076600 -33.564500
C -27.691300 -9.573700 -37.522000
C -27.625700 -11.587100 -40.685700
C -27.247000 -10.337800 -38.692400
H -27.075200 -9.174900 -36.950600
C -26.255300 -11.673200 -40.845500
H -25.924100 -12.128700 -41.585700
C -25.884000 -10.476400 -38.932700
N -25.382800 -11.134500 -39.988400
H -25.289000 -10.092400 -38.329800
27
Fragment
H -26.841100 -12.761900 -36.683100
N -26.747300 -11.719800 -35.024500
C -26.246100 -12.377900 -36.080200
H -26.206000 -10.725600 -33.427200
C -25.874800 -11.181100 -34.167400
H -25.054900 -13.679400 -38.062300
C -24.883100 -12.516500 -36.320500
C -24.504400 -11.267200 -34.327200
C -24.438800 -13.280600 -37.490900
H -24.381100 -16.777700 -41.448400
H -24.344900 -15.464400 -42.303500
H -24.273900 -14.082200 -40.083600
H -24.239500 -15.392600 -39.221500
C -23.998300 -11.937600 -35.419100
H -23.932100 -10.878000 -33.705800
C -23.809000 -16.125200 -41.859400
C -23.689100 -14.757800 -39.706300
H -23.238900 -16.558000 -42.499300
N -23.183100 -13.384800 -37.705200
H -23.079700 -12.001000 -35.550900
C -22.974800 -15.468600 -40.815500
N -22.757900 -14.126600 -38.784200
N -21.703200 -15.548200 -40.915300
C -21.399900 -14.200100 -38.914200
N -20.933700 -14.927700 -39.952100
O -20.599600 -13.637000 -38.166300
H -20.028400 -15.000000 -40.056900
54
Fragment
H -32.101700 -7.854300 -34.956000
O -31.530500 -9.217300 -36.846600
N -31.196400 -7.926600 -35.060800
C -30.730200 -8.654200 -36.098700
N -30.426900 -7.306100 -34.097600
N -29.372200 -8.727700 -36.228700
C -29.155300 -7.385700 -34.197400
H -29.050400 -10.853300 -39.462000
N -28.947000 -9.469500 -37.307700
H -28.891200 -6.296300 -32.513600
C -28.441000 -8.096500 -35.306600
C -28.321100 -6.729100 -33.153500
H -28.198000 -11.976300 -41.307100
C -28.131800 -10.916700 -39.593800
H -27.890600 -7.461700 -35.791400
H -27.856200 -8.772100 -34.929300
H -27.785200 -7.389900 -32.709400
H -27.749000 -6.076600 -33.564500
C -27.691300 -9.573700 -37.522000
C -27.625700 -11.587100 -40.685700
C -27.247000 -10.337800 -38.692400
H -27.075200 -9.174900 -36.950600
C -26.255300 -11.673200 -40.845500
H -25.924100 -12.128700 -41.585700
C -25.884000 -10.476400 -38.932700
N -25.382800 -11.134500 -39.988400
H -25.289000 -10.092400 -38.329800
H -26.841100 -12.761900 -36.683100
N -26.747300 -11.719800 -35.024500
C -26.246100 -12.377900 -36.080200
H -26.206000 -10.725600 -33.427200
C -25.874800 -11.181100 -34.167400
H -25.054900 -13.679400 -38.062300
C -24.883100 -12.516500 -36.320500
C -24.504400 -11.267200 -34.327200
C -24.438800 -13.280600 -37.490900
H -24.381100 -16.777700 -41.448400
H -24.344900 -15.464400 -42.303500
H -24.273900 -14.082200 -40.083600
H -24.239500 -15.392600 -39.221500
C -23.998300 -11.937600 -35.419100
H -23.932100 -10.878000 -33.705800
C -23.809000 -16.125200 -41.859400
C -23.689100 -14.757800 -39.706300
H -23.238900 -16.558000 -42.499300
N -23.183100 -13.384800 -37.705200
H -23.079700 -12.001000 -35.550900
C -22.974800 -15.468600 -40.815500
N -22.757900 -14.126600 -38.784200
N -21.703200 -15.548200 -40.915300
C -21.399900 -14.200100 -38.914200
N -20.933700 -14.927700 -39.952100
O -20.599600 -13.637000 -38.166300
H -20.028400 -15.000000 -40.056900
