27
Fragment
H -32.101700 -7.854300 -34.956000
O -31.530500 -9.217300 -36.846600
N -31.196400 -7.926600 -35.060800
C -30.730200 -8.654200 -36.098700
N -30.426900 -7.306100 -34.097600
N -29.372200 -8.727700 -36.228700
C -29.155300 -7.385700 -34.197400
H -29.050400 -10.853300 -39.462000
N -28.947000 -9.469500 -37.307700
H -28.891200 -6.296300 -32.513600
C -28.441000 -8.096500 -35.306600
C -28.321100 -6.729100 -33.153500
H -28.198000 -11.976300 -41.307100
C -28.131800 -10.916700 -39.593800
H -27.890600 -7.461700 -35.791400
H -27.856200 -8.772100 -34.929300
H -27.785200 -7.389900 -32.709400
H -27.749000 -6.076600 -33.564500
C -27.691300 -9.573700 -37.522000
C -27.625700 -11.587100 -40.685700
C -27.247000 -10.337800 -38.692400
H -27.075200 -9.174900 -36.950600
C -26.255300 -11.673200 -40.845500
H -25.924100 -12.128700 -41.585700
C -25.884000 -10.476400 -38.932700
N -25.382800 -11.134500 -39.988400
H -25.289000 -10.092400 -38.329800
27
Fragment
H -35.529400 -13.901400 -38.329800
N -35.435600 -14.943500 -39.988400
C -34.934500 -14.285500 -38.932700
H -34.894300 -15.937800 -41.585700
C -34.563100 -15.482300 -40.845500
H -33.743300 -12.983900 -36.950600
C -33.571400 -14.146800 -38.692400
C -33.192800 -15.396200 -40.685700
C -33.127100 -13.382700 -37.522000
H -33.069400 -9.885600 -33.564500
H -33.033300 -11.198900 -32.709400
H -32.962200 -12.581100 -34.929300
H -32.927800 -11.270800 -35.791400
C -32.686600 -14.725800 -39.593800
H -32.620400 -15.785300 -41.307100
C -32.497400 -10.538100 -33.153500
C -32.377500 -11.905600 -35.306600
H -31.927300 -10.105300 -32.513600
N -31.871500 -13.278600 -37.307700
H -31.768100 -14.662300 -39.462000
C -31.663100 -11.194800 -34.197400
N -31.446300 -12.536700 -36.228700
N -30.391500 -11.115200 -34.097600
C -30.088300 -12.463200 -36.098700
N -29.622100 -11.735700 -35.060800
O -29.287900 -13.026300 -36.846600
H -28.716700 -11.663300 -34.956000
54
Fragment
H -32.101700 -7.854300 -34.956000
O -31.530500 -9.217300 -36.846600
N -31.196400 -7.926600 -35.060800
C -30.730200 -8.654200 -36.098700
N -30.426900 -7.306100 -34.097600
N -29.372200 -8.727700 -36.228700
C -29.155300 -7.385700 -34.197400
H -29.050400 -10.853300 -39.462000
N -28.947000 -9.469500 -37.307700
H -28.891200 -6.296300 -32.513600
C -28.441000 -8.096500 -35.306600
C -28.321100 -6.729100 -33.153500
H -28.198000 -11.976300 -41.307100
C -28.131800 -10.916700 -39.593800
H -27.890600 -7.461700 -35.791400
H -27.856200 -8.772100 -34.929300
H -27.785200 -7.389900 -32.709400
H -27.749000 -6.076600 -33.564500
C -27.691300 -9.573700 -37.522000
C -27.625700 -11.587100 -40.685700
C -27.247000 -10.337800 -38.692400
H -27.075200 -9.174900 -36.950600
C -26.255300 -11.673200 -40.845500
H -25.924100 -12.128700 -41.585700
C -25.884000 -10.476400 -38.932700
N -25.382800 -11.134500 -39.988400
H -25.289000 -10.092400 -38.329800
H -35.529400 -13.901400 -38.329800
N -35.435600 -14.943500 -39.988400
C -34.934500 -14.285500 -38.932700
H -34.894300 -15.937800 -41.585700
C -34.563100 -15.482300 -40.845500
H -33.743300 -12.983900 -36.950600
C -33.571400 -14.146800 -38.692400
C -33.192800 -15.396200 -40.685700
C -33.127100 -13.382700 -37.522000
H -33.069400 -9.885600 -33.564500
H -33.033300 -11.198900 -32.709400
H -32.962200 -12.581100 -34.929300
H -32.927800 -11.270800 -35.791400
C -32.686600 -14.725800 -39.593800
H -32.620400 -15.785300 -41.307100
C -32.497400 -10.538100 -33.153500
C -32.377500 -11.905600 -35.306600
H -31.927300 -10.105300 -32.513600
N -31.871500 -13.278600 -37.307700
H -31.768100 -14.662300 -39.462000
C -31.663100 -11.194800 -34.197400
N -31.446300 -12.536700 -36.228700
N -30.391500 -11.115200 -34.097600
C -30.088300 -12.463200 -36.098700
N -29.622100 -11.735700 -35.060800
O -29.287900 -13.026300 -36.846600
H -28.716700 -11.663300 -34.956000
