27
Fragment
H -32.101700 -7.854300 -34.956000
O -31.530500 -9.217300 -36.846600
N -31.196400 -7.926600 -35.060800
C -30.730200 -8.654200 -36.098700
N -30.426900 -7.306100 -34.097600
N -29.372200 -8.727700 -36.228700
C -29.155300 -7.385700 -34.197400
H -29.050400 -10.853300 -39.462000
N -28.947000 -9.469500 -37.307700
H -28.891200 -6.296300 -32.513600
C -28.441000 -8.096500 -35.306600
C -28.321100 -6.729100 -33.153500
H -28.198000 -11.976300 -41.307100
C -28.131800 -10.916700 -39.593800
H -27.890600 -7.461700 -35.791400
H -27.856200 -8.772100 -34.929300
H -27.785200 -7.389900 -32.709400
H -27.749000 -6.076600 -33.564500
C -27.691300 -9.573700 -37.522000
C -27.625700 -11.587100 -40.685700
C -27.247000 -10.337800 -38.692400
H -27.075200 -9.174900 -36.950600
C -26.255300 -11.673200 -40.845500
H -25.924100 -12.128700 -41.585700
C -25.884000 -10.476400 -38.932700
N -25.382800 -11.134500 -39.988400
H -25.289000 -10.092400 -38.329800
27
Fragment
H -40.790100 -11.191000 -40.056900
O -40.218900 -9.828000 -38.166300
N -39.884700 -11.118600 -39.952100
C -39.418500 -10.391100 -38.914200
N -39.115300 -11.739100 -40.915300
N -38.060500 -10.317600 -38.784200
C -37.843700 -11.659500 -40.815500
H -37.738700 -8.192000 -35.550900
N -37.635300 -9.575700 -37.705200
H -37.579500 -12.749000 -42.499300
C -37.129300 -10.948700 -39.706300
C -37.009400 -12.316200 -41.859400
H -36.886400 -7.069000 -33.705800
C -36.820200 -8.128500 -35.419100
H -36.579000 -11.583500 -39.221500
H -36.544600 -10.273200 -40.083600
H -36.473500 -11.655400 -42.303500
H -36.437400 -12.968700 -41.448400
C -36.379700 -9.471600 -37.490900
C -36.314000 -7.458100 -34.327200
C -35.935400 -8.707500 -36.320500
H -35.763500 -9.870400 -38.062300
C -34.943700 -7.372000 -34.167400
H -34.612500 -6.916500 -33.427200
C -34.572300 -8.568800 -36.080200
N -34.071200 -7.910800 -35.024500
H -33.977400 -8.952900 -36.683100
54
Fragment
H -32.101700 -7.854300 -34.956000
O -31.530500 -9.217300 -36.846600
N -31.196400 -7.926600 -35.060800
C -30.730200 -8.654200 -36.098700
N -30.426900 -7.306100 -34.097600
N -29.372200 -8.727700 -36.228700
C -29.155300 -7.385700 -34.197400
H -29.050400 -10.853300 -39.462000
N -28.947000 -9.469500 -37.307700
H -28.891200 -6.296300 -32.513600
C -28.441000 -8.096500 -35.306600
C -28.321100 -6.729100 -33.153500
H -28.198000 -11.976300 -41.307100
C -28.131800 -10.916700 -39.593800
H -27.890600 -7.461700 -35.791400
H -27.856200 -8.772100 -34.929300
H -27.785200 -7.389900 -32.709400
H -27.749000 -6.076600 -33.564500
C -27.691300 -9.573700 -37.522000
C -27.625700 -11.587100 -40.685700
C -27.247000 -10.337800 -38.692400
H -27.075200 -9.174900 -36.950600
C -26.255300 -11.673200 -40.845500
H -25.924100 -12.128700 -41.585700
C -25.884000 -10.476400 -38.932700
N -25.382800 -11.134500 -39.988400
H -25.289000 -10.092400 -38.329800
H -40.790100 -11.191000 -40.056900
O -40.218900 -9.828000 -38.166300
N -39.884700 -11.118600 -39.952100
C -39.418500 -10.391100 -38.914200
N -39.115300 -11.739100 -40.915300
N -38.060500 -10.317600 -38.784200
C -37.843700 -11.659500 -40.815500
H -37.738700 -8.192000 -35.550900
N -37.635300 -9.575700 -37.705200
H -37.579500 -12.749000 -42.499300
C -37.129300 -10.948700 -39.706300
C -37.009400 -12.316200 -41.859400
H -36.886400 -7.069000 -33.705800
C -36.820200 -8.128500 -35.419100
H -36.579000 -11.583500 -39.221500
H -36.544600 -10.273200 -40.083600
H -36.473500 -11.655400 -42.303500
H -36.437400 -12.968700 -41.448400
C -36.379700 -9.471600 -37.490900
C -36.314000 -7.458100 -34.327200
C -35.935400 -8.707500 -36.320500
H -35.763500 -9.870400 -38.062300
C -34.943700 -7.372000 -34.167400
H -34.612500 -6.916500 -33.427200
C -34.572300 -8.568800 -36.080200
N -34.071200 -7.910800 -35.024500
H -33.977400 -8.952900 -36.683100
