26
Fragment
N -19.918100 -6.192900 -74.787800
N -19.532300 -7.256600 -75.490600
N -19.176600 -6.074200 -73.610000
N -18.523800 -7.862400 -74.762300
C -18.307000 -7.126900 -73.614000
H -18.102800 -8.577500 -74.988100
H -17.727000 -5.866900 -71.333100
C -17.303100 -7.458900 -72.539900
C -17.182300 -6.617300 -71.406900
H -16.604800 -5.311800 -69.075100
H -16.555000 -9.193700 -73.406600
C -16.465300 -8.641300 -72.663800
C -16.214200 -6.913000 -70.352600
C -16.066900 -6.063700 -69.170500
C -15.514700 -8.958500 -71.664400
C -15.369300 -8.105300 -70.486200
C -15.115200 -6.376000 -68.175900
H -15.022600 -5.823500 -67.432200
H -14.978800 -9.713200 -71.759200
C -14.400100 -8.402200 -69.443700
C -14.274400 -7.562200 -68.308100
H -13.855400 -9.152000 -69.523200
C -13.241400 -7.879900 -67.231000
O -13.112500 -7.100500 -66.214400
O -12.520300 -8.975500 -67.414200
H -11.892500 -8.980400 -66.887400
26
Fragment
N -24.923100 -0.694300 -74.782500
N -24.540300 -1.763400 -75.481400
N -24.182600 -0.570600 -73.606900
N -23.530800 -2.357100 -74.759600
C -23.320100 -1.621100 -73.606500
H -23.101700 -3.066800 -74.988100
H -22.731100 -0.367700 -71.328700
C -22.311100 -1.966800 -72.532000
C -22.190400 -1.120800 -71.401200
H -21.616900 0.175900 -69.070700
H -21.561100 -3.720900 -73.389000
C -21.467400 -3.160800 -72.651900
C -21.220200 -1.424800 -70.351300
C -21.075900 -0.574400 -69.167400
C -20.524700 -3.462000 -71.668700
C -20.382300 -2.605600 -70.488400
C -20.127300 -0.883400 -68.175000
H -20.039600 -0.332600 -67.432200
H -19.982700 -4.211300 -71.763600
C -19.405100 -2.908500 -69.442400
C -19.277400 -2.064700 -68.308600
H -18.863400 -3.659900 -69.523200
C -18.246400 -2.380800 -67.232300
O -18.121400 -1.605100 -66.216200
O -17.522200 -3.475800 -67.416400
H -17.096400 -3.639600 -66.733700
52
Fragment
N -19.918100 -6.192900 -74.787800
N -19.532300 -7.256600 -75.490600
N -19.176600 -6.074200 -73.610000
N -18.523800 -7.862400 -74.762300
C -18.307000 -7.126900 -73.614000
H -18.102800 -8.577500 -74.988100
H -17.727000 -5.866900 -71.333100
C -17.303100 -7.458900 -72.539900
C -17.182300 -6.617300 -71.406900
H -16.604800 -5.311800 -69.075100
H -16.555000 -9.193700 -73.406600
C -16.465300 -8.641300 -72.663800
C -16.214200 -6.913000 -70.352600
C -16.066900 -6.063700 -69.170500
C -15.514700 -8.958500 -71.664400
C -15.369300 -8.105300 -70.486200
C -15.115200 -6.376000 -68.175900
H -15.022600 -5.823500 -67.432200
H -14.978800 -9.713200 -71.759200
C -14.400100 -8.402200 -69.443700
C -14.274400 -7.562200 -68.308100
H -13.855400 -9.152000 -69.523200
C -13.241400 -7.879900 -67.231000
O -13.112500 -7.100500 -66.214400
O -12.520300 -8.975500 -67.414200
H -11.892500 -8.980400 -66.887400
N -24.923100 -0.694300 -74.782500
N -24.540300 -1.763400 -75.481400
N -24.182600 -0.570600 -73.606900
N -23.530800 -2.357100 -74.759600
C -23.320100 -1.621100 -73.606500
H -23.101700 -3.066800 -74.988100
H -22.731100 -0.367700 -71.328700
C -22.311100 -1.966800 -72.532000
C -22.190400 -1.120800 -71.401200
H -21.616900 0.175900 -69.070700
H -21.561100 -3.720900 -73.389000
C -21.467400 -3.160800 -72.651900
C -21.220200 -1.424800 -70.351300
C -21.075900 -0.574400 -69.167400
C -20.524700 -3.462000 -71.668700
C -20.382300 -2.605600 -70.488400
C -20.127300 -0.883400 -68.175000
H -20.039600 -0.332600 -67.432200
H -19.982700 -4.211300 -71.763600
C -19.405100 -2.908500 -69.442400
C -19.277400 -2.064700 -68.308600
H -18.863400 -3.659900 -69.523200
C -18.246400 -2.380800 -67.232300
O -18.121400 -1.605100 -66.216200
O -17.522200 -3.475800 -67.416400
H -17.096400 -3.639600 -66.733700
