26
Fragment
N -19.918100 -6.192900 -74.787800
N -19.532300 -7.256600 -75.490600
N -19.176600 -6.074200 -73.610000
N -18.523800 -7.862400 -74.762300
C -18.307000 -7.126900 -73.614000
H -18.102800 -8.577500 -74.988100
H -17.727000 -5.866900 -71.333100
C -17.303100 -7.458900 -72.539900
C -17.182300 -6.617300 -71.406900
H -16.604800 -5.311800 -69.075100
H -16.555000 -9.193700 -73.406600
C -16.465300 -8.641300 -72.663800
C -16.214200 -6.913000 -70.352600
C -16.066900 -6.063700 -69.170500
C -15.514700 -8.958500 -71.664400
C -15.369300 -8.105300 -70.486200
C -15.115200 -6.376000 -68.175900
H -15.022600 -5.823500 -67.432200
H -14.978800 -9.713200 -71.759200
C -14.400100 -8.402200 -69.443700
C -14.274400 -7.562200 -68.308100
H -13.855400 -9.152000 -69.523200
C -13.241400 -7.879900 -67.231000
O -13.112500 -7.100500 -66.214400
O -12.520300 -8.975500 -67.414200
H -11.892500 -8.980400 -66.887400
3
Fragment
H -22.132000 -7.649100 -78.054400
O -21.481500 -7.171900 -77.789500
H -21.013300 -7.615000 -77.232900
29
Fragment
N -19.918100 -6.192900 -74.787800
N -19.532300 -7.256600 -75.490600
N -19.176600 -6.074200 -73.610000
N -18.523800 -7.862400 -74.762300
C -18.307000 -7.126900 -73.614000
H -18.102800 -8.577500 -74.988100
H -17.727000 -5.866900 -71.333100
C -17.303100 -7.458900 -72.539900
C -17.182300 -6.617300 -71.406900
H -16.604800 -5.311800 -69.075100
H -16.555000 -9.193700 -73.406600
C -16.465300 -8.641300 -72.663800
C -16.214200 -6.913000 -70.352600
C -16.066900 -6.063700 -69.170500
C -15.514700 -8.958500 -71.664400
C -15.369300 -8.105300 -70.486200
C -15.115200 -6.376000 -68.175900
H -15.022600 -5.823500 -67.432200
H -14.978800 -9.713200 -71.759200
C -14.400100 -8.402200 -69.443700
C -14.274400 -7.562200 -68.308100
H -13.855400 -9.152000 -69.523200
C -13.241400 -7.879900 -67.231000
O -13.112500 -7.100500 -66.214400
O -12.520300 -8.975500 -67.414200
H -11.892500 -8.980400 -66.887400
H -22.132000 -7.649100 -78.054400
O -21.481500 -7.171900 -77.789500
H -21.013300 -7.615000 -77.232900
