26
Fragment
N -19.918100 -6.192900 -74.787800
N -19.532300 -7.256600 -75.490600
N -19.176600 -6.074200 -73.610000
N -18.523800 -7.862400 -74.762300
C -18.307000 -7.126900 -73.614000
H -18.102800 -8.577500 -74.988100
H -17.727000 -5.866900 -71.333100
C -17.303100 -7.458900 -72.539900
C -17.182300 -6.617300 -71.406900
H -16.604800 -5.311800 -69.075100
H -16.555000 -9.193700 -73.406600
C -16.465300 -8.641300 -72.663800
C -16.214200 -6.913000 -70.352600
C -16.066900 -6.063700 -69.170500
C -15.514700 -8.958500 -71.664400
C -15.369300 -8.105300 -70.486200
C -15.115200 -6.376000 -68.175900
H -15.022600 -5.823500 -67.432200
H -14.978800 -9.713200 -71.759200
C -14.400100 -8.402200 -69.443700
C -14.274400 -7.562200 -68.308100
H -13.855400 -9.152000 -69.523200
C -13.241400 -7.879900 -67.231000
O -13.112500 -7.100500 -66.214400
O -12.520300 -8.975500 -67.414200
H -11.892500 -8.980400 -66.887400
26
Fragment
N -14.905100 -6.191300 -74.782500
N -14.522300 -7.260400 -75.481400
N -14.164600 -6.067600 -73.606900
N -13.512800 -7.854100 -74.759600
C -13.302100 -7.118100 -73.606500
H -13.083700 -8.563800 -74.988100
H -12.713100 -5.864700 -71.328700
C -12.293100 -7.463800 -72.532000
C -12.172400 -6.617800 -71.401200
H -11.598900 -5.321100 -69.070700
H -11.543100 -9.217900 -73.389000
C -11.449400 -8.657800 -72.651900
C -11.202200 -6.921800 -70.351300
C -11.057900 -6.071400 -69.167400
C -10.506700 -8.959000 -71.668700
C -10.364300 -8.102600 -70.488400
C -10.109300 -6.380400 -68.175000
H -10.021600 -5.829600 -67.432200
H -9.964700 -9.708300 -71.763600
C -9.387100 -8.405500 -69.442400
C -9.259400 -7.561700 -68.308600
H -8.845400 -9.156900 -69.523200
C -8.228400 -7.877800 -67.232300
O -8.103400 -7.102100 -66.216200
O -7.504200 -8.972800 -67.416400
H -7.078400 -9.136600 -66.733700
52
Fragment
N -19.918100 -6.192900 -74.787800
N -19.532300 -7.256600 -75.490600
N -19.176600 -6.074200 -73.610000
N -18.523800 -7.862400 -74.762300
C -18.307000 -7.126900 -73.614000
H -18.102800 -8.577500 -74.988100
H -17.727000 -5.866900 -71.333100
C -17.303100 -7.458900 -72.539900
C -17.182300 -6.617300 -71.406900
H -16.604800 -5.311800 -69.075100
H -16.555000 -9.193700 -73.406600
C -16.465300 -8.641300 -72.663800
C -16.214200 -6.913000 -70.352600
C -16.066900 -6.063700 -69.170500
C -15.514700 -8.958500 -71.664400
C -15.369300 -8.105300 -70.486200
C -15.115200 -6.376000 -68.175900
H -15.022600 -5.823500 -67.432200
H -14.978800 -9.713200 -71.759200
C -14.400100 -8.402200 -69.443700
C -14.274400 -7.562200 -68.308100
H -13.855400 -9.152000 -69.523200
C -13.241400 -7.879900 -67.231000
O -13.112500 -7.100500 -66.214400
O -12.520300 -8.975500 -67.414200
H -11.892500 -8.980400 -66.887400
N -14.905100 -6.191300 -74.782500
N -14.522300 -7.260400 -75.481400
N -14.164600 -6.067600 -73.606900
N -13.512800 -7.854100 -74.759600
C -13.302100 -7.118100 -73.606500
H -13.083700 -8.563800 -74.988100
H -12.713100 -5.864700 -71.328700
C -12.293100 -7.463800 -72.532000
C -12.172400 -6.617800 -71.401200
H -11.598900 -5.321100 -69.070700
H -11.543100 -9.217900 -73.389000
C -11.449400 -8.657800 -72.651900
C -11.202200 -6.921800 -70.351300
C -11.057900 -6.071400 -69.167400
C -10.506700 -8.959000 -71.668700
C -10.364300 -8.102600 -70.488400
C -10.109300 -6.380400 -68.175000
H -10.021600 -5.829600 -67.432200
H -9.964700 -9.708300 -71.763600
C -9.387100 -8.405500 -69.442400
C -9.259400 -7.561700 -68.308600
H -8.845400 -9.156900 -69.523200
C -8.228400 -7.877800 -67.232300
O -8.103400 -7.102100 -66.216200
O -7.504200 -8.972800 -67.416400
H -7.078400 -9.136600 -66.733700
