9
Fragment
H -12.019000 -14.792000 -29.044200
H -11.956300 -15.558300 -26.618100
C -11.928100 -15.661000 -28.724000
H -11.870100 -16.826800 -30.388700
N -11.856900 -16.044000 -27.442900
C -11.840500 -16.792900 -29.459500
C -11.725600 -17.367500 -27.446300
N -11.702500 -17.868000 -28.651900
H -11.657800 -17.880600 -26.674100
30
Fragment
H -14.076900 -14.052100 -21.607400
H -13.734300 -16.267000 -22.090400
C -13.705000 -14.284700 -22.427200
C -13.504700 -15.600900 -22.697700
N -13.393900 -13.308600 -23.283700
C -12.948700 -15.892700 -23.908700
C -12.869300 -13.715500 -24.430100
H -12.796200 -16.785200 -24.123000
N -12.614400 -14.960700 -24.799200
N -12.579100 -12.616300 -25.312200
N -12.211400 -12.954100 -26.431800
N -12.113400 -10.605000 -26.899900
H -11.955900 -8.781000 -27.550500
C -11.948100 -11.857600 -27.315500
C -11.845200 -9.670600 -27.799600
N -11.554200 -12.244300 -28.516800
C -11.407200 -9.938000 -29.095700
H -11.330500 -8.048100 -29.517900
C -11.287200 -11.289100 -29.400800
N -11.163500 -8.859400 -29.920100
H -11.009700 -11.532600 -30.254500
C -10.741100 -8.836500 -31.228300
N -10.690400 -7.603000 -31.760800
N -10.437000 -9.979200 -31.841200
C -10.317400 -7.548200 -33.032800
H -10.288300 -6.717300 -33.450700
C -10.040600 -9.858900 -33.112600
C -9.971300 -8.660400 -33.764400
H -9.800000 -10.628800 -33.575700
H -9.705600 -8.599800 -34.653500
39
Fragment
H -12.019000 -14.792000 -29.044200
H -11.956300 -15.558300 -26.618100
C -11.928100 -15.661000 -28.724000
H -11.870100 -16.826800 -30.388700
N -11.856900 -16.044000 -27.442900
C -11.840500 -16.792900 -29.459500
C -11.725600 -17.367500 -27.446300
N -11.702500 -17.868000 -28.651900
H -11.657800 -17.880600 -26.674100
H -14.076900 -14.052100 -21.607400
H -13.734300 -16.267000 -22.090400
C -13.705000 -14.284700 -22.427200
C -13.504700 -15.600900 -22.697700
N -13.393900 -13.308600 -23.283700
C -12.948700 -15.892700 -23.908700
C -12.869300 -13.715500 -24.430100
H -12.796200 -16.785200 -24.123000
N -12.614400 -14.960700 -24.799200
N -12.579100 -12.616300 -25.312200
N -12.211400 -12.954100 -26.431800
N -12.113400 -10.605000 -26.899900
H -11.955900 -8.781000 -27.550500
C -11.948100 -11.857600 -27.315500
C -11.845200 -9.670600 -27.799600
N -11.554200 -12.244300 -28.516800
C -11.407200 -9.938000 -29.095700
H -11.330500 -8.048100 -29.517900
C -11.287200 -11.289100 -29.400800
N -11.163500 -8.859400 -29.920100
H -11.009700 -11.532600 -30.254500
C -10.741100 -8.836500 -31.228300
N -10.690400 -7.603000 -31.760800
N -10.437000 -9.979200 -31.841200
C -10.317400 -7.548200 -33.032800
H -10.288300 -6.717300 -33.450700
C -10.040600 -9.858900 -33.112600
C -9.971300 -8.660400 -33.764400
H -9.800000 -10.628800 -33.575700
H -9.705600 -8.599800 -34.653500
