9
Fragment
H -12.019000 -14.792000 -29.044200
H -11.956300 -15.558300 -26.618100
C -11.928100 -15.661000 -28.724000
H -11.870100 -16.826800 -30.388700
N -11.856900 -16.044000 -27.442900
C -11.840500 -16.792900 -29.459500
C -11.725600 -17.367500 -27.446300
N -11.702500 -17.868000 -28.651900
H -11.657800 -17.880600 -26.674100
30
Fragment
H -14.076900 -25.593900 -21.607400
H -13.734300 -27.808800 -22.090400
C -13.705000 -25.826500 -22.427200
C -13.504700 -27.142700 -22.697700
N -13.393900 -24.850400 -23.283700
C -12.948700 -27.434500 -23.908700
C -12.869300 -25.257300 -24.430100
H -12.796200 -28.327000 -24.123000
N -12.614400 -26.502500 -24.799200
N -12.579100 -24.158100 -25.312200
N -12.211400 -24.495900 -26.431800
N -12.113400 -22.146800 -26.899900
H -11.955900 -20.322800 -27.550500
C -11.948100 -23.399400 -27.315500
C -11.845200 -21.212400 -27.799600
N -11.554200 -23.786100 -28.516800
C -11.407200 -21.479800 -29.095700
H -11.330500 -19.589900 -29.517900
C -11.287200 -22.830900 -29.400800
N -11.163500 -20.401200 -29.920100
H -11.009700 -23.074400 -30.254500
C -10.741100 -20.378300 -31.228300
N -10.690400 -19.144800 -31.760800
N -10.437000 -21.521000 -31.841200
C -10.317400 -19.090000 -33.032800
H -10.288300 -18.259100 -33.450700
C -10.040600 -21.400700 -33.112600
C -9.971300 -20.202200 -33.764400
H -9.800000 -22.170600 -33.575700
H -9.705600 -20.141600 -34.653500
39
Fragment
H -12.019000 -14.792000 -29.044200
H -11.956300 -15.558300 -26.618100
C -11.928100 -15.661000 -28.724000
H -11.870100 -16.826800 -30.388700
N -11.856900 -16.044000 -27.442900
C -11.840500 -16.792900 -29.459500
C -11.725600 -17.367500 -27.446300
N -11.702500 -17.868000 -28.651900
H -11.657800 -17.880600 -26.674100
H -14.076900 -25.593900 -21.607400
H -13.734300 -27.808800 -22.090400
C -13.705000 -25.826500 -22.427200
C -13.504700 -27.142700 -22.697700
N -13.393900 -24.850400 -23.283700
C -12.948700 -27.434500 -23.908700
C -12.869300 -25.257300 -24.430100
H -12.796200 -28.327000 -24.123000
N -12.614400 -26.502500 -24.799200
N -12.579100 -24.158100 -25.312200
N -12.211400 -24.495900 -26.431800
N -12.113400 -22.146800 -26.899900
H -11.955900 -20.322800 -27.550500
C -11.948100 -23.399400 -27.315500
C -11.845200 -21.212400 -27.799600
N -11.554200 -23.786100 -28.516800
C -11.407200 -21.479800 -29.095700
H -11.330500 -19.589900 -29.517900
C -11.287200 -22.830900 -29.400800
N -11.163500 -20.401200 -29.920100
H -11.009700 -23.074400 -30.254500
C -10.741100 -20.378300 -31.228300
N -10.690400 -19.144800 -31.760800
N -10.437000 -21.521000 -31.841200
C -10.317400 -19.090000 -33.032800
H -10.288300 -18.259100 -33.450700
C -10.040600 -21.400700 -33.112600
C -9.971300 -20.202200 -33.764400
H -9.800000 -22.170600 -33.575700
H -9.705600 -20.141600 -34.653500
