9
Fragment
H -12.019000 -14.792000 -29.044200
H -11.956300 -15.558300 -26.618100
C -11.928100 -15.661000 -28.724000
H -11.870100 -16.826800 -30.388700
N -11.856900 -16.044000 -27.442900
C -11.840500 -16.792900 -29.459500
C -11.725600 -17.367500 -27.446300
N -11.702500 -17.868000 -28.651900
H -11.657800 -17.880600 -26.674100
30
Fragment
H -14.402000 -14.802400 -12.283400
H -14.059400 -12.587500 -12.766400
C -14.030100 -14.569800 -13.103200
C -13.829800 -13.253600 -13.373800
N -13.719000 -15.545900 -13.959700
C -13.273800 -12.961800 -14.584800
C -13.194400 -15.139000 -15.106200
H -13.121300 -12.069300 -14.799000
N -12.939600 -13.893800 -15.475200
N -12.904200 -16.238200 -15.988200
N -12.536500 -15.900400 -17.107800
N -12.438500 -18.249500 -17.575900
H -12.281000 -20.073500 -18.226500
C -12.273200 -16.996900 -17.991600
C -12.170300 -19.183900 -18.475700
N -11.879300 -16.610200 -19.192900
C -11.732300 -18.916500 -19.771700
H -11.655600 -20.806400 -20.193900
C -11.612400 -17.565400 -20.076800
N -11.488600 -19.995100 -20.596100
H -11.334800 -17.321900 -20.930500
C -11.066200 -20.018000 -21.904300
N -11.015600 -21.251500 -22.436900
N -10.762100 -18.875300 -22.517200
C -10.642500 -21.306300 -23.708800
H -10.613400 -22.137200 -24.126700
C -10.365700 -18.995600 -23.788700
C -10.296400 -20.194100 -24.440400
H -10.125100 -18.225700 -24.251700
H -10.030700 -20.254700 -25.329500
39
Fragment
H -12.019000 -14.792000 -29.044200
H -11.956300 -15.558300 -26.618100
C -11.928100 -15.661000 -28.724000
H -11.870100 -16.826800 -30.388700
N -11.856900 -16.044000 -27.442900
C -11.840500 -16.792900 -29.459500
C -11.725600 -17.367500 -27.446300
N -11.702500 -17.868000 -28.651900
H -11.657800 -17.880600 -26.674100
H -14.402000 -14.802400 -12.283400
H -14.059400 -12.587500 -12.766400
C -14.030100 -14.569800 -13.103200
C -13.829800 -13.253600 -13.373800
N -13.719000 -15.545900 -13.959700
C -13.273800 -12.961800 -14.584800
C -13.194400 -15.139000 -15.106200
H -13.121300 -12.069300 -14.799000
N -12.939600 -13.893800 -15.475200
N -12.904200 -16.238200 -15.988200
N -12.536500 -15.900400 -17.107800
N -12.438500 -18.249500 -17.575900
H -12.281000 -20.073500 -18.226500
C -12.273200 -16.996900 -17.991600
C -12.170300 -19.183900 -18.475700
N -11.879300 -16.610200 -19.192900
C -11.732300 -18.916500 -19.771700
H -11.655600 -20.806400 -20.193900
C -11.612400 -17.565400 -20.076800
N -11.488600 -19.995100 -20.596100
H -11.334800 -17.321900 -20.930500
C -11.066200 -20.018000 -21.904300
N -11.015600 -21.251500 -22.436900
N -10.762100 -18.875300 -22.517200
C -10.642500 -21.306300 -23.708800
H -10.613400 -22.137200 -24.126700
C -10.365700 -18.995600 -23.788700
C -10.296400 -20.194100 -24.440400
H -10.125100 -18.225700 -24.251700
H -10.030700 -20.254700 -25.329500
