9
Fragment
H -12.019000 -14.792000 -29.044200
H -11.956300 -15.558300 -26.618100
C -11.928100 -15.661000 -28.724000
H -11.870100 -16.826800 -30.388700
N -11.856900 -16.044000 -27.442900
C -11.840500 -16.792900 -29.459500
C -11.725600 -17.367500 -27.446300
N -11.702500 -17.868000 -28.651900
H -11.657800 -17.880600 -26.674100
30
Fragment
H -13.751700 -14.802400 -30.931400
H -13.409100 -12.587500 -31.414400
C -13.379900 -14.569800 -31.751100
C -13.179500 -13.253600 -32.021700
N -13.068700 -15.545900 -32.607600
C -12.623500 -12.961800 -33.232700
C -12.544100 -15.139000 -33.754100
H -12.471000 -12.069300 -33.447000
N -12.289300 -13.893800 -34.123200
N -12.253900 -16.238200 -34.636200
N -11.886200 -15.900400 -35.755800
N -11.788300 -18.249500 -36.223900
H -11.630800 -20.073500 -36.874500
C -11.622900 -16.996900 -36.639500
C -11.520100 -19.183900 -37.123600
N -11.229100 -16.610200 -37.840800
C -11.082100 -18.916500 -38.419700
H -11.005400 -20.806400 -38.841900
C -10.962100 -17.565400 -38.724700
N -10.838400 -19.995100 -39.244100
H -10.684600 -17.321900 -39.578400
C -10.416000 -20.018000 -40.552200
N -10.365300 -21.251500 -41.084800
N -10.111900 -18.875300 -41.165200
C -9.992300 -21.306300 -42.356800
H -9.963200 -22.137200 -42.774700
C -9.715500 -18.995600 -42.436600
C -9.646200 -20.194100 -43.088400
H -9.474900 -18.225700 -42.899600
H -9.380500 -20.254700 -43.977500
39
Fragment
H -12.019000 -14.792000 -29.044200
H -11.956300 -15.558300 -26.618100
C -11.928100 -15.661000 -28.724000
H -11.870100 -16.826800 -30.388700
N -11.856900 -16.044000 -27.442900
C -11.840500 -16.792900 -29.459500
C -11.725600 -17.367500 -27.446300
N -11.702500 -17.868000 -28.651900
H -11.657800 -17.880600 -26.674100
H -13.751700 -14.802400 -30.931400
H -13.409100 -12.587500 -31.414400
C -13.379900 -14.569800 -31.751100
C -13.179500 -13.253600 -32.021700
N -13.068700 -15.545900 -32.607600
C -12.623500 -12.961800 -33.232700
C -12.544100 -15.139000 -33.754100
H -12.471000 -12.069300 -33.447000
N -12.289300 -13.893800 -34.123200
N -12.253900 -16.238200 -34.636200
N -11.886200 -15.900400 -35.755800
N -11.788300 -18.249500 -36.223900
H -11.630800 -20.073500 -36.874500
C -11.622900 -16.996900 -36.639500
C -11.520100 -19.183900 -37.123600
N -11.229100 -16.610200 -37.840800
C -11.082100 -18.916500 -38.419700
H -11.005400 -20.806400 -38.841900
C -10.962100 -17.565400 -38.724700
N -10.838400 -19.995100 -39.244100
H -10.684600 -17.321900 -39.578400
C -10.416000 -20.018000 -40.552200
N -10.365300 -21.251500 -41.084800
N -10.111900 -18.875300 -41.165200
C -9.992300 -21.306300 -42.356800
H -9.963200 -22.137200 -42.774700
C -9.715500 -18.995600 -42.436600
C -9.646200 -20.194100 -43.088400
H -9.474900 -18.225700 -42.899600
H -9.380500 -20.254700 -43.977500
