6
Fragment
O -8.452700 -18.543400 -10.114800
H -8.309200 -17.779800 -9.854900
H -7.483200 -19.687300 -8.944000
C -7.386800 -19.326500 -9.828000
H -7.337000 -20.044100 -10.464000
H -6.583400 -18.802500 -9.874600
6
Fragment
H -9.546800 -18.934900 -6.272100
H -9.324800 -20.248900 -5.445700
H -9.075000 -20.244700 -6.993400
C -9.011000 -19.726400 -6.186000
O -7.751100 -19.386400 -5.982900
H -7.290100 -20.062200 -5.931600
12
Fragment
O -8.452700 -18.543400 -10.114800
H -8.309200 -17.779800 -9.854900
H -7.483200 -19.687300 -8.944000
C -7.386800 -19.326500 -9.828000
H -7.337000 -20.044100 -10.464000
H -6.583400 -18.802500 -9.874600
H -9.546800 -18.934900 -6.272100
H -9.324800 -20.248900 -5.445700
H -9.075000 -20.244700 -6.993400
C -9.011000 -19.726400 -6.186000
O -7.751100 -19.386400 -5.982900
H -7.290100 -20.062200 -5.931600
