6
Fragment
O -8.452700 -18.543400 -10.114800
H -8.309200 -17.779800 -9.854900
H -7.483200 -19.687300 -8.944000
C -7.386800 -19.326500 -9.828000
H -7.337000 -20.044100 -10.464000
H -6.583400 -18.802500 -9.874600
31
Fragment
Br -17.998100 -17.453200 -15.108600
C -16.370200 -16.582900 -14.802900
H -16.194800 -16.234500 -12.775600
C -15.817400 -16.162000 -13.623300
H -15.684900 -16.522900 -16.641300
N -15.537400 -16.329300 -15.816500
C -14.559600 -15.594900 -13.944100
C -14.416600 -15.714800 -15.336100
H -14.235100 -16.223400 -11.365400
H -14.040200 -14.235000 -12.537800
C -13.599100 -15.016700 -12.928100
C -13.381300 -16.006000 -11.795200
C -13.345800 -15.411000 -16.292900
O -13.333300 -16.003200 -17.387100
H -13.229800 -13.148100 -14.724600
H -12.968000 -17.764500 -12.814300
N -12.699600 -17.223800 -12.201300
O -12.518000 -14.427300 -10.131400
N -12.445200 -14.481600 -15.991900
C -12.413900 -13.669300 -14.779900
C -12.369200 -15.521100 -10.750000
C -12.275600 -14.527600 -13.511900
H -11.820700 -14.345100 -16.567000
H -11.812600 -14.009200 -12.835700
H -11.724300 -15.298100 -13.718100
H -11.668300 -13.052000 -14.829700
C -11.595200 -17.370100 -11.476000
N -11.353600 -16.362700 -10.603000
H -10.998000 -19.032500 -12.193400
N -10.802900 -18.422100 -11.619800
H -10.093500 -18.496000 -11.138700
37
Fragment
O -8.452700 -18.543400 -10.114800
H -8.309200 -17.779800 -9.854900
H -7.483200 -19.687300 -8.944000
C -7.386800 -19.326500 -9.828000
H -7.337000 -20.044100 -10.464000
H -6.583400 -18.802500 -9.874600
Br -17.998100 -17.453200 -15.108600
C -16.370200 -16.582900 -14.802900
H -16.194800 -16.234500 -12.775600
C -15.817400 -16.162000 -13.623300
H -15.684900 -16.522900 -16.641300
N -15.537400 -16.329300 -15.816500
C -14.559600 -15.594900 -13.944100
C -14.416600 -15.714800 -15.336100
H -14.235100 -16.223400 -11.365400
H -14.040200 -14.235000 -12.537800
C -13.599100 -15.016700 -12.928100
C -13.381300 -16.006000 -11.795200
C -13.345800 -15.411000 -16.292900
O -13.333300 -16.003200 -17.387100
H -13.229800 -13.148100 -14.724600
H -12.968000 -17.764500 -12.814300
N -12.699600 -17.223800 -12.201300
O -12.518000 -14.427300 -10.131400
N -12.445200 -14.481600 -15.991900
C -12.413900 -13.669300 -14.779900
C -12.369200 -15.521100 -10.750000
C -12.275600 -14.527600 -13.511900
H -11.820700 -14.345100 -16.567000
H -11.812600 -14.009200 -12.835700
H -11.724300 -15.298100 -13.718100
H -11.668300 -13.052000 -14.829700
C -11.595200 -17.370100 -11.476000
N -11.353600 -16.362700 -10.603000
H -10.998000 -19.032500 -12.193400
N -10.802900 -18.422100 -11.619800
H -10.093500 -18.496000 -11.138700
