6
Fragment
O -8.452700 -18.543400 -10.114800
H -8.309200 -17.779800 -9.854900
H -7.483200 -19.687300 -8.944000
C -7.386800 -19.326500 -9.828000
H -7.337000 -20.044100 -10.464000
H -6.583400 -18.802500 -9.874600
31
Fragment
Br -12.580300 -17.453200 -7.208300
C -10.952500 -16.582900 -6.902500
H -10.777100 -16.234500 -4.875300
C -10.399700 -16.162000 -5.723000
H -10.267200 -16.522900 -8.740900
N -10.119600 -16.329300 -7.916100
C -9.141800 -15.594900 -6.043800
C -8.998900 -15.714800 -7.435800
H -8.817300 -16.223400 -3.465100
H -8.622500 -14.235000 -4.637500
C -8.181300 -15.016700 -5.027800
C -7.963600 -16.006000 -3.894900
C -7.928000 -15.411000 -8.392500
O -7.915600 -16.003200 -9.486700
H -7.812100 -13.148100 -6.824300
H -7.550300 -17.764500 -4.914000
N -7.281800 -17.223800 -4.300900
O -7.100300 -14.427300 -2.231100
N -7.027400 -14.481600 -8.091500
C -6.996200 -13.669300 -6.879600
C -6.951400 -15.521100 -2.849700
C -6.857800 -14.527600 -5.611600
H -6.403000 -14.345100 -8.666700
H -6.394800 -14.009200 -4.935300
H -6.306600 -15.298100 -5.817800
H -6.250500 -13.052000 -6.929400
C -6.177400 -17.370100 -3.575700
N -5.935900 -16.362700 -2.702700
H -5.580300 -19.032500 -4.293000
N -5.385200 -18.422100 -3.719500
H -4.675800 -18.496000 -3.238300
37
Fragment
O -8.452700 -18.543400 -10.114800
H -8.309200 -17.779800 -9.854900
H -7.483200 -19.687300 -8.944000
C -7.386800 -19.326500 -9.828000
H -7.337000 -20.044100 -10.464000
H -6.583400 -18.802500 -9.874600
Br -12.580300 -17.453200 -7.208300
C -10.952500 -16.582900 -6.902500
H -10.777100 -16.234500 -4.875300
C -10.399700 -16.162000 -5.723000
H -10.267200 -16.522900 -8.740900
N -10.119600 -16.329300 -7.916100
C -9.141800 -15.594900 -6.043800
C -8.998900 -15.714800 -7.435800
H -8.817300 -16.223400 -3.465100
H -8.622500 -14.235000 -4.637500
C -8.181300 -15.016700 -5.027800
C -7.963600 -16.006000 -3.894900
C -7.928000 -15.411000 -8.392500
O -7.915600 -16.003200 -9.486700
H -7.812100 -13.148100 -6.824300
H -7.550300 -17.764500 -4.914000
N -7.281800 -17.223800 -4.300900
O -7.100300 -14.427300 -2.231100
N -7.027400 -14.481600 -8.091500
C -6.996200 -13.669300 -6.879600
C -6.951400 -15.521100 -2.849700
C -6.857800 -14.527600 -5.611600
H -6.403000 -14.345100 -8.666700
H -6.394800 -14.009200 -4.935300
H -6.306600 -15.298100 -5.817800
H -6.250500 -13.052000 -6.929400
C -6.177400 -17.370100 -3.575700
N -5.935900 -16.362700 -2.702700
H -5.580300 -19.032500 -4.293000
N -5.385200 -18.422100 -3.719500
H -4.675800 -18.496000 -3.238300
