6
Fragment
O -8.452700 -18.543400 -10.114800
H -8.309200 -17.779800 -9.854900
H -7.483200 -19.687300 -8.944000
C -7.386800 -19.326500 -9.828000
H -7.337000 -20.044100 -10.464000
H -6.583400 -18.802500 -9.874600
31
Fragment
H -6.159700 -25.463000 -12.562300
N -5.450300 -25.389100 -12.081200
H -5.255200 -25.999500 -11.507600
N -4.899600 -23.329700 -13.098000
C -4.658000 -24.337100 -12.225000
H -4.584900 -20.019000 -8.871300
H -4.528900 -22.265100 -9.982900
H -4.440600 -20.976200 -10.865300
H -4.432500 -21.312100 -7.134000
C -3.977600 -21.494600 -10.189100
C -3.884000 -22.488100 -12.951000
C -3.839300 -20.636300 -8.921100
N -3.808000 -21.448600 -7.709100
O -3.735200 -21.394300 -13.569600
N -3.553700 -24.190800 -11.499700
H -3.285200 -24.731500 -10.886700
H -3.023400 -20.115100 -8.976400
O -2.919900 -22.970200 -6.313900
C -2.907500 -22.378000 -7.408100
C -2.871900 -22.973000 -11.905800
C -2.654200 -21.983700 -10.772900
H -2.213000 -21.202000 -11.163200
H -2.018100 -23.190400 -12.335600
C -1.836600 -22.681800 -8.364900
C -1.693700 -22.561900 -9.756900
N -0.715900 -23.296300 -7.884500
H -0.568300 -23.489900 -7.059700
C -0.435800 -23.129000 -10.077700
H -0.058400 -23.201500 -10.925400
C 0.117000 -23.549900 -8.898100
Br 1.744800 -24.420200 -8.592400
37
Fragment
O -8.452700 -18.543400 -10.114800
H -8.309200 -17.779800 -9.854900
H -7.483200 -19.687300 -8.944000
C -7.386800 -19.326500 -9.828000
H -7.337000 -20.044100 -10.464000
H -6.583400 -18.802500 -9.874600
H -6.159700 -25.463000 -12.562300
N -5.450300 -25.389100 -12.081200
H -5.255200 -25.999500 -11.507600
N -4.899600 -23.329700 -13.098000
C -4.658000 -24.337100 -12.225000
H -4.584900 -20.019000 -8.871300
H -4.528900 -22.265100 -9.982900
H -4.440600 -20.976200 -10.865300
H -4.432500 -21.312100 -7.134000
C -3.977600 -21.494600 -10.189100
C -3.884000 -22.488100 -12.951000
C -3.839300 -20.636300 -8.921100
N -3.808000 -21.448600 -7.709100
O -3.735200 -21.394300 -13.569600
N -3.553700 -24.190800 -11.499700
H -3.285200 -24.731500 -10.886700
H -3.023400 -20.115100 -8.976400
O -2.919900 -22.970200 -6.313900
C -2.907500 -22.378000 -7.408100
C -2.871900 -22.973000 -11.905800
C -2.654200 -21.983700 -10.772900
H -2.213000 -21.202000 -11.163200
H -2.018100 -23.190400 -12.335600
C -1.836600 -22.681800 -8.364900
C -1.693700 -22.561900 -9.756900
N -0.715900 -23.296300 -7.884500
H -0.568300 -23.489900 -7.059700
C -0.435800 -23.129000 -10.077700
H -0.058400 -23.201500 -10.925400
C 0.117000 -23.549900 -8.898100
Br 1.744800 -24.420200 -8.592400
