32
Fragment
H -20.073800 -14.896400 -37.690500
O -19.954900 -15.541800 -37.167400
H -19.570100 -22.621200 -31.773200
O -18.989900 -22.966900 -31.272700
H -18.861600 -17.317700 -35.758700
H -18.700100 -17.908900 -33.700500
C -18.652100 -15.567200 -36.764300
N -18.427700 -18.456300 -33.422000
H -18.365900 -21.018200 -32.890300
H -18.349900 -17.839800 -33.172400
C -18.243400 -16.633200 -35.987500
H -18.032800 -13.850000 -37.690500
C -17.825600 -22.251300 -31.362000
C -17.754600 -14.566800 -37.132600
C -17.661900 -21.234900 -32.290500
N -17.105600 -18.628000 -33.882800
C -16.924700 -16.705800 -35.539800
H -16.908700 -23.292000 -29.854900
C -16.799900 -22.584400 -30.478700
C -16.458800 -20.531900 -32.339200
C -16.447300 -14.634800 -36.671500
C -16.414100 -17.831700 -34.754200
C -16.193200 -19.507400 -33.349300
C -16.024900 -15.675500 -35.875800
H -15.832600 -13.950300 -36.909600
C -15.614000 -21.860600 -30.527200
C -15.435400 -20.838400 -31.440300
N -15.160700 -18.231600 -34.771100
H -15.130900 -15.699700 -35.555600
N -15.009600 -19.293000 -33.892800
H -14.912300 -22.071500 -29.922600
H -14.622700 -20.347500 -31.457300
32
Fragment
H -14.350200 -25.439000 -30.012900
O -14.231300 -24.793600 -30.536000
H -13.846500 -17.714200 -35.930200
O -13.266300 -17.368500 -36.430700
H -13.138000 -23.017700 -31.944700
H -12.976500 -22.426500 -34.002900
C -12.928500 -24.768200 -30.939100
N -12.704100 -21.879100 -34.281400
H -12.642300 -19.317200 -34.813100
H -12.626300 -22.495600 -34.531000
C -12.519800 -23.702200 -31.715900
H -12.309200 -26.485400 -30.012900
C -12.102000 -18.084100 -36.341400
C -12.031000 -25.768600 -30.570800
C -11.938300 -19.100500 -35.412900
N -11.382000 -21.707400 -33.820600
C -11.201100 -23.629600 -32.163600
H -11.185100 -17.043400 -37.848500
C -11.076300 -17.751000 -37.224700
C -10.735200 -19.803500 -35.364200
C -10.723700 -25.700600 -31.031900
C -10.690500 -22.503700 -32.949200
C -10.469600 -20.828000 -34.354100
C -10.301300 -24.659900 -31.827600
H -10.109000 -26.385100 -30.793800
C -9.890400 -18.474800 -37.176200
C -9.711800 -19.497000 -36.263100
N -9.437100 -22.103800 -32.932300
H -9.407300 -24.635700 -32.147800
N -9.286000 -21.042400 -33.810600
H -9.188700 -18.263900 -37.780800
H -8.899100 -19.987900 -36.246100
64
Fragment
H -20.073800 -14.896400 -37.690500
O -19.954900 -15.541800 -37.167400
H -19.570100 -22.621200 -31.773200
O -18.989900 -22.966900 -31.272700
H -18.861600 -17.317700 -35.758700
H -18.700100 -17.908900 -33.700500
C -18.652100 -15.567200 -36.764300
N -18.427700 -18.456300 -33.422000
H -18.365900 -21.018200 -32.890300
H -18.349900 -17.839800 -33.172400
C -18.243400 -16.633200 -35.987500
H -18.032800 -13.850000 -37.690500
C -17.825600 -22.251300 -31.362000
C -17.754600 -14.566800 -37.132600
C -17.661900 -21.234900 -32.290500
N -17.105600 -18.628000 -33.882800
C -16.924700 -16.705800 -35.539800
H -16.908700 -23.292000 -29.854900
C -16.799900 -22.584400 -30.478700
C -16.458800 -20.531900 -32.339200
C -16.447300 -14.634800 -36.671500
C -16.414100 -17.831700 -34.754200
C -16.193200 -19.507400 -33.349300
C -16.024900 -15.675500 -35.875800
H -15.832600 -13.950300 -36.909600
C -15.614000 -21.860600 -30.527200
C -15.435400 -20.838400 -31.440300
N -15.160700 -18.231600 -34.771100
H -15.130900 -15.699700 -35.555600
N -15.009600 -19.293000 -33.892800
H -14.912300 -22.071500 -29.922600
H -14.622700 -20.347500 -31.457300
H -14.350200 -25.439000 -30.012900
O -14.231300 -24.793600 -30.536000
H -13.846500 -17.714200 -35.930200
O -13.266300 -17.368500 -36.430700
H -13.138000 -23.017700 -31.944700
H -12.976500 -22.426500 -34.002900
C -12.928500 -24.768200 -30.939100
N -12.704100 -21.879100 -34.281400
H -12.642300 -19.317200 -34.813100
H -12.626300 -22.495600 -34.531000
C -12.519800 -23.702200 -31.715900
H -12.309200 -26.485400 -30.012900
C -12.102000 -18.084100 -36.341400
C -12.031000 -25.768600 -30.570800
C -11.938300 -19.100500 -35.412900
N -11.382000 -21.707400 -33.820600
C -11.201100 -23.629600 -32.163600
H -11.185100 -17.043400 -37.848500
C -11.076300 -17.751000 -37.224700
C -10.735200 -19.803500 -35.364200
C -10.723700 -25.700600 -31.031900
C -10.690500 -22.503700 -32.949200
C -10.469600 -20.828000 -34.354100
C -10.301300 -24.659900 -31.827600
H -10.109000 -26.385100 -30.793800
C -9.890400 -18.474800 -37.176200
C -9.711800 -19.497000 -36.263100
N -9.437100 -22.103800 -32.932300
H -9.407300 -24.635700 -32.147800
N -9.286000 -21.042400 -33.810600
H -9.188700 -18.263900 -37.780800
H -8.899100 -19.987900 -36.246100
