32
Fragment
H -20.073800 -14.896400 -37.690500
O -19.954900 -15.541800 -37.167400
H -19.570100 -22.621200 -31.773200
O -18.989900 -22.966900 -31.272700
H -18.861600 -17.317700 -35.758700
H -18.700100 -17.908900 -33.700500
C -18.652100 -15.567200 -36.764300
N -18.427700 -18.456300 -33.422000
H -18.365900 -21.018200 -32.890300
H -18.349900 -17.839800 -33.172400
C -18.243400 -16.633200 -35.987500
H -18.032800 -13.850000 -37.690500
C -17.825600 -22.251300 -31.362000
C -17.754600 -14.566800 -37.132600
C -17.661900 -21.234900 -32.290500
N -17.105600 -18.628000 -33.882800
C -16.924700 -16.705800 -35.539800
H -16.908700 -23.292000 -29.854900
C -16.799900 -22.584400 -30.478700
C -16.458800 -20.531900 -32.339200
C -16.447300 -14.634800 -36.671500
C -16.414100 -17.831700 -34.754200
C -16.193200 -19.507400 -33.349300
C -16.024900 -15.675500 -35.875800
H -15.832600 -13.950300 -36.909600
C -15.614000 -21.860600 -30.527200
C -15.435400 -20.838400 -31.440300
N -15.160700 -18.231600 -34.771100
H -15.130900 -15.699700 -35.555600
N -15.009600 -19.293000 -33.892800
H -14.912300 -22.071500 -29.922600
H -14.622700 -20.347500 -31.457300
32
Fragment
H -13.479100 -14.089700 -36.386100
H -13.108200 -12.387600 -37.941000
N -13.102500 -15.189200 -33.860500
N -12.918200 -16.273600 -33.016900
H -12.807100 -18.787100 -32.152300
C -12.660600 -13.609200 -36.381100
C -12.429400 -12.606500 -37.313100
O -12.261600 -20.737900 -30.647700
C -11.940600 -14.946000 -34.431200
C -11.899400 -18.766300 -31.873000
H -11.861600 -21.271700 -30.137000
C -11.678400 -13.903000 -35.437300
C -11.654400 -16.651600 -33.090900
C -11.406000 -19.765500 -31.043600
C -11.225100 -11.922000 -37.342500
H -11.076300 -11.242100 -37.990600
C -11.067200 -17.736100 -32.293200
N -11.001900 -15.840300 -33.963900
C -10.475300 -13.197700 -35.456700
C -10.234900 -12.237800 -36.411800
C -10.072400 -19.743600 -30.638700
H -9.812500 -13.383300 -34.801800
H -9.733600 -20.421200 -30.064800
C -9.730100 -17.709500 -31.888100
N -9.668300 -16.045400 -34.401200
H -9.638500 -15.964800 -35.214800
C -9.244800 -18.717900 -31.084000
H -9.161200 -17.000800 -32.163600
H -9.140600 -15.319400 -34.131500
O -9.052100 -11.570300 -36.488100
H -8.528200 -11.860900 -35.898600
H -8.329000 -18.713300 -30.829900
64
Fragment
H -20.073800 -14.896400 -37.690500
O -19.954900 -15.541800 -37.167400
H -19.570100 -22.621200 -31.773200
O -18.989900 -22.966900 -31.272700
H -18.861600 -17.317700 -35.758700
H -18.700100 -17.908900 -33.700500
C -18.652100 -15.567200 -36.764300
N -18.427700 -18.456300 -33.422000
H -18.365900 -21.018200 -32.890300
H -18.349900 -17.839800 -33.172400
C -18.243400 -16.633200 -35.987500
H -18.032800 -13.850000 -37.690500
C -17.825600 -22.251300 -31.362000
C -17.754600 -14.566800 -37.132600
C -17.661900 -21.234900 -32.290500
N -17.105600 -18.628000 -33.882800
C -16.924700 -16.705800 -35.539800
H -16.908700 -23.292000 -29.854900
C -16.799900 -22.584400 -30.478700
C -16.458800 -20.531900 -32.339200
C -16.447300 -14.634800 -36.671500
C -16.414100 -17.831700 -34.754200
C -16.193200 -19.507400 -33.349300
C -16.024900 -15.675500 -35.875800
H -15.832600 -13.950300 -36.909600
C -15.614000 -21.860600 -30.527200
C -15.435400 -20.838400 -31.440300
N -15.160700 -18.231600 -34.771100
H -15.130900 -15.699700 -35.555600
N -15.009600 -19.293000 -33.892800
H -14.912300 -22.071500 -29.922600
H -14.622700 -20.347500 -31.457300
H -13.479100 -14.089700 -36.386100
H -13.108200 -12.387600 -37.941000
N -13.102500 -15.189200 -33.860500
N -12.918200 -16.273600 -33.016900
H -12.807100 -18.787100 -32.152300
C -12.660600 -13.609200 -36.381100
C -12.429400 -12.606500 -37.313100
O -12.261600 -20.737900 -30.647700
C -11.940600 -14.946000 -34.431200
C -11.899400 -18.766300 -31.873000
H -11.861600 -21.271700 -30.137000
C -11.678400 -13.903000 -35.437300
C -11.654400 -16.651600 -33.090900
C -11.406000 -19.765500 -31.043600
C -11.225100 -11.922000 -37.342500
H -11.076300 -11.242100 -37.990600
C -11.067200 -17.736100 -32.293200
N -11.001900 -15.840300 -33.963900
C -10.475300 -13.197700 -35.456700
C -10.234900 -12.237800 -36.411800
C -10.072400 -19.743600 -30.638700
H -9.812500 -13.383300 -34.801800
H -9.733600 -20.421200 -30.064800
C -9.730100 -17.709500 -31.888100
N -9.668300 -16.045400 -34.401200
H -9.638500 -15.964800 -35.214800
C -9.244800 -18.717900 -31.084000
H -9.161200 -17.000800 -32.163600
H -9.140600 -15.319400 -34.131500
O -9.052100 -11.570300 -36.488100
H -8.528200 -11.860900 -35.898600
H -8.329000 -18.713300 -30.829900
