51
Fragment
H -12.525800 -22.489000 -20.970800
N -11.726100 -22.271900 -21.270500
H -11.381400 -20.513600 -20.268500
C -11.072400 -21.169500 -20.883200
N -11.040700 -23.025300 -22.166900
C -9.887900 -22.341700 -22.333500
O -9.860000 -18.614800 -20.440500
C -9.848800 -21.166500 -21.557600
H -9.719900 -24.426500 -24.097300
N -9.004900 -23.917800 -24.031600
C -8.851800 -22.829100 -23.233800
C -8.819600 -19.054400 -20.976100
N -8.770400 -20.299500 -21.519000
H -8.011600 -25.657900 -26.036200
H -8.008800 -20.569800 -21.865800
C -7.795400 -24.069700 -24.729600
H -7.735900 -17.447900 -20.927000
N -7.682200 -18.316500 -21.060500
N -7.658000 -22.248500 -23.351800
C -7.431800 -24.967100 -25.738400
C -6.992900 -23.023500 -24.307400
H -6.652500 -18.850900 -23.507000
H -6.511900 -25.780900 -28.055700
C -6.390200 -18.884300 -21.357900
C -6.145900 -24.778800 -26.286600
H -6.042500 -19.555500 -20.702800
C -5.999500 -19.106000 -22.808100
H -5.939600 -27.958300 -28.719500
C -5.732900 -25.661000 -27.456700
C -5.692400 -22.873200 -24.860900
H -5.630100 -17.071400 -22.210900
H -5.444900 -19.897100 -23.021800
C -5.368200 -18.002200 -22.000700
C -5.312800 -23.761400 -25.848800
N -5.233600 -26.985000 -27.066400
H -5.166300 -29.636100 -27.295500
H -5.106700 -22.188400 -24.561400
C -5.065500 -27.844400 -28.269400
H -5.027400 -25.194800 -27.971600
C -4.523600 -29.177600 -27.892800
H -4.452600 -23.671900 -26.241100
H -4.447600 -27.404100 -28.905100
H -4.423400 -18.116000 -21.725700
H -4.416000 -29.730300 -28.707200
H -4.018300 -26.344200 -25.575500
H -3.991900 -28.691700 -25.419600
C -3.925500 -26.878700 -26.404000
C -3.382400 -28.246800 -26.060700
H -3.289600 -26.412600 -27.001300
O -3.250800 -29.056000 -27.224600
H -2.498200 -28.151100 -25.626300
3
Fragment
H -0.032500 -28.958900 -26.566900
O 0.328700 -28.461500 -25.838600
H 1.038300 -27.976500 -26.242900
54
Fragment
H -12.525800 -22.489000 -20.970800
N -11.726100 -22.271900 -21.270500
H -11.381400 -20.513600 -20.268500
C -11.072400 -21.169500 -20.883200
N -11.040700 -23.025300 -22.166900
C -9.887900 -22.341700 -22.333500
O -9.860000 -18.614800 -20.440500
C -9.848800 -21.166500 -21.557600
H -9.719900 -24.426500 -24.097300
N -9.004900 -23.917800 -24.031600
C -8.851800 -22.829100 -23.233800
C -8.819600 -19.054400 -20.976100
N -8.770400 -20.299500 -21.519000
H -8.011600 -25.657900 -26.036200
H -8.008800 -20.569800 -21.865800
C -7.795400 -24.069700 -24.729600
H -7.735900 -17.447900 -20.927000
N -7.682200 -18.316500 -21.060500
N -7.658000 -22.248500 -23.351800
C -7.431800 -24.967100 -25.738400
C -6.992900 -23.023500 -24.307400
H -6.652500 -18.850900 -23.507000
H -6.511900 -25.780900 -28.055700
C -6.390200 -18.884300 -21.357900
C -6.145900 -24.778800 -26.286600
H -6.042500 -19.555500 -20.702800
C -5.999500 -19.106000 -22.808100
H -5.939600 -27.958300 -28.719500
C -5.732900 -25.661000 -27.456700
C -5.692400 -22.873200 -24.860900
H -5.630100 -17.071400 -22.210900
H -5.444900 -19.897100 -23.021800
C -5.368200 -18.002200 -22.000700
C -5.312800 -23.761400 -25.848800
N -5.233600 -26.985000 -27.066400
H -5.166300 -29.636100 -27.295500
H -5.106700 -22.188400 -24.561400
C -5.065500 -27.844400 -28.269400
H -5.027400 -25.194800 -27.971600
C -4.523600 -29.177600 -27.892800
H -4.452600 -23.671900 -26.241100
H -4.447600 -27.404100 -28.905100
H -4.423400 -18.116000 -21.725700
H -4.416000 -29.730300 -28.707200
H -4.018300 -26.344200 -25.575500
H -3.991900 -28.691700 -25.419600
C -3.925500 -26.878700 -26.404000
C -3.382400 -28.246800 -26.060700
H -3.289600 -26.412600 -27.001300
O -3.250800 -29.056000 -27.224600
H -2.498200 -28.151100 -25.626300
H -0.032500 -28.958900 -26.566900
O 0.328700 -28.461500 -25.838600
H 1.038300 -27.976500 -26.242900
