26
Fragment
H -8.562900 -19.154100 -30.009200
O -7.973100 -18.726600 -27.601700
C -7.899800 -18.506600 -29.931600
H -7.716600 -18.150600 -31.885600
H -7.584700 -18.414100 -26.906900
C -7.418400 -18.144500 -28.676800
C -7.393400 -17.908200 -31.047400
O -6.554300 -16.626300 -33.218800
C -6.407100 -17.200400 -28.577500
C -6.398800 -16.939100 -30.946800
H -6.075900 -16.981700 -27.737000
N -5.947200 -16.356100 -32.198300
C -5.874100 -16.573300 -29.694100
O -4.985500 -15.609500 -32.229800
C -4.808800 -15.582100 -29.488900
N -4.500900 -15.204200 -28.318100
H -4.500500 -14.009800 -25.814300
H -4.357600 -15.230300 -30.221500
H -3.615200 -15.305800 -25.864500
C -3.588600 -14.336800 -25.864500
N -3.466800 -14.296200 -28.281400
H -3.087300 -14.012400 -29.043900
C -2.946100 -13.849900 -27.136300
C -2.844600 -13.872200 -24.713500
N -2.260100 -13.494800 -23.815500
O -2.007500 -13.059700 -27.132600
3
Fragment
H -5.563300 -11.768600 -23.055600
O -4.855800 -11.380700 -22.829600
H -4.455700 -11.106700 -23.515100
29
Fragment
H -8.562900 -19.154100 -30.009200
O -7.973100 -18.726600 -27.601700
C -7.899800 -18.506600 -29.931600
H -7.716600 -18.150600 -31.885600
H -7.584700 -18.414100 -26.906900
C -7.418400 -18.144500 -28.676800
C -7.393400 -17.908200 -31.047400
O -6.554300 -16.626300 -33.218800
C -6.407100 -17.200400 -28.577500
C -6.398800 -16.939100 -30.946800
H -6.075900 -16.981700 -27.737000
N -5.947200 -16.356100 -32.198300
C -5.874100 -16.573300 -29.694100
O -4.985500 -15.609500 -32.229800
C -4.808800 -15.582100 -29.488900
N -4.500900 -15.204200 -28.318100
H -4.500500 -14.009800 -25.814300
H -4.357600 -15.230300 -30.221500
H -3.615200 -15.305800 -25.864500
C -3.588600 -14.336800 -25.864500
N -3.466800 -14.296200 -28.281400
H -3.087300 -14.012400 -29.043900
C -2.946100 -13.849900 -27.136300
C -2.844600 -13.872200 -24.713500
N -2.260100 -13.494800 -23.815500
O -2.007500 -13.059700 -27.132600
H -5.563300 -11.768600 -23.055600
O -4.855800 -11.380700 -22.829600
H -4.455700 -11.106700 -23.515100
