39
Fragment
H -20.834000 -19.399800 -19.517000
H -20.823400 -20.861400 -20.396000
H -20.722900 -19.350300 -21.175100
C -20.471000 -19.880700 -20.344100
O -19.278300 -15.796800 -17.110900
C -18.989200 -20.080200 -20.259200
N -18.924900 -18.089000 -18.842800
O -18.364900 -20.956500 -20.757600
N -18.277100 -19.125800 -19.450100
C -18.197100 -16.301900 -17.303600
C -17.963000 -17.480700 -18.172600
C -16.941500 -19.178400 -19.153500
C -16.933900 -15.851100 -16.680400
N -16.810900 -14.784600 -15.893300
C -16.702200 -18.118800 -18.330400
H -16.636900 -12.678900 -14.642800
H -16.322400 -19.792700 -19.577000
C -15.684300 -16.465300 -16.841200
C -15.665900 -12.724600 -14.322100
H -15.609600 -10.982500 -13.164500
N -15.499200 -14.781000 -15.609600
C -15.486300 -17.675200 -17.651200
C -15.061400 -11.765900 -13.518100
C -14.898400 -13.785900 -14.774600
N -14.778900 -15.769200 -16.145000
N -14.433200 -18.401800 -17.808000
C -13.724200 -11.889500 -13.163500
C -13.562400 -13.919400 -14.441000
O -13.370600 -17.814300 -17.085900
H -13.298800 -11.181000 -12.645100
H -13.029900 -14.810200 -14.702700
C -12.975700 -12.965500 -13.621000
C -12.292600 -18.642400 -16.916100
O -12.242100 -19.746900 -17.315600
H -12.004600 -13.038200 -13.424200
H -11.548800 -17.013200 -15.791400
C -11.256100 -17.932200 -16.123000
H -10.885100 -18.503900 -15.431800
H -10.424700 -17.914200 -16.760300
14
Fragment
H -19.340300 -11.125900 -11.436500
H -19.216400 -11.961900 -9.299100
H -18.668600 -13.172900 -10.277900
C -18.441300 -12.261400 -9.991200
C -18.425700 -11.237400 -11.105900
O -18.026400 -9.954100 -10.596500
H -17.760400 -11.575100 -11.935900
H -17.404600 -10.737300 -8.040500
O -17.138500 -12.358300 -9.380000
C -16.739300 -11.074900 -8.870600
C -16.723700 -10.050900 -9.985200
H -16.496400 -9.139500 -9.698600
H -15.948600 -10.350500 -10.677400
H -15.824700 -11.186400 -8.539900
53
Fragment
H -20.834000 -19.399800 -19.517000
H -20.823400 -20.861400 -20.396000
H -20.722900 -19.350300 -21.175100
C -20.471000 -19.880700 -20.344100
O -19.278300 -15.796800 -17.110900
C -18.989200 -20.080200 -20.259200
N -18.924900 -18.089000 -18.842800
O -18.364900 -20.956500 -20.757600
N -18.277100 -19.125800 -19.450100
C -18.197100 -16.301900 -17.303600
C -17.963000 -17.480700 -18.172600
C -16.941500 -19.178400 -19.153500
C -16.933900 -15.851100 -16.680400
N -16.810900 -14.784600 -15.893300
C -16.702200 -18.118800 -18.330400
H -16.636900 -12.678900 -14.642800
H -16.322400 -19.792700 -19.577000
C -15.684300 -16.465300 -16.841200
C -15.665900 -12.724600 -14.322100
H -15.609600 -10.982500 -13.164500
N -15.499200 -14.781000 -15.609600
C -15.486300 -17.675200 -17.651200
C -15.061400 -11.765900 -13.518100
C -14.898400 -13.785900 -14.774600
N -14.778900 -15.769200 -16.145000
N -14.433200 -18.401800 -17.808000
C -13.724200 -11.889500 -13.163500
C -13.562400 -13.919400 -14.441000
O -13.370600 -17.814300 -17.085900
H -13.298800 -11.181000 -12.645100
H -13.029900 -14.810200 -14.702700
C -12.975700 -12.965500 -13.621000
C -12.292600 -18.642400 -16.916100
O -12.242100 -19.746900 -17.315600
H -12.004600 -13.038200 -13.424200
H -11.548800 -17.013200 -15.791400
C -11.256100 -17.932200 -16.123000
H -10.885100 -18.503900 -15.431800
H -10.424700 -17.914200 -16.760300
H -19.340300 -11.125900 -11.436500
H -19.216400 -11.961900 -9.299100
H -18.668600 -13.172900 -10.277900
C -18.441300 -12.261400 -9.991200
C -18.425700 -11.237400 -11.105900
O -18.026400 -9.954100 -10.596500
H -17.760400 -11.575100 -11.935900
H -17.404600 -10.737300 -8.040500
O -17.138500 -12.358300 -9.380000
C -16.739300 -11.074900 -8.870600
C -16.723700 -10.050900 -9.985200
H -16.496400 -9.139500 -9.698600
H -15.948600 -10.350500 -10.677400
H -15.824700 -11.186400 -8.539900
