20
Fragment
H -7.646800 -22.869200 -17.260700
C -6.805900 -23.102300 -16.885600
H -6.395000 -20.213700 -16.640800
N -6.352100 -24.358700 -16.697100
C -5.848300 -22.206900 -16.443800
C -5.697400 -20.792000 -16.355900
N -5.154100 -24.335800 -16.161400
N -4.841000 -23.017600 -16.007100
C -4.549400 -20.290000 -15.861500
H -4.436300 -19.348200 -15.815800
C -3.642300 -22.542500 -15.465000
C -3.496100 -21.143300 -15.403600
H -2.780500 -24.354200 -15.058800
C -2.660600 -23.412800 -15.005600
C -2.303500 -20.647500 -14.865100
H -2.168600 -19.708100 -14.816100
C -1.509300 -22.878000 -14.471300
C -1.323300 -21.497100 -14.406400
H -0.832300 -23.458400 -14.142100
H -0.519100 -21.142900 -14.045200
20
Fragment
H -7.781900 -13.551200 -17.392800
H -7.468700 -15.866700 -17.295900
C -6.977700 -13.905400 -17.031600
C -6.791700 -15.286300 -16.966700
H -6.132400 -12.116400 -16.621900
C -5.997500 -13.055800 -16.572900
C -5.640400 -15.821100 -16.432400
H -5.520500 -16.762500 -16.379200
C -4.804900 -13.551600 -16.034400
C -4.658700 -14.950800 -15.973000
H -3.864600 -11.756500 -15.622200
C -3.751600 -12.698300 -15.576500
N -3.460000 -15.425900 -15.430900
N -3.146800 -16.744100 -15.276600
C -2.603500 -13.200300 -15.082100
C -2.452600 -14.615200 -14.994200
N -1.948900 -16.767000 -14.740900
H -1.906000 -12.622000 -14.797200
C -1.495000 -15.510600 -14.552400
H -0.654200 -15.277500 -14.177300
40
Fragment
H -7.646800 -22.869200 -17.260700
C -6.805900 -23.102300 -16.885600
H -6.395000 -20.213700 -16.640800
N -6.352100 -24.358700 -16.697100
C -5.848300 -22.206900 -16.443800
C -5.697400 -20.792000 -16.355900
N -5.154100 -24.335800 -16.161400
N -4.841000 -23.017600 -16.007100
C -4.549400 -20.290000 -15.861500
H -4.436300 -19.348200 -15.815800
C -3.642300 -22.542500 -15.465000
C -3.496100 -21.143300 -15.403600
H -2.780500 -24.354200 -15.058800
C -2.660600 -23.412800 -15.005600
C -2.303500 -20.647500 -14.865100
H -2.168600 -19.708100 -14.816100
C -1.509300 -22.878000 -14.471300
C -1.323300 -21.497100 -14.406400
H -0.832300 -23.458400 -14.142100
H -0.519100 -21.142900 -14.045200
H -7.781900 -13.551200 -17.392800
H -7.468700 -15.866700 -17.295900
C -6.977700 -13.905400 -17.031600
C -6.791700 -15.286300 -16.966700
H -6.132400 -12.116400 -16.621900
C -5.997500 -13.055800 -16.572900
C -5.640400 -15.821100 -16.432400
H -5.520500 -16.762500 -16.379200
C -4.804900 -13.551600 -16.034400
C -4.658700 -14.950800 -15.973000
H -3.864600 -11.756500 -15.622200
C -3.751600 -12.698300 -15.576500
N -3.460000 -15.425900 -15.430900
N -3.146800 -16.744100 -15.276600
C -2.603500 -13.200300 -15.082100
C -2.452600 -14.615200 -14.994200
N -1.948900 -16.767000 -14.740900
H -1.906000 -12.622000 -14.797200
C -1.495000 -15.510600 -14.552400
H -0.654200 -15.277500 -14.177300
