20
Fragment
H -7.646800 -22.869200 -17.260700
C -6.805900 -23.102300 -16.885600
H -6.395000 -20.213700 -16.640800
N -6.352100 -24.358700 -16.697100
C -5.848300 -22.206900 -16.443800
C -5.697400 -20.792000 -16.355900
N -5.154100 -24.335800 -16.161400
N -4.841000 -23.017600 -16.007100
C -4.549400 -20.290000 -15.861500
H -4.436300 -19.348200 -15.815800
C -3.642300 -22.542500 -15.465000
C -3.496100 -21.143300 -15.403600
H -2.780500 -24.354200 -15.058800
C -2.660600 -23.412800 -15.005600
C -2.303500 -20.647500 -14.865100
H -2.168600 -19.708100 -14.816100
C -1.509300 -22.878000 -14.471300
C -1.323300 -21.497100 -14.406400
H -0.832300 -23.458400 -14.142100
H -0.519100 -21.142900 -14.045200
20
Fragment
H 0.183600 -22.869200 -17.260700
C 1.024500 -23.102300 -16.885600
H 1.435400 -20.213700 -16.640800
N 1.478300 -24.358700 -16.697100
C 1.982100 -22.206900 -16.443800
C 2.133000 -20.792000 -16.355900
N 2.676300 -24.335800 -16.161400
N 2.989400 -23.017600 -16.007100
C 3.281000 -20.290000 -15.861500
H 3.394100 -19.348200 -15.815800
C 4.188100 -22.542500 -15.465000
C 4.334300 -21.143300 -15.403600
H 5.049900 -24.354200 -15.058800
C 5.169800 -23.412800 -15.005600
C 5.526900 -20.647500 -14.865100
H 5.661800 -19.708100 -14.816100
C 6.321100 -22.878000 -14.471300
C 6.507100 -21.497100 -14.406400
H 6.998100 -23.458400 -14.142100
H 7.311300 -21.142900 -14.045200
40
Fragment
H -7.646800 -22.869200 -17.260700
C -6.805900 -23.102300 -16.885600
H -6.395000 -20.213700 -16.640800
N -6.352100 -24.358700 -16.697100
C -5.848300 -22.206900 -16.443800
C -5.697400 -20.792000 -16.355900
N -5.154100 -24.335800 -16.161400
N -4.841000 -23.017600 -16.007100
C -4.549400 -20.290000 -15.861500
H -4.436300 -19.348200 -15.815800
C -3.642300 -22.542500 -15.465000
C -3.496100 -21.143300 -15.403600
H -2.780500 -24.354200 -15.058800
C -2.660600 -23.412800 -15.005600
C -2.303500 -20.647500 -14.865100
H -2.168600 -19.708100 -14.816100
C -1.509300 -22.878000 -14.471300
C -1.323300 -21.497100 -14.406400
H -0.832300 -23.458400 -14.142100
H -0.519100 -21.142900 -14.045200
H 0.183600 -22.869200 -17.260700
C 1.024500 -23.102300 -16.885600
H 1.435400 -20.213700 -16.640800
N 1.478300 -24.358700 -16.697100
C 1.982100 -22.206900 -16.443800
C 2.133000 -20.792000 -16.355900
N 2.676300 -24.335800 -16.161400
N 2.989400 -23.017600 -16.007100
C 3.281000 -20.290000 -15.861500
H 3.394100 -19.348200 -15.815800
C 4.188100 -22.542500 -15.465000
C 4.334300 -21.143300 -15.403600
H 5.049900 -24.354200 -15.058800
C 5.169800 -23.412800 -15.005600
C 5.526900 -20.647500 -14.865100
H 5.661800 -19.708100 -14.816100
C 6.321100 -22.878000 -14.471300
C 6.507100 -21.497100 -14.406400
H 6.998100 -23.458400 -14.142100
H 7.311300 -21.142900 -14.045200
