20
Fragment
H -10.863900 -33.125800 -10.562600
H -10.369700 -30.647100 -10.457100
H -10.125400 -35.293400 -10.433100
C -9.956800 -33.297700 -10.338800
C -9.533600 -34.573200 -10.250200
C -9.473200 -30.847300 -10.214900
C -9.073300 -32.188400 -10.104100
H -8.888500 -28.918100 -10.053000
C -8.594500 -29.818600 -9.980200
C -8.185900 -34.819300 -9.877800
C -7.737100 -32.424500 -9.748300
H -7.643700 -36.826000 -9.703300
C -7.381900 -35.916400 -9.622500
N -7.355200 -33.761000 -9.630300
C -7.269400 -30.093700 -9.634800
C -6.832300 -31.393300 -9.521400
H -6.665300 -29.377200 -9.476700
N -6.169000 -35.479800 -9.241400
N -6.129700 -34.158600 -9.236600
H -5.929900 -31.583000 -9.292800
20
Fragment
O -11.013100 -25.133300 -11.811400
H -10.754800 -27.400800 -11.726900
C -10.078300 -25.729500 -11.318000
O -10.004400 -27.046600 -11.283100
H -9.226400 -24.338200 -10.091900
C -8.891800 -25.031300 -10.714800
H -8.407200 -24.565100 -11.441300
H -8.348800 -26.327200 -9.193700
C -7.894600 -25.901900 -9.963600
H -7.573400 -26.620500 -10.563300
H -7.026000 -24.381500 -8.862800
C -6.704800 -25.100100 -9.462500
H -6.250500 -24.674800 -10.232400
H -6.192200 -26.436900 -7.984800
C -5.707600 -25.970700 -8.711200
H -5.373000 -26.663800 -9.334200
O -4.594900 -23.955400 -8.143000
C -4.521000 -25.272500 -8.108100
H -3.844600 -23.601200 -7.699200
O -3.586200 -25.868700 -7.614700
40
Fragment
H -10.863900 -33.125800 -10.562600
H -10.369700 -30.647100 -10.457100
H -10.125400 -35.293400 -10.433100
C -9.956800 -33.297700 -10.338800
C -9.533600 -34.573200 -10.250200
C -9.473200 -30.847300 -10.214900
C -9.073300 -32.188400 -10.104100
H -8.888500 -28.918100 -10.053000
C -8.594500 -29.818600 -9.980200
C -8.185900 -34.819300 -9.877800
C -7.737100 -32.424500 -9.748300
H -7.643700 -36.826000 -9.703300
C -7.381900 -35.916400 -9.622500
N -7.355200 -33.761000 -9.630300
C -7.269400 -30.093700 -9.634800
C -6.832300 -31.393300 -9.521400
H -6.665300 -29.377200 -9.476700
N -6.169000 -35.479800 -9.241400
N -6.129700 -34.158600 -9.236600
H -5.929900 -31.583000 -9.292800
O -11.013100 -25.133300 -11.811400
H -10.754800 -27.400800 -11.726900
C -10.078300 -25.729500 -11.318000
O -10.004400 -27.046600 -11.283100
H -9.226400 -24.338200 -10.091900
C -8.891800 -25.031300 -10.714800
H -8.407200 -24.565100 -11.441300
H -8.348800 -26.327200 -9.193700
C -7.894600 -25.901900 -9.963600
H -7.573400 -26.620500 -10.563300
H -7.026000 -24.381500 -8.862800
C -6.704800 -25.100100 -9.462500
H -6.250500 -24.674800 -10.232400
H -6.192200 -26.436900 -7.984800
C -5.707600 -25.970700 -8.711200
H -5.373000 -26.663800 -9.334200
O -4.594900 -23.955400 -8.143000
C -4.521000 -25.272500 -8.108100
H -3.844600 -23.601200 -7.699200
O -3.586200 -25.868700 -7.614700
