17
Fragment
H -45.549500 -54.772500 -9.942400
O -45.026900 -55.513300 -9.524700
C -44.076100 -54.978100 -8.773500
O -43.903500 -53.780000 -8.659900
H -43.837500 -56.535800 -7.475200
C -43.248400 -56.011300 -8.075200
H -42.880500 -56.631900 -8.752200
H -42.442700 -54.754000 -6.690200
C -42.097500 -55.449000 -7.257800
H -41.752300 -56.144000 -6.690200
H -41.314500 -54.266100 -8.752200
C -40.946600 -54.886700 -8.075200
H -40.357500 -54.362200 -7.475200
O -40.291500 -57.118000 -8.659900
C -40.118900 -55.919900 -8.773500
O -39.168100 -55.384700 -9.524700
H -38.645500 -56.125500 -9.942400
20
Fragment
H -52.543300 -59.079100 -3.757000
C -51.859600 -58.617700 -4.229400
N -51.722400 -57.277000 -4.306200
H -50.879000 -61.282200 -4.941700
C -50.845400 -59.205500 -4.947700
N -50.675300 -56.962800 -5.043800
C -50.396600 -60.523000 -5.253100
N -50.134500 -58.133800 -5.427800
C -49.275400 -60.677800 -5.992400
C -48.991700 -58.243600 -6.226800
H -48.962200 -61.555800 -6.180300
H -48.661900 -56.251200 -6.527100
C -48.544900 -59.543700 -6.502700
C -48.336900 -57.121000 -6.718400
C -47.388900 -59.684200 -7.286000
C -47.210400 -57.290600 -7.485900
H -47.056600 -60.550300 -7.488400
H -46.753500 -56.532100 -7.829700
C -46.733000 -58.572600 -7.762600
H -45.948000 -58.679800 -8.285800
37
Fragment
H -45.549500 -54.772500 -9.942400
O -45.026900 -55.513300 -9.524700
C -44.076100 -54.978100 -8.773500
O -43.903500 -53.780000 -8.659900
H -43.837500 -56.535800 -7.475200
C -43.248400 -56.011300 -8.075200
H -42.880500 -56.631900 -8.752200
H -42.442700 -54.754000 -6.690200
C -42.097500 -55.449000 -7.257800
H -41.752300 -56.144000 -6.690200
H -41.314500 -54.266100 -8.752200
C -40.946600 -54.886700 -8.075200
H -40.357500 -54.362200 -7.475200
O -40.291500 -57.118000 -8.659900
C -40.118900 -55.919900 -8.773500
O -39.168100 -55.384700 -9.524700
H -38.645500 -56.125500 -9.942400
H -52.543300 -59.079100 -3.757000
C -51.859600 -58.617700 -4.229400
N -51.722400 -57.277000 -4.306200
H -50.879000 -61.282200 -4.941700
C -50.845400 -59.205500 -4.947700
N -50.675300 -56.962800 -5.043800
C -50.396600 -60.523000 -5.253100
N -50.134500 -58.133800 -5.427800
C -49.275400 -60.677800 -5.992400
C -48.991700 -58.243600 -6.226800
H -48.962200 -61.555800 -6.180300
H -48.661900 -56.251200 -6.527100
C -48.544900 -59.543700 -6.502700
C -48.336900 -57.121000 -6.718400
C -47.388900 -59.684200 -7.286000
C -47.210400 -57.290600 -7.485900
H -47.056600 -60.550300 -7.488400
H -46.753500 -56.532100 -7.829700
C -46.733000 -58.572600 -7.762600
H -45.948000 -58.679800 -8.285800
