17
Fragment
H -45.549500 -54.772500 -9.942400
O -45.026900 -55.513300 -9.524700
C -44.076100 -54.978100 -8.773500
O -43.903500 -53.780000 -8.659900
H -43.837500 -56.535800 -7.475200
C -43.248400 -56.011300 -8.075200
H -42.880500 -56.631900 -8.752200
H -42.442700 -54.754000 -6.690200
C -42.097500 -55.449000 -7.257800
H -41.752300 -56.144000 -6.690200
H -41.314500 -54.266100 -8.752200
C -40.946600 -54.886700 -8.075200
H -40.357500 -54.362200 -7.475200
O -40.291500 -57.118000 -8.659900
C -40.118900 -55.919900 -8.773500
O -39.168100 -55.384700 -9.524700
H -38.645500 -56.125500 -9.942400
20
Fragment
H -38.510800 -59.079100 -5.892400
C -37.827100 -58.617700 -6.364800
N -37.689900 -57.277000 -6.441600
H -36.846500 -61.282200 -7.077100
C -36.812900 -59.205500 -7.083100
N -36.642800 -56.962800 -7.179200
C -36.364100 -60.523000 -7.388500
N -36.102000 -58.133800 -7.563200
C -35.242900 -60.677800 -8.127800
C -34.959200 -58.243600 -8.362200
H -34.929700 -61.555800 -8.315700
H -34.629400 -56.251200 -8.662500
C -34.512400 -59.543700 -8.638100
C -34.304400 -57.121000 -8.853800
C -33.356400 -59.684200 -9.421400
C -33.177900 -57.290600 -9.621300
H -33.024100 -60.550300 -9.623800
H -32.721000 -56.532100 -9.965100
C -32.700500 -58.572600 -9.898000
H -31.915500 -58.679800 -10.421200
37
Fragment
H -45.549500 -54.772500 -9.942400
O -45.026900 -55.513300 -9.524700
C -44.076100 -54.978100 -8.773500
O -43.903500 -53.780000 -8.659900
H -43.837500 -56.535800 -7.475200
C -43.248400 -56.011300 -8.075200
H -42.880500 -56.631900 -8.752200
H -42.442700 -54.754000 -6.690200
C -42.097500 -55.449000 -7.257800
H -41.752300 -56.144000 -6.690200
H -41.314500 -54.266100 -8.752200
C -40.946600 -54.886700 -8.075200
H -40.357500 -54.362200 -7.475200
O -40.291500 -57.118000 -8.659900
C -40.118900 -55.919900 -8.773500
O -39.168100 -55.384700 -9.524700
H -38.645500 -56.125500 -9.942400
H -38.510800 -59.079100 -5.892400
C -37.827100 -58.617700 -6.364800
N -37.689900 -57.277000 -6.441600
H -36.846500 -61.282200 -7.077100
C -36.812900 -59.205500 -7.083100
N -36.642800 -56.962800 -7.179200
C -36.364100 -60.523000 -7.388500
N -36.102000 -58.133800 -7.563200
C -35.242900 -60.677800 -8.127800
C -34.959200 -58.243600 -8.362200
H -34.929700 -61.555800 -8.315700
H -34.629400 -56.251200 -8.662500
C -34.512400 -59.543700 -8.638100
C -34.304400 -57.121000 -8.853800
C -33.356400 -59.684200 -9.421400
C -33.177900 -57.290600 -9.621300
H -33.024100 -60.550300 -9.623800
H -32.721000 -56.532100 -9.965100
C -32.700500 -58.572600 -9.898000
H -31.915500 -58.679800 -10.421200
