17
Fragment
H -45.549500 -54.772500 -9.942400
O -45.026900 -55.513300 -9.524700
C -44.076100 -54.978100 -8.773500
O -43.903500 -53.780000 -8.659900
H -43.837500 -56.535800 -7.475200
C -43.248400 -56.011300 -8.075200
H -42.880500 -56.631900 -8.752200
H -42.442700 -54.754000 -6.690200
C -42.097500 -55.449000 -7.257800
H -41.752300 -56.144000 -6.690200
H -41.314500 -54.266100 -8.752200
C -40.946600 -54.886700 -8.075200
H -40.357500 -54.362200 -7.475200
O -40.291500 -57.118000 -8.659900
C -40.118900 -55.919900 -8.773500
O -39.168100 -55.384700 -9.524700
H -38.645500 -56.125500 -9.942400
20
Fragment
H -52.279500 -52.218200 -10.421200
C -51.494500 -52.325400 -9.898000
H -51.474000 -54.365900 -9.965100
H -51.170900 -50.347700 -9.623800
C -51.017100 -53.607400 -9.621300
C -50.838600 -51.213800 -9.421400
C -49.890600 -53.777000 -8.853800
C -49.682600 -51.354300 -8.638100
H -49.565600 -54.646800 -8.662500
H -49.265300 -49.342200 -8.315700
C -49.235800 -52.654400 -8.362200
C -48.952100 -50.220200 -8.127800
N -48.093000 -52.764200 -7.563200
C -47.830900 -50.375000 -7.388500
N -47.552200 -53.935200 -7.179200
C -47.382100 -51.692500 -7.083100
H -47.348500 -49.615800 -7.077100
N -46.505100 -53.621000 -6.441600
C -46.367900 -52.280300 -6.364800
H -45.684200 -51.818900 -5.892400
37
Fragment
H -45.549500 -54.772500 -9.942400
O -45.026900 -55.513300 -9.524700
C -44.076100 -54.978100 -8.773500
O -43.903500 -53.780000 -8.659900
H -43.837500 -56.535800 -7.475200
C -43.248400 -56.011300 -8.075200
H -42.880500 -56.631900 -8.752200
H -42.442700 -54.754000 -6.690200
C -42.097500 -55.449000 -7.257800
H -41.752300 -56.144000 -6.690200
H -41.314500 -54.266100 -8.752200
C -40.946600 -54.886700 -8.075200
H -40.357500 -54.362200 -7.475200
O -40.291500 -57.118000 -8.659900
C -40.118900 -55.919900 -8.773500
O -39.168100 -55.384700 -9.524700
H -38.645500 -56.125500 -9.942400
H -52.279500 -52.218200 -10.421200
C -51.494500 -52.325400 -9.898000
H -51.474000 -54.365900 -9.965100
H -51.170900 -50.347700 -9.623800
C -51.017100 -53.607400 -9.621300
C -50.838600 -51.213800 -9.421400
C -49.890600 -53.777000 -8.853800
C -49.682600 -51.354300 -8.638100
H -49.565600 -54.646800 -8.662500
H -49.265300 -49.342200 -8.315700
C -49.235800 -52.654400 -8.362200
C -48.952100 -50.220200 -8.127800
N -48.093000 -52.764200 -7.563200
C -47.830900 -50.375000 -7.388500
N -47.552200 -53.935200 -7.179200
C -47.382100 -51.692500 -7.083100
H -47.348500 -49.615800 -7.077100
N -46.505100 -53.621000 -6.441600
C -46.367900 -52.280300 -6.364800
H -45.684200 -51.818900 -5.892400
