17
Fragment
H -45.549500 -54.772500 -9.942400
O -45.026900 -55.513300 -9.524700
C -44.076100 -54.978100 -8.773500
O -43.903500 -53.780000 -8.659900
H -43.837500 -56.535800 -7.475200
C -43.248400 -56.011300 -8.075200
H -42.880500 -56.631900 -8.752200
H -42.442700 -54.754000 -6.690200
C -42.097500 -55.449000 -7.257800
H -41.752300 -56.144000 -6.690200
H -41.314500 -54.266100 -8.752200
C -40.946600 -54.886700 -8.075200
H -40.357500 -54.362200 -7.475200
O -40.291500 -57.118000 -8.659900
C -40.118900 -55.919900 -8.773500
O -39.168100 -55.384700 -9.524700
H -38.645500 -56.125500 -9.942400
17
Fragment
H -45.549500 -54.772500 -5.671600
O -45.026900 -55.513300 -5.253900
C -44.076100 -54.978100 -4.502700
O -43.903500 -53.780000 -4.389100
H -43.837500 -56.535800 -3.204400
C -43.248400 -56.011300 -3.804400
H -42.880500 -56.631900 -4.481400
H -42.442700 -54.754000 -2.419400
C -42.097500 -55.449000 -2.987000
H -41.752300 -56.144000 -2.419400
H -41.314500 -54.266100 -4.481400
C -40.946600 -54.886700 -3.804400
H -40.357500 -54.362200 -3.204400
O -40.291500 -57.118000 -4.389100
C -40.118900 -55.919900 -4.502700
O -39.168100 -55.384700 -5.253900
H -38.645500 -56.125500 -5.671600
34
Fragment
H -45.549500 -54.772500 -9.942400
O -45.026900 -55.513300 -9.524700
C -44.076100 -54.978100 -8.773500
O -43.903500 -53.780000 -8.659900
H -43.837500 -56.535800 -7.475200
C -43.248400 -56.011300 -8.075200
H -42.880500 -56.631900 -8.752200
H -42.442700 -54.754000 -6.690200
C -42.097500 -55.449000 -7.257800
H -41.752300 -56.144000 -6.690200
H -41.314500 -54.266100 -8.752200
C -40.946600 -54.886700 -8.075200
H -40.357500 -54.362200 -7.475200
O -40.291500 -57.118000 -8.659900
C -40.118900 -55.919900 -8.773500
O -39.168100 -55.384700 -9.524700
H -38.645500 -56.125500 -9.942400
H -45.549500 -54.772500 -5.671600
O -45.026900 -55.513300 -5.253900
C -44.076100 -54.978100 -4.502700
O -43.903500 -53.780000 -4.389100
H -43.837500 -56.535800 -3.204400
C -43.248400 -56.011300 -3.804400
H -42.880500 -56.631900 -4.481400
H -42.442700 -54.754000 -2.419400
C -42.097500 -55.449000 -2.987000
H -41.752300 -56.144000 -2.419400
H -41.314500 -54.266100 -4.481400
C -40.946600 -54.886700 -3.804400
H -40.357500 -54.362200 -3.204400
O -40.291500 -57.118000 -4.389100
C -40.118900 -55.919900 -4.502700
O -39.168100 -55.384700 -5.253900
H -38.645500 -56.125500 -5.671600
