17
Fragment
H -45.549500 -54.772500 -9.942400
O -45.026900 -55.513300 -9.524700
C -44.076100 -54.978100 -8.773500
O -43.903500 -53.780000 -8.659900
H -43.837500 -56.535800 -7.475200
C -43.248400 -56.011300 -8.075200
H -42.880500 -56.631900 -8.752200
H -42.442700 -54.754000 -6.690200
C -42.097500 -55.449000 -7.257800
H -41.752300 -56.144000 -6.690200
H -41.314500 -54.266100 -8.752200
C -40.946600 -54.886700 -8.075200
H -40.357500 -54.362200 -7.475200
O -40.291500 -57.118000 -8.659900
C -40.118900 -55.919900 -8.773500
O -39.168100 -55.384700 -9.524700
H -38.645500 -56.125500 -9.942400
17
Fragment
H -45.549500 -54.772500 -14.213200
O -45.026900 -55.513300 -13.795500
C -44.076100 -54.978100 -13.044300
O -43.903500 -53.780000 -12.930700
H -43.837500 -56.535800 -11.746000
C -43.248400 -56.011300 -12.346000
H -42.880500 -56.631900 -13.023000
H -42.442700 -54.754000 -10.961000
C -42.097500 -55.449000 -11.528600
H -41.752300 -56.144000 -10.961000
H -41.314500 -54.266100 -13.023000
C -40.946600 -54.886700 -12.346000
H -40.357500 -54.362200 -11.746000
O -40.291500 -57.118000 -12.930700
C -40.118900 -55.919900 -13.044300
O -39.168100 -55.384700 -13.795500
H -38.645500 -56.125500 -14.213200
34
Fragment
H -45.549500 -54.772500 -9.942400
O -45.026900 -55.513300 -9.524700
C -44.076100 -54.978100 -8.773500
O -43.903500 -53.780000 -8.659900
H -43.837500 -56.535800 -7.475200
C -43.248400 -56.011300 -8.075200
H -42.880500 -56.631900 -8.752200
H -42.442700 -54.754000 -6.690200
C -42.097500 -55.449000 -7.257800
H -41.752300 -56.144000 -6.690200
H -41.314500 -54.266100 -8.752200
C -40.946600 -54.886700 -8.075200
H -40.357500 -54.362200 -7.475200
O -40.291500 -57.118000 -8.659900
C -40.118900 -55.919900 -8.773500
O -39.168100 -55.384700 -9.524700
H -38.645500 -56.125500 -9.942400
H -45.549500 -54.772500 -14.213200
O -45.026900 -55.513300 -13.795500
C -44.076100 -54.978100 -13.044300
O -43.903500 -53.780000 -12.930700
H -43.837500 -56.535800 -11.746000
C -43.248400 -56.011300 -12.346000
H -42.880500 -56.631900 -13.023000
H -42.442700 -54.754000 -10.961000
C -42.097500 -55.449000 -11.528600
H -41.752300 -56.144000 -10.961000
H -41.314500 -54.266100 -13.023000
C -40.946600 -54.886700 -12.346000
H -40.357500 -54.362200 -11.746000
O -40.291500 -57.118000 -12.930700
C -40.118900 -55.919900 -13.044300
O -39.168100 -55.384700 -13.795500
H -38.645500 -56.125500 -14.213200
