20
Fragment
H -10.863900 -33.125800 -10.562600
H -10.369700 -30.647100 -10.457100
H -10.125400 -35.293400 -10.433100
C -9.956800 -33.297700 -10.338800
C -9.533600 -34.573200 -10.250200
C -9.473200 -30.847300 -10.214900
C -9.073300 -32.188400 -10.104100
H -8.888500 -28.918100 -10.053000
C -8.594500 -29.818600 -9.980200
C -8.185900 -34.819300 -9.877800
C -7.737100 -32.424500 -9.748300
H -7.643700 -36.826000 -9.703300
C -7.381900 -35.916400 -9.622500
N -7.355200 -33.761000 -9.630300
C -7.269400 -30.093700 -9.634800
C -6.832300 -31.393300 -9.521400
H -6.665300 -29.377200 -9.476700
N -6.169000 -35.479800 -9.241400
N -6.129700 -34.158600 -9.236600
H -5.929900 -31.583000 -9.292800
20
Fragment
O -5.087800 -38.619200 -8.573700
H -4.829400 -36.351700 -8.489200
C -4.153000 -38.023000 -8.080300
O -4.079000 -36.705900 -8.045400
H -3.301000 -39.414300 -6.854200
C -2.966400 -38.721200 -7.477200
H -2.481800 -39.187400 -8.203600
H -2.423500 -37.425300 -5.956000
C -1.969200 -37.850600 -6.725900
H -1.648000 -37.132000 -7.325600
H -1.100600 -39.371000 -5.625100
C -0.779400 -38.652400 -6.224800
H -0.325100 -39.077700 -6.994700
H -0.266800 -37.315600 -4.747100
C 0.217800 -37.781800 -5.473600
H 0.552400 -37.088700 -6.096600
O 1.330400 -39.797100 -4.905300
C 1.404400 -38.480000 -4.870400
H 2.080800 -40.151300 -4.461500
O 2.339200 -37.883800 -4.377000
40
Fragment
H -10.863900 -33.125800 -10.562600
H -10.369700 -30.647100 -10.457100
H -10.125400 -35.293400 -10.433100
C -9.956800 -33.297700 -10.338800
C -9.533600 -34.573200 -10.250200
C -9.473200 -30.847300 -10.214900
C -9.073300 -32.188400 -10.104100
H -8.888500 -28.918100 -10.053000
C -8.594500 -29.818600 -9.980200
C -8.185900 -34.819300 -9.877800
C -7.737100 -32.424500 -9.748300
H -7.643700 -36.826000 -9.703300
C -7.381900 -35.916400 -9.622500
N -7.355200 -33.761000 -9.630300
C -7.269400 -30.093700 -9.634800
C -6.832300 -31.393300 -9.521400
H -6.665300 -29.377200 -9.476700
N -6.169000 -35.479800 -9.241400
N -6.129700 -34.158600 -9.236600
H -5.929900 -31.583000 -9.292800
O -5.087800 -38.619200 -8.573700
H -4.829400 -36.351700 -8.489200
C -4.153000 -38.023000 -8.080300
O -4.079000 -36.705900 -8.045400
H -3.301000 -39.414300 -6.854200
C -2.966400 -38.721200 -7.477200
H -2.481800 -39.187400 -8.203600
H -2.423500 -37.425300 -5.956000
C -1.969200 -37.850600 -6.725900
H -1.648000 -37.132000 -7.325600
H -1.100600 -39.371000 -5.625100
C -0.779400 -38.652400 -6.224800
H -0.325100 -39.077700 -6.994700
H -0.266800 -37.315600 -4.747100
C 0.217800 -37.781800 -5.473600
H 0.552400 -37.088700 -6.096600
O 1.330400 -39.797100 -4.905300
C 1.404400 -38.480000 -4.870400
H 2.080800 -40.151300 -4.461500
O 2.339200 -37.883800 -4.377000
