28
Fragment
H -7.578000 -13.688700 -17.982400
H -7.550700 -12.413700 -19.918500
C -7.373700 -12.633600 -17.927700
C -7.300200 -11.936500 -19.087300
H -7.139700 -12.601000 -15.814900
C -7.064500 -12.057400 -16.704000
H -6.936300 -10.038700 -19.908000
C -6.920600 -10.603200 -19.037800
H -6.781600 -12.308600 -11.732200
N -6.688900 -11.687600 -13.738300
C -6.680900 -10.728600 -16.659800
C -6.619400 -10.004200 -17.835100
N -6.519800 -11.565300 -12.357800
C -6.387100 -10.505500 -14.209200
N -6.361600 -10.038900 -15.473700
H -6.336300 -9.173900 -17.824600
H -6.214000 -9.161300 -15.530800
C -6.161500 -10.349800 -12.012100
N -6.057200 -9.656800 -13.173600
N -5.942800 -9.826600 -10.807300
N -5.639900 -8.365600 -13.268800
C -5.539400 -8.528600 -10.817900
H -5.419800 -5.846500 -11.542800
C -5.369500 -7.821400 -12.123700
O -5.305900 -7.899800 -9.772700
C -4.855100 -6.427900 -12.140500
H -4.729900 -6.080900 -13.089600
H -3.943900 -6.374900 -11.805900
28
Fragment
H -10.853900 -20.947400 -28.504600
H -10.826600 -19.672400 -30.440700
C -10.649600 -19.892300 -28.449900
C -10.576100 -19.195200 -29.609500
H -10.415600 -19.859700 -26.337000
C -10.340400 -19.316100 -27.226200
H -10.212200 -17.297300 -30.430200
C -10.196500 -17.861800 -29.560000
H -10.057500 -19.567200 -22.254400
N -9.964800 -18.946300 -24.260500
C -9.956800 -17.987200 -27.182000
C -9.895300 -17.262900 -28.357300
N -9.795700 -18.824000 -22.880000
C -9.663000 -17.764200 -24.731400
N -9.637500 -17.297600 -25.995900
H -9.612200 -16.432500 -28.346800
H -9.489900 -16.420000 -26.052900
C -9.437400 -17.608500 -22.534300
N -9.333100 -16.915500 -23.695800
N -9.218600 -17.085300 -21.329500
N -8.915800 -15.624300 -23.791000
C -8.815300 -15.787200 -21.340100
H -8.695700 -13.105200 -22.065000
C -8.645400 -15.080000 -22.645900
O -8.581800 -15.158400 -20.294900
C -8.131000 -13.686600 -22.662700
H -8.005800 -13.339600 -23.611800
H -7.219800 -13.633600 -22.328100
56
Fragment
H -7.578000 -13.688700 -17.982400
H -7.550700 -12.413700 -19.918500
C -7.373700 -12.633600 -17.927700
C -7.300200 -11.936500 -19.087300
H -7.139700 -12.601000 -15.814900
C -7.064500 -12.057400 -16.704000
H -6.936300 -10.038700 -19.908000
C -6.920600 -10.603200 -19.037800
H -6.781600 -12.308600 -11.732200
N -6.688900 -11.687600 -13.738300
C -6.680900 -10.728600 -16.659800
C -6.619400 -10.004200 -17.835100
N -6.519800 -11.565300 -12.357800
C -6.387100 -10.505500 -14.209200
N -6.361600 -10.038900 -15.473700
H -6.336300 -9.173900 -17.824600
H -6.214000 -9.161300 -15.530800
C -6.161500 -10.349800 -12.012100
N -6.057200 -9.656800 -13.173600
N -5.942800 -9.826600 -10.807300
N -5.639900 -8.365600 -13.268800
C -5.539400 -8.528600 -10.817900
H -5.419800 -5.846500 -11.542800
C -5.369500 -7.821400 -12.123700
O -5.305900 -7.899800 -9.772700
C -4.855100 -6.427900 -12.140500
H -4.729900 -6.080900 -13.089600
H -3.943900 -6.374900 -11.805900
H -10.853900 -20.947400 -28.504600
H -10.826600 -19.672400 -30.440700
C -10.649600 -19.892300 -28.449900
C -10.576100 -19.195200 -29.609500
H -10.415600 -19.859700 -26.337000
C -10.340400 -19.316100 -27.226200
H -10.212200 -17.297300 -30.430200
C -10.196500 -17.861800 -29.560000
H -10.057500 -19.567200 -22.254400
N -9.964800 -18.946300 -24.260500
C -9.956800 -17.987200 -27.182000
C -9.895300 -17.262900 -28.357300
N -9.795700 -18.824000 -22.880000
C -9.663000 -17.764200 -24.731400
N -9.637500 -17.297600 -25.995900
H -9.612200 -16.432500 -28.346800
H -9.489900 -16.420000 -26.052900
C -9.437400 -17.608500 -22.534300
N -9.333100 -16.915500 -23.695800
N -9.218600 -17.085300 -21.329500
N -8.915800 -15.624300 -23.791000
C -8.815300 -15.787200 -21.340100
H -8.695700 -13.105200 -22.065000
C -8.645400 -15.080000 -22.645900
O -8.581800 -15.158400 -20.294900
C -8.131000 -13.686600 -22.662700
H -8.005800 -13.339600 -23.611800
H -7.219800 -13.633600 -22.328100
