28
Fragment
H -7.578000 -13.688700 -17.982400
H -7.550700 -12.413700 -19.918500
C -7.373700 -12.633600 -17.927700
C -7.300200 -11.936500 -19.087300
H -7.139700 -12.601000 -15.814900
C -7.064500 -12.057400 -16.704000
H -6.936300 -10.038700 -19.908000
C -6.920600 -10.603200 -19.037800
H -6.781600 -12.308600 -11.732200
N -6.688900 -11.687600 -13.738300
C -6.680900 -10.728600 -16.659800
C -6.619400 -10.004200 -17.835100
N -6.519800 -11.565300 -12.357800
C -6.387100 -10.505500 -14.209200
N -6.361600 -10.038900 -15.473700
H -6.336300 -9.173900 -17.824600
H -6.214000 -9.161300 -15.530800
C -6.161500 -10.349800 -12.012100
N -6.057200 -9.656800 -13.173600
N -5.942800 -9.826600 -10.807300
N -5.639900 -8.365600 -13.268800
C -5.539400 -8.528600 -10.817900
H -5.419800 -5.846500 -11.542800
C -5.369500 -7.821400 -12.123700
O -5.305900 -7.899800 -9.772700
C -4.855100 -6.427900 -12.140500
H -4.729900 -6.080900 -13.089600
H -3.943900 -6.374900 -11.805900
28
Fragment
H -9.276200 -16.815600 -9.238500
H -8.490300 -17.109500 -7.954800
C -8.365100 -16.762500 -8.903900
O -7.914300 -15.290700 -11.271700
C -7.850700 -15.369100 -8.920700
H -7.800400 -17.344000 -9.501500
C -7.680800 -14.661900 -10.226500
N -7.580300 -14.824800 -7.775600
N -7.277400 -13.363900 -10.237000
N -7.163000 -13.533600 -7.870800
C -7.058700 -12.840600 -9.032300
H -7.006200 -14.029200 -5.513600
H -6.883900 -14.016600 -3.219800
N -6.858600 -13.151600 -5.570700
C -6.833100 -12.685000 -6.835200
N -6.700400 -11.625200 -8.686600
C -6.600800 -13.186300 -3.209300
C -6.539200 -12.461900 -4.384600
N -6.531300 -11.502800 -7.306100
H -6.438600 -10.881900 -9.312100
C -6.299600 -12.587300 -2.006600
H -6.283900 -13.151800 -1.136400
C -6.155600 -11.133100 -4.340400
H -6.080500 -10.589400 -5.229500
C -5.920000 -11.254000 -1.957100
C -5.846500 -10.556900 -3.116700
H -5.669500 -10.776800 -1.125900
H -5.642100 -9.501800 -3.062000
56
Fragment
H -7.578000 -13.688700 -17.982400
H -7.550700 -12.413700 -19.918500
C -7.373700 -12.633600 -17.927700
C -7.300200 -11.936500 -19.087300
H -7.139700 -12.601000 -15.814900
C -7.064500 -12.057400 -16.704000
H -6.936300 -10.038700 -19.908000
C -6.920600 -10.603200 -19.037800
H -6.781600 -12.308600 -11.732200
N -6.688900 -11.687600 -13.738300
C -6.680900 -10.728600 -16.659800
C -6.619400 -10.004200 -17.835100
N -6.519800 -11.565300 -12.357800
C -6.387100 -10.505500 -14.209200
N -6.361600 -10.038900 -15.473700
H -6.336300 -9.173900 -17.824600
H -6.214000 -9.161300 -15.530800
C -6.161500 -10.349800 -12.012100
N -6.057200 -9.656800 -13.173600
N -5.942800 -9.826600 -10.807300
N -5.639900 -8.365600 -13.268800
C -5.539400 -8.528600 -10.817900
H -5.419800 -5.846500 -11.542800
C -5.369500 -7.821400 -12.123700
O -5.305900 -7.899800 -9.772700
C -4.855100 -6.427900 -12.140500
H -4.729900 -6.080900 -13.089600
H -3.943900 -6.374900 -11.805900
H -9.276200 -16.815600 -9.238500
H -8.490300 -17.109500 -7.954800
C -8.365100 -16.762500 -8.903900
O -7.914300 -15.290700 -11.271700
C -7.850700 -15.369100 -8.920700
H -7.800400 -17.344000 -9.501500
C -7.680800 -14.661900 -10.226500
N -7.580300 -14.824800 -7.775600
N -7.277400 -13.363900 -10.237000
N -7.163000 -13.533600 -7.870800
C -7.058700 -12.840600 -9.032300
H -7.006200 -14.029200 -5.513600
H -6.883900 -14.016600 -3.219800
N -6.858600 -13.151600 -5.570700
C -6.833100 -12.685000 -6.835200
N -6.700400 -11.625200 -8.686600
C -6.600800 -13.186300 -3.209300
C -6.539200 -12.461900 -4.384600
N -6.531300 -11.502800 -7.306100
H -6.438600 -10.881900 -9.312100
C -6.299600 -12.587300 -2.006600
H -6.283900 -13.151800 -1.136400
C -6.155600 -11.133100 -4.340400
H -6.080500 -10.589400 -5.229500
C -5.920000 -11.254000 -1.957100
C -5.846500 -10.556900 -3.116700
H -5.669500 -10.776800 -1.125900
H -5.642100 -9.501800 -3.062000
