28
Fragment
H -7.578000 -13.688700 -17.982400
H -7.550700 -12.413700 -19.918500
C -7.373700 -12.633600 -17.927700
C -7.300200 -11.936500 -19.087300
H -7.139700 -12.601000 -15.814900
C -7.064500 -12.057400 -16.704000
H -6.936300 -10.038700 -19.908000
C -6.920600 -10.603200 -19.037800
H -6.781600 -12.308600 -11.732200
N -6.688900 -11.687600 -13.738300
C -6.680900 -10.728600 -16.659800
C -6.619400 -10.004200 -17.835100
N -6.519800 -11.565300 -12.357800
C -6.387100 -10.505500 -14.209200
N -6.361600 -10.038900 -15.473700
H -6.336300 -9.173900 -17.824600
H -6.214000 -9.161300 -15.530800
C -6.161500 -10.349800 -12.012100
N -6.057200 -9.656800 -13.173600
N -5.942800 -9.826600 -10.807300
N -5.639900 -8.365600 -13.268800
C -5.539400 -8.528600 -10.817900
H -5.419800 -5.846500 -11.542800
C -5.369500 -7.821400 -12.123700
O -5.305900 -7.899800 -9.772700
C -4.855100 -6.427900 -12.140500
H -4.729900 -6.080900 -13.089600
H -3.943900 -6.374900 -11.805900
28
Fragment
H -5.883700 -15.401100 -19.760700
H -5.097700 -15.695100 -18.477000
C -4.972500 -15.348100 -19.426100
O -4.521700 -13.876300 -21.793900
C -4.458100 -13.954600 -19.442900
H -4.407800 -15.929500 -20.023700
C -4.288200 -13.247500 -20.748700
N -4.187700 -13.410400 -18.297800
N -3.884900 -11.949400 -20.759200
N -3.770400 -12.119200 -18.393000
C -3.666100 -11.426200 -19.554400
H -3.613600 -12.614700 -16.035800
H -3.491300 -12.602200 -13.742000
N -3.466000 -11.737100 -16.092900
C -3.440500 -11.270500 -17.357400
N -3.307800 -10.210700 -19.208800
C -3.208200 -11.771800 -13.731500
C -3.146700 -11.047500 -14.906800
N -3.138700 -10.088400 -17.828300
H -3.046000 -9.467500 -19.834300
C -2.907000 -11.172900 -12.528800
H -2.891300 -11.737400 -11.658600
C -2.763100 -9.718600 -14.862600
H -2.687900 -9.175000 -15.751700
C -2.527400 -9.839500 -12.479300
C -2.454000 -9.142400 -13.638900
H -2.276900 -9.362300 -11.648100
H -2.249600 -8.087300 -13.584200
56
Fragment
H -7.578000 -13.688700 -17.982400
H -7.550700 -12.413700 -19.918500
C -7.373700 -12.633600 -17.927700
C -7.300200 -11.936500 -19.087300
H -7.139700 -12.601000 -15.814900
C -7.064500 -12.057400 -16.704000
H -6.936300 -10.038700 -19.908000
C -6.920600 -10.603200 -19.037800
H -6.781600 -12.308600 -11.732200
N -6.688900 -11.687600 -13.738300
C -6.680900 -10.728600 -16.659800
C -6.619400 -10.004200 -17.835100
N -6.519800 -11.565300 -12.357800
C -6.387100 -10.505500 -14.209200
N -6.361600 -10.038900 -15.473700
H -6.336300 -9.173900 -17.824600
H -6.214000 -9.161300 -15.530800
C -6.161500 -10.349800 -12.012100
N -6.057200 -9.656800 -13.173600
N -5.942800 -9.826600 -10.807300
N -5.639900 -8.365600 -13.268800
C -5.539400 -8.528600 -10.817900
H -5.419800 -5.846500 -11.542800
C -5.369500 -7.821400 -12.123700
O -5.305900 -7.899800 -9.772700
C -4.855100 -6.427900 -12.140500
H -4.729900 -6.080900 -13.089600
H -3.943900 -6.374900 -11.805900
H -5.883700 -15.401100 -19.760700
H -5.097700 -15.695100 -18.477000
C -4.972500 -15.348100 -19.426100
O -4.521700 -13.876300 -21.793900
C -4.458100 -13.954600 -19.442900
H -4.407800 -15.929500 -20.023700
C -4.288200 -13.247500 -20.748700
N -4.187700 -13.410400 -18.297800
N -3.884900 -11.949400 -20.759200
N -3.770400 -12.119200 -18.393000
C -3.666100 -11.426200 -19.554400
H -3.613600 -12.614700 -16.035800
H -3.491300 -12.602200 -13.742000
N -3.466000 -11.737100 -16.092900
C -3.440500 -11.270500 -17.357400
N -3.307800 -10.210700 -19.208800
C -3.208200 -11.771800 -13.731500
C -3.146700 -11.047500 -14.906800
N -3.138700 -10.088400 -17.828300
H -3.046000 -9.467500 -19.834300
C -2.907000 -11.172900 -12.528800
H -2.891300 -11.737400 -11.658600
C -2.763100 -9.718600 -14.862600
H -2.687900 -9.175000 -15.751700
C -2.527400 -9.839500 -12.479300
C -2.454000 -9.142400 -13.638900
H -2.276900 -9.362300 -11.648100
H -2.249600 -8.087300 -13.584200
