28
Fragment
H -7.578000 -13.688700 -17.982400
H -7.550700 -12.413700 -19.918500
C -7.373700 -12.633600 -17.927700
C -7.300200 -11.936500 -19.087300
H -7.139700 -12.601000 -15.814900
C -7.064500 -12.057400 -16.704000
H -6.936300 -10.038700 -19.908000
C -6.920600 -10.603200 -19.037800
H -6.781600 -12.308600 -11.732200
N -6.688900 -11.687600 -13.738300
C -6.680900 -10.728600 -16.659800
C -6.619400 -10.004200 -17.835100
N -6.519800 -11.565300 -12.357800
C -6.387100 -10.505500 -14.209200
N -6.361600 -10.038900 -15.473700
H -6.336300 -9.173900 -17.824600
H -6.214000 -9.161300 -15.530800
C -6.161500 -10.349800 -12.012100
N -6.057200 -9.656800 -13.173600
N -5.942800 -9.826600 -10.807300
N -5.639900 -8.365600 -13.268800
C -5.539400 -8.528600 -10.817900
H -5.419800 -5.846500 -11.542800
C -5.369500 -7.821400 -12.123700
O -5.305900 -7.899800 -9.772700
C -4.855100 -6.427900 -12.140500
H -4.729900 -6.080900 -13.089600
H -3.943900 -6.374900 -11.805900
28
Fragment
H -2.607800 -8.142400 -9.238500
H -1.821800 -8.436400 -7.954800
C -1.696600 -8.089400 -8.903900
O -1.245900 -6.617600 -11.271700
C -1.182200 -6.696000 -8.920700
H -1.132000 -8.670800 -9.501500
C -1.012300 -5.988800 -10.226500
N -0.911900 -6.151700 -7.775600
N -0.609000 -4.690700 -10.237000
N -0.494500 -4.860500 -7.870800
C -0.390200 -4.167500 -9.032300
H -0.337700 -5.356000 -5.513600
H -0.215400 -5.343500 -3.219800
N -0.190200 -4.478500 -5.570700
C -0.164700 -4.011800 -6.835200
N -0.031900 -2.952000 -8.686600
C 0.067700 -4.513100 -3.209300
C 0.129200 -3.788800 -4.384600
N 0.137200 -2.829700 -7.306100
H 0.229900 -2.208800 -9.312100
C 0.368900 -3.914200 -2.006600
H 0.384500 -4.478700 -1.136400
C 0.512800 -2.459900 -4.340400
H 0.588000 -1.916300 -5.229500
C 0.748500 -2.580800 -1.957100
C 0.821900 -1.883800 -3.116700
H 0.999000 -2.103700 -1.125900
H 1.026300 -0.828700 -3.062000
56
Fragment
H -7.578000 -13.688700 -17.982400
H -7.550700 -12.413700 -19.918500
C -7.373700 -12.633600 -17.927700
C -7.300200 -11.936500 -19.087300
H -7.139700 -12.601000 -15.814900
C -7.064500 -12.057400 -16.704000
H -6.936300 -10.038700 -19.908000
C -6.920600 -10.603200 -19.037800
H -6.781600 -12.308600 -11.732200
N -6.688900 -11.687600 -13.738300
C -6.680900 -10.728600 -16.659800
C -6.619400 -10.004200 -17.835100
N -6.519800 -11.565300 -12.357800
C -6.387100 -10.505500 -14.209200
N -6.361600 -10.038900 -15.473700
H -6.336300 -9.173900 -17.824600
H -6.214000 -9.161300 -15.530800
C -6.161500 -10.349800 -12.012100
N -6.057200 -9.656800 -13.173600
N -5.942800 -9.826600 -10.807300
N -5.639900 -8.365600 -13.268800
C -5.539400 -8.528600 -10.817900
H -5.419800 -5.846500 -11.542800
C -5.369500 -7.821400 -12.123700
O -5.305900 -7.899800 -9.772700
C -4.855100 -6.427900 -12.140500
H -4.729900 -6.080900 -13.089600
H -3.943900 -6.374900 -11.805900
H -2.607800 -8.142400 -9.238500
H -1.821800 -8.436400 -7.954800
C -1.696600 -8.089400 -8.903900
O -1.245900 -6.617600 -11.271700
C -1.182200 -6.696000 -8.920700
H -1.132000 -8.670800 -9.501500
C -1.012300 -5.988800 -10.226500
N -0.911900 -6.151700 -7.775600
N -0.609000 -4.690700 -10.237000
N -0.494500 -4.860500 -7.870800
C -0.390200 -4.167500 -9.032300
H -0.337700 -5.356000 -5.513600
H -0.215400 -5.343500 -3.219800
N -0.190200 -4.478500 -5.570700
C -0.164700 -4.011800 -6.835200
N -0.031900 -2.952000 -8.686600
C 0.067700 -4.513100 -3.209300
C 0.129200 -3.788800 -4.384600
N 0.137200 -2.829700 -7.306100
H 0.229900 -2.208800 -9.312100
C 0.368900 -3.914200 -2.006600
H 0.384500 -4.478700 -1.136400
C 0.512800 -2.459900 -4.340400
H 0.588000 -1.916300 -5.229500
C 0.748500 -2.580800 -1.957100
C 0.821900 -1.883800 -3.116700
H 0.999000 -2.103700 -1.125900
H 1.026300 -0.828700 -3.062000
