13
Fragment
H -12.191300 -43.652000 -22.187400
H -11.679200 -42.704900 -20.115500
C -11.352700 -43.228600 -22.050200
C -11.045800 -42.668400 -20.822800
Cl -10.834500 -43.830600 -24.640100
C -10.426500 -43.165200 -23.074600
C -9.815300 -42.049400 -20.615000
O -9.573900 -41.508300 -19.384500
C -9.189400 -42.577200 -22.880500
H -8.968700 -40.885500 -19.441500
C -8.884600 -42.021700 -21.646700
H -8.553700 -42.555400 -23.586500
H -8.034800 -41.619400 -21.506300
25
Fragment
H -9.337500 -36.496200 -17.598600
H -9.335600 -38.794700 -17.968400
H -9.296700 -36.072500 -19.713500
H -9.273100 -38.301800 -20.329000
C -8.391000 -36.459700 -17.885800
C -8.361400 -36.149200 -19.398600
C -8.354600 -38.925100 -17.941200
C -8.290000 -38.413700 -20.347600
H -8.168500 -39.650400 -17.293300
H -8.052400 -38.811300 -21.222400
H -7.969900 -35.701400 -17.409000
H -7.936400 -35.263900 -19.521400
N -7.904000 -39.365700 -19.278900
N -7.736700 -37.688100 -17.444500
N -7.675500 -37.100700 -20.255600
C -6.425800 -39.454600 -19.258200
C -6.274400 -37.720800 -17.644900
C -6.233100 -37.210700 -20.033900
H -6.144700 -40.104600 -18.567200
H -6.103000 -39.780600 -20.135700
H -5.915200 -36.814700 -17.469800
H -5.881500 -36.313400 -19.811300
H -5.880600 -38.329500 -16.971200
N -5.824700 -38.147000 -18.971400
H -5.807000 -37.493100 -20.881200
38
Fragment
H -12.191300 -43.652000 -22.187400
H -11.679200 -42.704900 -20.115500
C -11.352700 -43.228600 -22.050200
C -11.045800 -42.668400 -20.822800
Cl -10.834500 -43.830600 -24.640100
C -10.426500 -43.165200 -23.074600
C -9.815300 -42.049400 -20.615000
O -9.573900 -41.508300 -19.384500
C -9.189400 -42.577200 -22.880500
H -8.968700 -40.885500 -19.441500
C -8.884600 -42.021700 -21.646700
H -8.553700 -42.555400 -23.586500
H -8.034800 -41.619400 -21.506300
H -9.337500 -36.496200 -17.598600
H -9.335600 -38.794700 -17.968400
H -9.296700 -36.072500 -19.713500
H -9.273100 -38.301800 -20.329000
C -8.391000 -36.459700 -17.885800
C -8.361400 -36.149200 -19.398600
C -8.354600 -38.925100 -17.941200
C -8.290000 -38.413700 -20.347600
H -8.168500 -39.650400 -17.293300
H -8.052400 -38.811300 -21.222400
H -7.969900 -35.701400 -17.409000
H -7.936400 -35.263900 -19.521400
N -7.904000 -39.365700 -19.278900
N -7.736700 -37.688100 -17.444500
N -7.675500 -37.100700 -20.255600
C -6.425800 -39.454600 -19.258200
C -6.274400 -37.720800 -17.644900
C -6.233100 -37.210700 -20.033900
H -6.144700 -40.104600 -18.567200
H -6.103000 -39.780600 -20.135700
H -5.915200 -36.814700 -17.469800
H -5.881500 -36.313400 -19.811300
H -5.880600 -38.329500 -16.971200
N -5.824700 -38.147000 -18.971400
H -5.807000 -37.493100 -20.881200
