13
Fragment
H -12.191300 -43.652000 -22.187400
H -11.679200 -42.704900 -20.115500
C -11.352700 -43.228600 -22.050200
C -11.045800 -42.668400 -20.822800
Cl -10.834500 -43.830600 -24.640100
C -10.426500 -43.165200 -23.074600
C -9.815300 -42.049400 -20.615000
O -9.573900 -41.508300 -19.384500
C -9.189400 -42.577200 -22.880500
H -8.968700 -40.885500 -19.441500
C -8.884600 -42.021700 -21.646700
H -8.553700 -42.555400 -23.586500
H -8.034800 -41.619400 -21.506300
25
Fragment
H -16.375500 -45.585000 -14.902900
N -16.357800 -44.931100 -16.812700
H -16.301900 -44.748600 -18.812900
H -16.301000 -46.764700 -15.972900
H -16.267300 -46.263400 -18.314300
H -16.079400 -43.297500 -15.648400
H -16.037800 -42.973500 -17.216900
C -15.949300 -45.867400 -15.750300
C -15.908100 -45.357300 -18.139200
C -15.756600 -43.623500 -16.526000
N -14.507000 -45.977400 -15.528500
N -14.445700 -45.390000 -18.339600
N -14.278500 -43.712400 -16.505200
H -14.246000 -47.814200 -16.262700
H -14.212500 -47.376700 -18.375200
H -14.130100 -44.266800 -14.561800
H -14.013900 -43.427700 -18.490900
C -13.892400 -44.664400 -15.436600
C -13.827800 -44.153000 -17.842900
C -13.821000 -46.928900 -16.385600
C -13.791400 -46.618400 -17.898400
H -12.909300 -44.776300 -15.455200
H -12.885700 -47.005600 -16.070700
H -12.846800 -44.283400 -17.815700
H -12.845000 -46.581900 -18.185500
38
Fragment
H -12.191300 -43.652000 -22.187400
H -11.679200 -42.704900 -20.115500
C -11.352700 -43.228600 -22.050200
C -11.045800 -42.668400 -20.822800
Cl -10.834500 -43.830600 -24.640100
C -10.426500 -43.165200 -23.074600
C -9.815300 -42.049400 -20.615000
O -9.573900 -41.508300 -19.384500
C -9.189400 -42.577200 -22.880500
H -8.968700 -40.885500 -19.441500
C -8.884600 -42.021700 -21.646700
H -8.553700 -42.555400 -23.586500
H -8.034800 -41.619400 -21.506300
H -16.375500 -45.585000 -14.902900
N -16.357800 -44.931100 -16.812700
H -16.301900 -44.748600 -18.812900
H -16.301000 -46.764700 -15.972900
H -16.267300 -46.263400 -18.314300
H -16.079400 -43.297500 -15.648400
H -16.037800 -42.973500 -17.216900
C -15.949300 -45.867400 -15.750300
C -15.908100 -45.357300 -18.139200
C -15.756600 -43.623500 -16.526000
N -14.507000 -45.977400 -15.528500
N -14.445700 -45.390000 -18.339600
N -14.278500 -43.712400 -16.505200
H -14.246000 -47.814200 -16.262700
H -14.212500 -47.376700 -18.375200
H -14.130100 -44.266800 -14.561800
H -14.013900 -43.427700 -18.490900
C -13.892400 -44.664400 -15.436600
C -13.827800 -44.153000 -17.842900
C -13.821000 -46.928900 -16.385600
C -13.791400 -46.618400 -17.898400
H -12.909300 -44.776300 -15.455200
H -12.885700 -47.005600 -16.070700
H -12.846800 -44.283400 -17.815700
H -12.845000 -46.581900 -18.185500
