6
Fragment
H -18.627200 -20.295300 -21.599700
H -18.474500 -20.142400 -20.046500
C -17.999400 -20.241600 -20.874700
H -17.472500 -21.043000 -20.847200
O -17.172500 -19.153200 -21.064500
H -17.050100 -18.826800 -21.828000
23
Fragment
O -22.112600 -23.444300 -17.146600
O -21.901700 -23.334100 -19.299500
N -21.437400 -23.393100 -18.181100
C -20.015000 -23.419200 -18.050400
N -19.416700 -23.352500 -16.870100
N -19.204300 -23.501000 -19.116600
N -18.110100 -23.394900 -17.225000
C -17.976400 -23.495700 -18.602100
O -17.730800 -20.599900 -16.462900
O -17.349400 -26.192000 -16.835700
C -17.082600 -23.395600 -16.249600
N -16.840500 -23.573800 -19.250000
H -16.838600 -23.635900 -20.108400
N -16.823300 -20.910800 -15.706200
C -16.521400 -22.297600 -15.563200
N -16.494000 -25.848500 -16.032300
C -16.393400 -24.458100 -15.732400
O -16.166200 -20.100400 -15.080300
H -16.097400 -23.559400 -18.818000
O -15.750800 -26.619700 -15.469600
N -15.570300 -22.674800 -14.706100
N -15.502000 -23.992800 -14.831300
H -14.955400 -24.486900 -14.386900
29
Fragment
H -18.627200 -20.295300 -21.599700
H -18.474500 -20.142400 -20.046500
C -17.999400 -20.241600 -20.874700
H -17.472500 -21.043000 -20.847200
O -17.172500 -19.153200 -21.064500
H -17.050100 -18.826800 -21.828000
O -22.112600 -23.444300 -17.146600
O -21.901700 -23.334100 -19.299500
N -21.437400 -23.393100 -18.181100
C -20.015000 -23.419200 -18.050400
N -19.416700 -23.352500 -16.870100
N -19.204300 -23.501000 -19.116600
N -18.110100 -23.394900 -17.225000
C -17.976400 -23.495700 -18.602100
O -17.730800 -20.599900 -16.462900
O -17.349400 -26.192000 -16.835700
C -17.082600 -23.395600 -16.249600
N -16.840500 -23.573800 -19.250000
H -16.838600 -23.635900 -20.108400
N -16.823300 -20.910800 -15.706200
C -16.521400 -22.297600 -15.563200
N -16.494000 -25.848500 -16.032300
C -16.393400 -24.458100 -15.732400
O -16.166200 -20.100400 -15.080300
H -16.097400 -23.559400 -18.818000
O -15.750800 -26.619700 -15.469600
N -15.570300 -22.674800 -14.706100
N -15.502000 -23.992800 -14.831300
H -14.955400 -24.486900 -14.386900
