6
Fragment
H -18.627200 -20.295300 -21.599700
H -18.474500 -20.142400 -20.046500
C -17.999400 -20.241600 -20.874700
H -17.472500 -21.043000 -20.847200
O -17.172500 -19.153200 -21.064500
H -17.050100 -18.826800 -21.828000
23
Fragment
O -27.627300 -17.964900 -24.042900
O -27.388500 -18.103400 -26.200000
N -26.948800 -18.010200 -25.066400
C -25.489900 -17.939800 -24.938500
N -24.944800 -18.008900 -23.752600
N -24.705600 -17.813300 -26.007400
N -23.593300 -17.935800 -24.113100
C -23.493900 -17.811600 -25.477800
O -23.214300 -20.689600 -23.333100
O -22.820800 -15.111600 -23.718200
C -22.589400 -17.908000 -23.132200
N -22.437000 -20.362200 -22.456700
N -22.330600 -17.672000 -26.114700
H -22.315200 -17.560300 -26.967600
C -22.056100 -18.980600 -22.394800
O -21.990800 -21.122400 -21.634100
N -21.884700 -15.470800 -23.023500
C -21.841600 -16.849800 -22.668600
H -21.595600 -17.688600 -25.670300
N -21.110900 -18.607600 -21.551500
O -21.022100 -14.716000 -22.587400
N -20.965400 -17.309700 -21.740000
H -20.396100 -16.811800 -21.331400
29
Fragment
H -18.627200 -20.295300 -21.599700
H -18.474500 -20.142400 -20.046500
C -17.999400 -20.241600 -20.874700
H -17.472500 -21.043000 -20.847200
O -17.172500 -19.153200 -21.064500
H -17.050100 -18.826800 -21.828000
O -27.627300 -17.964900 -24.042900
O -27.388500 -18.103400 -26.200000
N -26.948800 -18.010200 -25.066400
C -25.489900 -17.939800 -24.938500
N -24.944800 -18.008900 -23.752600
N -24.705600 -17.813300 -26.007400
N -23.593300 -17.935800 -24.113100
C -23.493900 -17.811600 -25.477800
O -23.214300 -20.689600 -23.333100
O -22.820800 -15.111600 -23.718200
C -22.589400 -17.908000 -23.132200
N -22.437000 -20.362200 -22.456700
N -22.330600 -17.672000 -26.114700
H -22.315200 -17.560300 -26.967600
C -22.056100 -18.980600 -22.394800
O -21.990800 -21.122400 -21.634100
N -21.884700 -15.470800 -23.023500
C -21.841600 -16.849800 -22.668600
H -21.595600 -17.688600 -25.670300
N -21.110900 -18.607600 -21.551500
O -21.022100 -14.716000 -22.587400
N -20.965400 -17.309700 -21.740000
H -20.396100 -16.811800 -21.331400
