24
Fragment
O -15.278500 -9.255000 -34.619100
N -14.179200 -9.776600 -34.744500
O -13.719800 -10.198300 -35.797900
N -13.633200 -9.356800 -32.443800
C -13.335600 -9.916400 -33.594200
O -12.705000 -13.325900 -34.722300
H -12.662800 -9.848900 -29.715100
N -12.657100 -9.224800 -30.328000
N -12.625800 -9.704300 -31.604900
O -12.360100 -13.080700 -36.849900
N -12.177200 -12.833700 -35.686700
C -12.113000 -10.616900 -33.533700
C -11.689400 -10.466400 -32.249200
N -11.625100 -8.249600 -30.096300
O -11.442200 -8.002600 -28.933000
N -11.176500 -11.379000 -34.178000
N -11.145300 -11.858500 -35.454900
H -11.139500 -11.234400 -36.067800
O -11.097300 -7.757400 -31.060600
C -10.466800 -11.166900 -32.188700
N -10.169100 -11.726500 -33.339200
O -10.082500 -10.885000 -29.985000
N -9.623200 -11.306700 -31.038500
O -8.523800 -11.828300 -31.163800
24
Fragment
O -18.678900 -12.266900 -44.016700
N -17.579500 -12.788500 -44.142000
O -17.120200 -13.210200 -45.195500
N -17.033600 -12.368700 -41.841300
C -16.735900 -12.928300 -42.991800
O -16.105400 -16.337800 -44.119900
H -16.063200 -12.860800 -39.112600
N -16.057400 -12.236700 -39.725600
N -16.026100 -12.716200 -41.002500
O -15.760500 -16.092600 -46.247500
N -15.577500 -15.845600 -45.084200
C -15.513300 -13.628800 -42.931300
C -15.089700 -13.478300 -41.646800
N -15.025500 -11.261500 -39.493800
O -14.842600 -11.014500 -38.330600
N -14.576900 -14.390900 -43.575600
N -14.545600 -14.870400 -44.852500
H -14.539800 -14.246300 -45.465400
O -14.497700 -10.769300 -40.458200
C -13.867100 -14.178800 -41.586300
N -13.569400 -14.738400 -42.736700
O -13.482900 -13.896900 -39.382500
N -13.023500 -14.318600 -40.436000
O -11.924200 -14.840200 -40.561400
48
Fragment
O -15.278500 -9.255000 -34.619100
N -14.179200 -9.776600 -34.744500
O -13.719800 -10.198300 -35.797900
N -13.633200 -9.356800 -32.443800
C -13.335600 -9.916400 -33.594200
O -12.705000 -13.325900 -34.722300
H -12.662800 -9.848900 -29.715100
N -12.657100 -9.224800 -30.328000
N -12.625800 -9.704300 -31.604900
O -12.360100 -13.080700 -36.849900
N -12.177200 -12.833700 -35.686700
C -12.113000 -10.616900 -33.533700
C -11.689400 -10.466400 -32.249200
N -11.625100 -8.249600 -30.096300
O -11.442200 -8.002600 -28.933000
N -11.176500 -11.379000 -34.178000
N -11.145300 -11.858500 -35.454900
H -11.139500 -11.234400 -36.067800
O -11.097300 -7.757400 -31.060600
C -10.466800 -11.166900 -32.188700
N -10.169100 -11.726500 -33.339200
O -10.082500 -10.885000 -29.985000
N -9.623200 -11.306700 -31.038500
O -8.523800 -11.828300 -31.163800
O -18.678900 -12.266900 -44.016700
N -17.579500 -12.788500 -44.142000
O -17.120200 -13.210200 -45.195500
N -17.033600 -12.368700 -41.841300
C -16.735900 -12.928300 -42.991800
O -16.105400 -16.337800 -44.119900
H -16.063200 -12.860800 -39.112600
N -16.057400 -12.236700 -39.725600
N -16.026100 -12.716200 -41.002500
O -15.760500 -16.092600 -46.247500
N -15.577500 -15.845600 -45.084200
C -15.513300 -13.628800 -42.931300
C -15.089700 -13.478300 -41.646800
N -15.025500 -11.261500 -39.493800
O -14.842600 -11.014500 -38.330600
N -14.576900 -14.390900 -43.575600
N -14.545600 -14.870400 -44.852500
H -14.539800 -14.246300 -45.465400
O -14.497700 -10.769300 -40.458200
C -13.867100 -14.178800 -41.586300
N -13.569400 -14.738400 -42.736700
O -13.482900 -13.896900 -39.382500
N -13.023500 -14.318600 -40.436000
O -11.924200 -14.840200 -40.561400
