24
Fragment
O -15.278500 -9.255000 -34.619100
N -14.179200 -9.776600 -34.744500
O -13.719800 -10.198300 -35.797900
N -13.633200 -9.356800 -32.443800
C -13.335600 -9.916400 -33.594200
O -12.705000 -13.325900 -34.722300
H -12.662800 -9.848900 -29.715100
N -12.657100 -9.224800 -30.328000
N -12.625800 -9.704300 -31.604900
O -12.360100 -13.080700 -36.849900
N -12.177200 -12.833700 -35.686700
C -12.113000 -10.616900 -33.533700
C -11.689400 -10.466400 -32.249200
N -11.625100 -8.249600 -30.096300
O -11.442200 -8.002600 -28.933000
N -11.176500 -11.379000 -34.178000
N -11.145300 -11.858500 -35.454900
H -11.139500 -11.234400 -36.067800
O -11.097300 -7.757400 -31.060600
C -10.466800 -11.166900 -32.188700
N -10.169100 -11.726500 -33.339200
O -10.082500 -10.885000 -29.985000
N -9.623200 -11.306700 -31.038500
O -8.523800 -11.828300 -31.163800
24
Fragment
O -10.057300 -8.816400 -34.619100
N -8.957900 -8.294800 -34.744500
O -8.498600 -7.873100 -35.797900
N -8.412000 -8.714600 -32.443800
C -8.114300 -8.155000 -33.594200
O -7.483800 -4.745500 -34.722300
H -7.441600 -8.222500 -29.715100
N -7.435800 -8.846600 -30.328000
N -7.404600 -8.367100 -31.604900
O -7.138900 -4.990700 -36.849900
N -6.956000 -5.237700 -35.686700
C -6.891700 -7.454500 -33.533700
C -6.468100 -7.605000 -32.249200
N -6.403900 -9.821800 -30.096300
O -6.221000 -10.068800 -28.933000
N -5.955300 -6.692400 -34.178000
N -5.924000 -6.212900 -35.454900
H -5.918300 -6.837000 -36.067800
O -5.876100 -10.314000 -31.060600
C -5.245500 -6.904500 -32.188700
N -4.947900 -6.344900 -33.339200
O -4.861300 -7.186400 -29.985000
N -4.401900 -6.764700 -31.038500
O -3.302600 -6.243100 -31.163800
48
Fragment
O -15.278500 -9.255000 -34.619100
N -14.179200 -9.776600 -34.744500
O -13.719800 -10.198300 -35.797900
N -13.633200 -9.356800 -32.443800
C -13.335600 -9.916400 -33.594200
O -12.705000 -13.325900 -34.722300
H -12.662800 -9.848900 -29.715100
N -12.657100 -9.224800 -30.328000
N -12.625800 -9.704300 -31.604900
O -12.360100 -13.080700 -36.849900
N -12.177200 -12.833700 -35.686700
C -12.113000 -10.616900 -33.533700
C -11.689400 -10.466400 -32.249200
N -11.625100 -8.249600 -30.096300
O -11.442200 -8.002600 -28.933000
N -11.176500 -11.379000 -34.178000
N -11.145300 -11.858500 -35.454900
H -11.139500 -11.234400 -36.067800
O -11.097300 -7.757400 -31.060600
C -10.466800 -11.166900 -32.188700
N -10.169100 -11.726500 -33.339200
O -10.082500 -10.885000 -29.985000
N -9.623200 -11.306700 -31.038500
O -8.523800 -11.828300 -31.163800
O -10.057300 -8.816400 -34.619100
N -8.957900 -8.294800 -34.744500
O -8.498600 -7.873100 -35.797900
N -8.412000 -8.714600 -32.443800
C -8.114300 -8.155000 -33.594200
O -7.483800 -4.745500 -34.722300
H -7.441600 -8.222500 -29.715100
N -7.435800 -8.846600 -30.328000
N -7.404600 -8.367100 -31.604900
O -7.138900 -4.990700 -36.849900
N -6.956000 -5.237700 -35.686700
C -6.891700 -7.454500 -33.533700
C -6.468100 -7.605000 -32.249200
N -6.403900 -9.821800 -30.096300
O -6.221000 -10.068800 -28.933000
N -5.955300 -6.692400 -34.178000
N -5.924000 -6.212900 -35.454900
H -5.918300 -6.837000 -36.067800
O -5.876100 -10.314000 -31.060600
C -5.245500 -6.904500 -32.188700
N -4.947900 -6.344900 -33.339200
O -4.861300 -7.186400 -29.985000
N -4.401900 -6.764700 -31.038500
O -3.302600 -6.243100 -31.163800
