22
Fragment
H -17.558000 -9.141100 -43.247300
O -17.369800 -7.244900 -44.527900
O -16.614400 -8.855600 -43.191900
C -16.468800 -7.793000 -43.954800
C -15.044400 -7.313800 -44.087700
H -15.034900 -6.347500 -44.004000
O -14.988700 -6.879300 -41.229600
H -14.726700 -7.532200 -44.979100
C -14.198100 -7.636100 -41.745300
N -14.119700 -7.868900 -43.121100
H -13.242300 -8.193000 -39.120400
C -13.148600 -8.477100 -41.125800
C -13.107300 -8.772300 -43.427200
O -12.819200 -9.140600 -44.547700
C -12.806400 -8.654000 -39.800200
C -12.490100 -9.151300 -42.139200
C -11.784300 -9.549500 -39.529500
H -11.544000 -9.709700 -38.644500
C -11.450000 -10.026300 -41.872700
C -11.115900 -10.208000 -40.538200
H -10.998700 -10.470100 -42.552900
H -10.423300 -10.789100 -40.319200
22
Fragment
H -17.558000 -13.797800 -43.247300
O -17.369800 -11.901600 -44.527900
O -16.614400 -13.512300 -43.191900
C -16.468800 -12.449700 -43.954800
C -15.044400 -11.970500 -44.087700
H -15.034900 -11.004200 -44.004000
O -14.988700 -11.536000 -41.229600
H -14.726700 -12.188900 -44.979100
C -14.198100 -12.292800 -41.745300
N -14.119700 -12.525600 -43.121100
H -13.242300 -12.849700 -39.120400
C -13.148600 -13.133800 -41.125800
C -13.107300 -13.429000 -43.427200
O -12.819200 -13.797300 -44.547700
C -12.806400 -13.310700 -39.800200
C -12.490100 -13.808000 -42.139200
C -11.784300 -14.206200 -39.529500
H -11.544000 -14.366400 -38.644500
C -11.450000 -14.683000 -41.872700
C -11.115900 -14.864700 -40.538200
H -10.998700 -15.126800 -42.552900
H -10.423300 -15.445800 -40.319200
44
Fragment
H -17.558000 -9.141100 -43.247300
O -17.369800 -7.244900 -44.527900
O -16.614400 -8.855600 -43.191900
C -16.468800 -7.793000 -43.954800
C -15.044400 -7.313800 -44.087700
H -15.034900 -6.347500 -44.004000
O -14.988700 -6.879300 -41.229600
H -14.726700 -7.532200 -44.979100
C -14.198100 -7.636100 -41.745300
N -14.119700 -7.868900 -43.121100
H -13.242300 -8.193000 -39.120400
C -13.148600 -8.477100 -41.125800
C -13.107300 -8.772300 -43.427200
O -12.819200 -9.140600 -44.547700
C -12.806400 -8.654000 -39.800200
C -12.490100 -9.151300 -42.139200
C -11.784300 -9.549500 -39.529500
H -11.544000 -9.709700 -38.644500
C -11.450000 -10.026300 -41.872700
C -11.115900 -10.208000 -40.538200
H -10.998700 -10.470100 -42.552900
H -10.423300 -10.789100 -40.319200
H -17.558000 -13.797800 -43.247300
O -17.369800 -11.901600 -44.527900
O -16.614400 -13.512300 -43.191900
C -16.468800 -12.449700 -43.954800
C -15.044400 -11.970500 -44.087700
H -15.034900 -11.004200 -44.004000
O -14.988700 -11.536000 -41.229600
H -14.726700 -12.188900 -44.979100
C -14.198100 -12.292800 -41.745300
N -14.119700 -12.525600 -43.121100
H -13.242300 -12.849700 -39.120400
C -13.148600 -13.133800 -41.125800
C -13.107300 -13.429000 -43.427200
O -12.819200 -13.797300 -44.547700
C -12.806400 -13.310700 -39.800200
C -12.490100 -13.808000 -42.139200
C -11.784300 -14.206200 -39.529500
H -11.544000 -14.366400 -38.644500
C -11.450000 -14.683000 -41.872700
C -11.115900 -14.864700 -40.538200
H -10.998700 -15.126800 -42.552900
H -10.423300 -15.445800 -40.319200
