22
Fragment
H -17.558000 -9.141100 -43.247300
O -17.369800 -7.244900 -44.527900
O -16.614400 -8.855600 -43.191900
C -16.468800 -7.793000 -43.954800
C -15.044400 -7.313800 -44.087700
H -15.034900 -6.347500 -44.004000
O -14.988700 -6.879300 -41.229600
H -14.726700 -7.532200 -44.979100
C -14.198100 -7.636100 -41.745300
N -14.119700 -7.868900 -43.121100
H -13.242300 -8.193000 -39.120400
C -13.148600 -8.477100 -41.125800
C -13.107300 -8.772300 -43.427200
O -12.819200 -9.140600 -44.547700
C -12.806400 -8.654000 -39.800200
C -12.490100 -9.151300 -42.139200
C -11.784300 -9.549500 -39.529500
H -11.544000 -9.709700 -38.644500
C -11.450000 -10.026300 -41.872700
C -11.115900 -10.208000 -40.538200
H -10.998700 -10.470100 -42.552900
H -10.423300 -10.789100 -40.319200
24
Fragment
H -15.184000 -9.578400 -49.992700
H -15.174000 -8.041200 -49.685800
C -14.710500 -8.754600 -50.130200
H -14.660300 -8.566000 -51.069300
N -13.701600 -7.176000 -47.880600
N -13.365100 -8.872900 -49.586200
H -13.124200 -6.056500 -46.331300
C -12.963300 -8.126400 -48.514400
C -12.885800 -6.721500 -46.936700
O -12.797800 -10.431000 -51.128300
C -12.486700 -9.752100 -50.171100
C -11.720800 -8.246600 -47.969800
N -11.687400 -7.314300 -46.942400
N -11.202100 -9.831200 -49.606500
H -10.811200 -6.283800 -45.473200
C -10.729600 -9.116000 -48.494900
H -10.725500 -11.489500 -50.627200
C -10.604800 -7.062800 -45.994100
H -10.506600 -7.820500 -45.413400
C -10.257600 -10.718800 -50.295600
H -9.855500 -10.249400 -51.030200
H -9.785300 -6.918900 -46.474300
O -9.585500 -9.259800 -48.076700
H -9.575200 -10.997700 -49.680600
46
Fragment
H -17.558000 -9.141100 -43.247300
O -17.369800 -7.244900 -44.527900
O -16.614400 -8.855600 -43.191900
C -16.468800 -7.793000 -43.954800
C -15.044400 -7.313800 -44.087700
H -15.034900 -6.347500 -44.004000
O -14.988700 -6.879300 -41.229600
H -14.726700 -7.532200 -44.979100
C -14.198100 -7.636100 -41.745300
N -14.119700 -7.868900 -43.121100
H -13.242300 -8.193000 -39.120400
C -13.148600 -8.477100 -41.125800
C -13.107300 -8.772300 -43.427200
O -12.819200 -9.140600 -44.547700
C -12.806400 -8.654000 -39.800200
C -12.490100 -9.151300 -42.139200
C -11.784300 -9.549500 -39.529500
H -11.544000 -9.709700 -38.644500
C -11.450000 -10.026300 -41.872700
C -11.115900 -10.208000 -40.538200
H -10.998700 -10.470100 -42.552900
H -10.423300 -10.789100 -40.319200
H -15.184000 -9.578400 -49.992700
H -15.174000 -8.041200 -49.685800
C -14.710500 -8.754600 -50.130200
H -14.660300 -8.566000 -51.069300
N -13.701600 -7.176000 -47.880600
N -13.365100 -8.872900 -49.586200
H -13.124200 -6.056500 -46.331300
C -12.963300 -8.126400 -48.514400
C -12.885800 -6.721500 -46.936700
O -12.797800 -10.431000 -51.128300
C -12.486700 -9.752100 -50.171100
C -11.720800 -8.246600 -47.969800
N -11.687400 -7.314300 -46.942400
N -11.202100 -9.831200 -49.606500
H -10.811200 -6.283800 -45.473200
C -10.729600 -9.116000 -48.494900
H -10.725500 -11.489500 -50.627200
C -10.604800 -7.062800 -45.994100
H -10.506600 -7.820500 -45.413400
C -10.257600 -10.718800 -50.295600
H -9.855500 -10.249400 -51.030200
H -9.785300 -6.918900 -46.474300
O -9.585500 -9.259800 -48.076700
H -9.575200 -10.997700 -49.680600
