22
Fragment
H -17.558000 -9.141100 -43.247300
O -17.369800 -7.244900 -44.527900
O -16.614400 -8.855600 -43.191900
C -16.468800 -7.793000 -43.954800
C -15.044400 -7.313800 -44.087700
H -15.034900 -6.347500 -44.004000
O -14.988700 -6.879300 -41.229600
H -14.726700 -7.532200 -44.979100
C -14.198100 -7.636100 -41.745300
N -14.119700 -7.868900 -43.121100
H -13.242300 -8.193000 -39.120400
C -13.148600 -8.477100 -41.125800
C -13.107300 -8.772300 -43.427200
O -12.819200 -9.140600 -44.547700
C -12.806400 -8.654000 -39.800200
C -12.490100 -9.151300 -42.139200
C -11.784300 -9.549500 -39.529500
H -11.544000 -9.709700 -38.644500
C -11.450000 -10.026300 -41.872700
C -11.115900 -10.208000 -40.538200
H -10.998700 -10.470100 -42.552900
H -10.423300 -10.789100 -40.319200
24
Fragment
H -23.368200 -13.326100 -41.333400
O -23.357900 -11.588200 -42.937300
H -23.158100 -9.247300 -44.539700
H -23.087900 -12.577700 -39.983700
C -22.685800 -13.047100 -40.718400
H -22.436800 -10.148800 -45.600600
C -22.338600 -9.391200 -45.019900
H -22.217900 -13.817800 -40.386800
C -22.213800 -11.444300 -42.519100
H -22.132200 -8.612100 -45.540800
N -21.741300 -12.159600 -41.407500
N -21.255900 -9.642600 -44.071600
C -21.222500 -10.574900 -43.044200
C -20.456700 -12.080400 -40.842900
O -20.145600 -12.759400 -39.885700
C -20.057500 -9.049800 -44.077300
C -19.980100 -10.454800 -42.499600
H -19.819100 -8.384900 -44.682700
N -19.578300 -11.201200 -41.427800
N -19.241800 -9.504300 -43.133400
H -18.283000 -10.894300 -39.944700
C -18.232800 -11.082900 -40.883700
H -17.769300 -10.369500 -41.328200
H -17.759400 -11.906700 -41.021300
46
Fragment
H -17.558000 -9.141100 -43.247300
O -17.369800 -7.244900 -44.527900
O -16.614400 -8.855600 -43.191900
C -16.468800 -7.793000 -43.954800
C -15.044400 -7.313800 -44.087700
H -15.034900 -6.347500 -44.004000
O -14.988700 -6.879300 -41.229600
H -14.726700 -7.532200 -44.979100
C -14.198100 -7.636100 -41.745300
N -14.119700 -7.868900 -43.121100
H -13.242300 -8.193000 -39.120400
C -13.148600 -8.477100 -41.125800
C -13.107300 -8.772300 -43.427200
O -12.819200 -9.140600 -44.547700
C -12.806400 -8.654000 -39.800200
C -12.490100 -9.151300 -42.139200
C -11.784300 -9.549500 -39.529500
H -11.544000 -9.709700 -38.644500
C -11.450000 -10.026300 -41.872700
C -11.115900 -10.208000 -40.538200
H -10.998700 -10.470100 -42.552900
H -10.423300 -10.789100 -40.319200
H -23.368200 -13.326100 -41.333400
O -23.357900 -11.588200 -42.937300
H -23.158100 -9.247300 -44.539700
H -23.087900 -12.577700 -39.983700
C -22.685800 -13.047100 -40.718400
H -22.436800 -10.148800 -45.600600
C -22.338600 -9.391200 -45.019900
H -22.217900 -13.817800 -40.386800
C -22.213800 -11.444300 -42.519100
H -22.132200 -8.612100 -45.540800
N -21.741300 -12.159600 -41.407500
N -21.255900 -9.642600 -44.071600
C -21.222500 -10.574900 -43.044200
C -20.456700 -12.080400 -40.842900
O -20.145600 -12.759400 -39.885700
C -20.057500 -9.049800 -44.077300
C -19.980100 -10.454800 -42.499600
H -19.819100 -8.384900 -44.682700
N -19.578300 -11.201200 -41.427800
N -19.241800 -9.504300 -43.133400
H -18.283000 -10.894300 -39.944700
C -18.232800 -11.082900 -40.883700
H -17.769300 -10.369500 -41.328200
H -17.759400 -11.906700 -41.021300
