24
Fragment
O -15.278500 -9.255000 -34.619100
N -14.179200 -9.776600 -34.744500
O -13.719800 -10.198300 -35.797900
N -13.633200 -9.356800 -32.443800
C -13.335600 -9.916400 -33.594200
O -12.705000 -13.325900 -34.722300
H -12.662800 -9.848900 -29.715100
N -12.657100 -9.224800 -30.328000
N -12.625800 -9.704300 -31.604900
O -12.360100 -13.080700 -36.849900
N -12.177200 -12.833700 -35.686700
C -12.113000 -10.616900 -33.533700
C -11.689400 -10.466400 -32.249200
N -11.625100 -8.249600 -30.096300
O -11.442200 -8.002600 -28.933000
N -11.176500 -11.379000 -34.178000
N -11.145300 -11.858500 -35.454900
H -11.139500 -11.234400 -36.067800
O -11.097300 -7.757400 -31.060600
C -10.466800 -11.166900 -32.188700
N -10.169100 -11.726500 -33.339200
O -10.082500 -10.885000 -29.985000
N -9.623200 -11.306700 -31.038500
O -8.523800 -11.828300 -31.163800
24
Fragment
O -20.499800 -14.840200 -34.619100
N -19.400400 -14.318600 -34.744500
O -18.941100 -13.896900 -35.797900
N -18.854500 -14.738400 -32.443800
C -18.556800 -14.178800 -33.594200
O -17.926300 -10.769300 -34.722300
H -17.884100 -14.246300 -29.715100
N -17.878300 -14.870400 -30.328000
N -17.847100 -14.390900 -31.604900
O -17.581400 -11.014500 -36.849900
N -17.398500 -11.261500 -35.686700
C -17.334200 -13.478300 -33.533700
C -16.910600 -13.628800 -32.249200
N -16.846400 -15.845600 -30.096300
O -16.663500 -16.092600 -28.933000
N -16.397800 -12.716200 -34.178000
N -16.366500 -12.236700 -35.454900
H -16.360800 -12.860800 -36.067800
O -16.318600 -16.337800 -31.060600
C -15.688000 -12.928300 -32.188700
N -15.390400 -12.368700 -33.339200
O -15.303800 -13.210200 -29.985000
N -14.844400 -12.788500 -31.038500
O -13.745100 -12.266900 -31.163800
48
Fragment
O -15.278500 -9.255000 -34.619100
N -14.179200 -9.776600 -34.744500
O -13.719800 -10.198300 -35.797900
N -13.633200 -9.356800 -32.443800
C -13.335600 -9.916400 -33.594200
O -12.705000 -13.325900 -34.722300
H -12.662800 -9.848900 -29.715100
N -12.657100 -9.224800 -30.328000
N -12.625800 -9.704300 -31.604900
O -12.360100 -13.080700 -36.849900
N -12.177200 -12.833700 -35.686700
C -12.113000 -10.616900 -33.533700
C -11.689400 -10.466400 -32.249200
N -11.625100 -8.249600 -30.096300
O -11.442200 -8.002600 -28.933000
N -11.176500 -11.379000 -34.178000
N -11.145300 -11.858500 -35.454900
H -11.139500 -11.234400 -36.067800
O -11.097300 -7.757400 -31.060600
C -10.466800 -11.166900 -32.188700
N -10.169100 -11.726500 -33.339200
O -10.082500 -10.885000 -29.985000
N -9.623200 -11.306700 -31.038500
O -8.523800 -11.828300 -31.163800
O -20.499800 -14.840200 -34.619100
N -19.400400 -14.318600 -34.744500
O -18.941100 -13.896900 -35.797900
N -18.854500 -14.738400 -32.443800
C -18.556800 -14.178800 -33.594200
O -17.926300 -10.769300 -34.722300
H -17.884100 -14.246300 -29.715100
N -17.878300 -14.870400 -30.328000
N -17.847100 -14.390900 -31.604900
O -17.581400 -11.014500 -36.849900
N -17.398500 -11.261500 -35.686700
C -17.334200 -13.478300 -33.533700
C -16.910600 -13.628800 -32.249200
N -16.846400 -15.845600 -30.096300
O -16.663500 -16.092600 -28.933000
N -16.397800 -12.716200 -34.178000
N -16.366500 -12.236700 -35.454900
H -16.360800 -12.860800 -36.067800
O -16.318600 -16.337800 -31.060600
C -15.688000 -12.928300 -32.188700
N -15.390400 -12.368700 -33.339200
O -15.303800 -13.210200 -29.985000
N -14.844400 -12.788500 -31.038500
O -13.745100 -12.266900 -31.163800
