24
Fragment
O -15.278500 -9.255000 -34.619100
N -14.179200 -9.776600 -34.744500
O -13.719800 -10.198300 -35.797900
N -13.633200 -9.356800 -32.443800
C -13.335600 -9.916400 -33.594200
O -12.705000 -13.325900 -34.722300
H -12.662800 -9.848900 -29.715100
N -12.657100 -9.224800 -30.328000
N -12.625800 -9.704300 -31.604900
O -12.360100 -13.080700 -36.849900
N -12.177200 -12.833700 -35.686700
C -12.113000 -10.616900 -33.533700
C -11.689400 -10.466400 -32.249200
N -11.625100 -8.249600 -30.096300
O -11.442200 -8.002600 -28.933000
N -11.176500 -11.379000 -34.178000
N -11.145300 -11.858500 -35.454900
H -11.139500 -11.234400 -36.067800
O -11.097300 -7.757400 -31.060600
C -10.466800 -11.166900 -32.188700
N -10.169100 -11.726500 -33.339200
O -10.082500 -10.885000 -29.985000
N -9.623200 -11.306700 -31.038500
O -8.523800 -11.828300 -31.163800
3
Fragment
H -11.714400 -9.541700 -37.627800
O -10.990700 -9.909800 -37.590200
H -10.267000 -9.541700 -37.552700
27
Fragment
O -15.278500 -9.255000 -34.619100
N -14.179200 -9.776600 -34.744500
O -13.719800 -10.198300 -35.797900
N -13.633200 -9.356800 -32.443800
C -13.335600 -9.916400 -33.594200
O -12.705000 -13.325900 -34.722300
H -12.662800 -9.848900 -29.715100
N -12.657100 -9.224800 -30.328000
N -12.625800 -9.704300 -31.604900
O -12.360100 -13.080700 -36.849900
N -12.177200 -12.833700 -35.686700
C -12.113000 -10.616900 -33.533700
C -11.689400 -10.466400 -32.249200
N -11.625100 -8.249600 -30.096300
O -11.442200 -8.002600 -28.933000
N -11.176500 -11.379000 -34.178000
N -11.145300 -11.858500 -35.454900
H -11.139500 -11.234400 -36.067800
O -11.097300 -7.757400 -31.060600
C -10.466800 -11.166900 -32.188700
N -10.169100 -11.726500 -33.339200
O -10.082500 -10.885000 -29.985000
N -9.623200 -11.306700 -31.038500
O -8.523800 -11.828300 -31.163800
H -11.714400 -9.541700 -37.627800
O -10.990700 -9.909800 -37.590200
H -10.267000 -9.541700 -37.552700
