31
Fragment
H -25.362100 -13.929100 -13.281300
H -24.985400 -16.199800 -13.637800
H -24.814100 -15.079200 -11.082600
O -24.759300 -15.732900 -15.503000
H -24.557300 -13.418000 -10.919200
C -24.437400 -15.648400 -14.156300
H -24.403100 -12.916600 -15.078800
C -24.394600 -14.222000 -13.587300
C -24.182200 -14.344900 -11.064000
H -23.957900 -15.118500 -16.096500
N -23.901400 -18.424400 -13.875500
O -23.834600 -13.329500 -14.510600
C -23.466400 -14.359700 -12.376500
N -23.435600 -19.629500 -13.937900
O -23.286600 -14.495300 -9.969100
C -23.022800 -16.116300 -13.811600
N -22.832800 -17.551500 -13.841300
H -22.810500 -13.653900 -9.990700
O -22.788200 -15.642500 -12.508800
H -22.776200 -13.644000 -12.441900
H -22.313900 -15.698500 -14.432600
H -22.245400 -22.097800 -14.365800
C -22.072400 -19.571500 -13.934900
C -21.675100 -18.245500 -13.874000
N -21.300100 -21.844200 -14.132500
C -21.044900 -20.547600 -14.024800
H -20.738400 -22.441900 -14.172600
N -20.419800 -17.786400 -13.843600
N -19.786200 -20.101400 -13.983200
C -19.553300 -18.787100 -13.887400
H -18.666200 -18.598400 -13.868100
31
Fragment
H -24.146200 -20.721600 -17.582100
C -23.259200 -20.532900 -17.601400
N -23.026300 -19.218600 -17.697200
N -22.392600 -21.533600 -17.557600
H -22.074100 -16.878100 -17.886600
C -21.767600 -18.772400 -17.738800
N -21.512400 -17.475800 -17.846500
C -21.137400 -21.074500 -17.588000
C -20.740100 -19.748500 -17.648900
H -20.567100 -17.222200 -18.079800
H -20.498600 -23.621500 -18.146600
H -20.036200 -25.676000 -16.155900
O -20.024300 -23.677500 -16.222800
H -20.002000 -25.666100 -13.704700
N -19.979700 -21.768500 -17.555300
C -19.789600 -23.203700 -17.525600
O -19.525900 -24.824700 -13.683100
N -19.376900 -19.690500 -17.651900
C -19.346100 -24.960300 -16.090500
O -18.977900 -25.990500 -18.224600
N -18.911100 -20.895600 -17.589500
H -18.854600 -24.201500 -19.810500
C -18.630300 -24.975100 -14.778000
C -18.417900 -25.098000 -17.301300
H -18.409400 -26.403400 -18.792800
C -18.375100 -23.671600 -17.870300
H -18.255300 -25.902100 -14.633200
O -18.053200 -23.587100 -19.217000
H -17.998400 -24.240800 -14.796600
H -17.827100 -23.120200 -17.351800
H -17.450400 -25.390900 -16.995300
62
Fragment
H -25.362100 -13.929100 -13.281300
H -24.985400 -16.199800 -13.637800
H -24.814100 -15.079200 -11.082600
O -24.759300 -15.732900 -15.503000
H -24.557300 -13.418000 -10.919200
C -24.437400 -15.648400 -14.156300
H -24.403100 -12.916600 -15.078800
C -24.394600 -14.222000 -13.587300
C -24.182200 -14.344900 -11.064000
H -23.957900 -15.118500 -16.096500
N -23.901400 -18.424400 -13.875500
O -23.834600 -13.329500 -14.510600
C -23.466400 -14.359700 -12.376500
N -23.435600 -19.629500 -13.937900
O -23.286600 -14.495300 -9.969100
C -23.022800 -16.116300 -13.811600
N -22.832800 -17.551500 -13.841300
H -22.810500 -13.653900 -9.990700
O -22.788200 -15.642500 -12.508800
H -22.776200 -13.644000 -12.441900
H -22.313900 -15.698500 -14.432600
H -22.245400 -22.097800 -14.365800
C -22.072400 -19.571500 -13.934900
C -21.675100 -18.245500 -13.874000
N -21.300100 -21.844200 -14.132500
C -21.044900 -20.547600 -14.024800
H -20.738400 -22.441900 -14.172600
N -20.419800 -17.786400 -13.843600
N -19.786200 -20.101400 -13.983200
C -19.553300 -18.787100 -13.887400
H -18.666200 -18.598400 -13.868100
H -24.146200 -20.721600 -17.582100
C -23.259200 -20.532900 -17.601400
N -23.026300 -19.218600 -17.697200
N -22.392600 -21.533600 -17.557600
H -22.074100 -16.878100 -17.886600
C -21.767600 -18.772400 -17.738800
N -21.512400 -17.475800 -17.846500
C -21.137400 -21.074500 -17.588000
C -20.740100 -19.748500 -17.648900
H -20.567100 -17.222200 -18.079800
H -20.498600 -23.621500 -18.146600
H -20.036200 -25.676000 -16.155900
O -20.024300 -23.677500 -16.222800
H -20.002000 -25.666100 -13.704700
N -19.979700 -21.768500 -17.555300
C -19.789600 -23.203700 -17.525600
O -19.525900 -24.824700 -13.683100
N -19.376900 -19.690500 -17.651900
C -19.346100 -24.960300 -16.090500
O -18.977900 -25.990500 -18.224600
N -18.911100 -20.895600 -17.589500
H -18.854600 -24.201500 -19.810500
C -18.630300 -24.975100 -14.778000
C -18.417900 -25.098000 -17.301300
H -18.409400 -26.403400 -18.792800
C -18.375100 -23.671600 -17.870300
H -18.255300 -25.902100 -14.633200
O -18.053200 -23.587100 -19.217000
H -17.998400 -24.240800 -14.796600
H -17.827100 -23.120200 -17.351800
H -17.450400 -25.390900 -16.995300
