31
Fragment
H -25.362100 -13.929100 -13.281300
H -24.985400 -16.199800 -13.637800
H -24.814100 -15.079200 -11.082600
O -24.759300 -15.732900 -15.503000
H -24.557300 -13.418000 -10.919200
C -24.437400 -15.648400 -14.156300
H -24.403100 -12.916600 -15.078800
C -24.394600 -14.222000 -13.587300
C -24.182200 -14.344900 -11.064000
H -23.957900 -15.118500 -16.096500
N -23.901400 -18.424400 -13.875500
O -23.834600 -13.329500 -14.510600
C -23.466400 -14.359700 -12.376500
N -23.435600 -19.629500 -13.937900
O -23.286600 -14.495300 -9.969100
C -23.022800 -16.116300 -13.811600
N -22.832800 -17.551500 -13.841300
H -22.810500 -13.653900 -9.990700
O -22.788200 -15.642500 -12.508800
H -22.776200 -13.644000 -12.441900
H -22.313900 -15.698500 -14.432600
H -22.245400 -22.097800 -14.365800
C -22.072400 -19.571500 -13.934900
C -21.675100 -18.245500 -13.874000
N -21.300100 -21.844200 -14.132500
C -21.044900 -20.547600 -14.024800
H -20.738400 -22.441900 -14.172600
N -20.419800 -17.786400 -13.843600
N -19.786200 -20.101400 -13.983200
C -19.553300 -18.787100 -13.887400
H -18.666200 -18.598400 -13.868100
31
Fragment
H -16.799600 -20.475900 -16.430700
H -16.422900 -18.205200 -16.074200
H -16.251600 -19.325800 -18.629400
O -16.196800 -18.672100 -14.209000
H -15.994800 -20.987000 -18.792800
C -15.874900 -18.756600 -15.555700
H -15.840600 -21.488400 -14.633200
C -15.832100 -20.183000 -16.124700
C -15.619700 -20.060100 -18.648000
H -15.395400 -19.286500 -13.615500
N -15.338900 -15.980600 -15.836500
O -15.272100 -21.075500 -15.201400
C -14.903900 -20.045300 -17.335500
N -14.873100 -14.775500 -15.774100
O -14.724100 -19.909700 -19.742900
C -14.460300 -18.288700 -15.900400
N -14.270300 -16.853500 -15.870700
H -14.248000 -20.751100 -19.721300
O -14.225700 -18.762500 -17.203200
H -14.213800 -20.761000 -17.270100
H -13.751400 -18.706500 -15.279400
H -13.682900 -12.307200 -15.346200
C -13.509900 -14.833500 -15.777100
C -13.112600 -16.159500 -15.838000
N -12.737600 -12.560800 -15.579500
C -12.482400 -13.857400 -15.687200
H -12.175900 -11.963100 -15.539400
N -11.857400 -16.618600 -15.868400
N -11.223700 -14.303600 -15.728800
C -10.990800 -15.617900 -15.824600
H -10.103800 -15.806600 -15.843900
62
Fragment
H -25.362100 -13.929100 -13.281300
H -24.985400 -16.199800 -13.637800
H -24.814100 -15.079200 -11.082600
O -24.759300 -15.732900 -15.503000
H -24.557300 -13.418000 -10.919200
C -24.437400 -15.648400 -14.156300
H -24.403100 -12.916600 -15.078800
C -24.394600 -14.222000 -13.587300
C -24.182200 -14.344900 -11.064000
H -23.957900 -15.118500 -16.096500
N -23.901400 -18.424400 -13.875500
O -23.834600 -13.329500 -14.510600
C -23.466400 -14.359700 -12.376500
N -23.435600 -19.629500 -13.937900
O -23.286600 -14.495300 -9.969100
C -23.022800 -16.116300 -13.811600
N -22.832800 -17.551500 -13.841300
H -22.810500 -13.653900 -9.990700
O -22.788200 -15.642500 -12.508800
H -22.776200 -13.644000 -12.441900
H -22.313900 -15.698500 -14.432600
H -22.245400 -22.097800 -14.365800
C -22.072400 -19.571500 -13.934900
C -21.675100 -18.245500 -13.874000
N -21.300100 -21.844200 -14.132500
C -21.044900 -20.547600 -14.024800
H -20.738400 -22.441900 -14.172600
N -20.419800 -17.786400 -13.843600
N -19.786200 -20.101400 -13.983200
C -19.553300 -18.787100 -13.887400
H -18.666200 -18.598400 -13.868100
H -16.799600 -20.475900 -16.430700
H -16.422900 -18.205200 -16.074200
H -16.251600 -19.325800 -18.629400
O -16.196800 -18.672100 -14.209000
H -15.994800 -20.987000 -18.792800
C -15.874900 -18.756600 -15.555700
H -15.840600 -21.488400 -14.633200
C -15.832100 -20.183000 -16.124700
C -15.619700 -20.060100 -18.648000
H -15.395400 -19.286500 -13.615500
N -15.338900 -15.980600 -15.836500
O -15.272100 -21.075500 -15.201400
C -14.903900 -20.045300 -17.335500
N -14.873100 -14.775500 -15.774100
O -14.724100 -19.909700 -19.742900
C -14.460300 -18.288700 -15.900400
N -14.270300 -16.853500 -15.870700
H -14.248000 -20.751100 -19.721300
O -14.225700 -18.762500 -17.203200
H -14.213800 -20.761000 -17.270100
H -13.751400 -18.706500 -15.279400
H -13.682900 -12.307200 -15.346200
C -13.509900 -14.833500 -15.777100
C -13.112600 -16.159500 -15.838000
N -12.737600 -12.560800 -15.579500
C -12.482400 -13.857400 -15.687200
H -12.175900 -11.963100 -15.539400
N -11.857400 -16.618600 -15.868400
N -11.223700 -14.303600 -15.728800
C -10.990800 -15.617900 -15.824600
H -10.103800 -15.806600 -15.843900
