22
Fragment
H -8.872700 -11.911200 -26.323000
H -8.175400 -11.025300 -24.302500
C -8.140000 -12.297100 -25.899100
C -7.726400 -11.750400 -24.674300
N -7.553400 -13.326400 -26.489600
C -6.649000 -12.306100 -24.036100
C -6.496400 -13.893800 -25.852900
N -6.383700 -15.508900 -27.629600
H -6.346100 -11.955000 -23.230200
H -6.161600 -16.904700 -28.967100
C -6.004900 -13.416100 -24.615900
C -5.852700 -15.033800 -26.475600
C -5.786300 -16.551700 -28.192800
C -4.880600 -14.058400 -24.004700
C -4.714600 -15.599700 -25.861600
C -4.618700 -17.154100 -27.689000
H -4.579600 -13.758700 -23.177800
C -4.248700 -15.091400 -24.604100
H -4.221600 -17.866500 -28.135500
C -4.080200 -16.669900 -26.526800
H -3.504900 -15.475700 -24.197800
H -3.302300 -17.043200 -26.179400
23
Fragment
H -13.870400 -15.101500 -34.017500
H -13.855100 -16.576900 -36.072400
C -13.177600 -15.654400 -34.299400
C -13.176700 -16.475200 -35.443600
O -12.087400 -18.300700 -37.314900
H -11.984500 -14.513600 -32.095700
C -11.969000 -15.821500 -33.680800
C -11.964300 -17.084600 -35.423700
H -11.680400 -13.999800 -29.966100
C -11.480400 -15.191100 -32.484100
N -11.414800 -18.038000 -36.312100
O -11.195100 -16.714300 -34.369400
H -10.854800 -12.998500 -30.870900
C -10.789400 -13.732700 -30.240400
N -10.368300 -15.533800 -31.933300
O -10.324500 -18.541200 -36.051900
O -10.131800 -12.429400 -28.300200
N -10.053300 -14.847100 -30.801600
C -9.932900 -13.363000 -29.050100
C -8.910500 -15.141800 -30.082000
N -8.896200 -14.252600 -29.006200
H -8.301500 -14.263600 -28.385300
O -8.079100 -15.976000 -30.339100
45
Fragment
H -8.872700 -11.911200 -26.323000
H -8.175400 -11.025300 -24.302500
C -8.140000 -12.297100 -25.899100
C -7.726400 -11.750400 -24.674300
N -7.553400 -13.326400 -26.489600
C -6.649000 -12.306100 -24.036100
C -6.496400 -13.893800 -25.852900
N -6.383700 -15.508900 -27.629600
H -6.346100 -11.955000 -23.230200
H -6.161600 -16.904700 -28.967100
C -6.004900 -13.416100 -24.615900
C -5.852700 -15.033800 -26.475600
C -5.786300 -16.551700 -28.192800
C -4.880600 -14.058400 -24.004700
C -4.714600 -15.599700 -25.861600
C -4.618700 -17.154100 -27.689000
H -4.579600 -13.758700 -23.177800
C -4.248700 -15.091400 -24.604100
H -4.221600 -17.866500 -28.135500
C -4.080200 -16.669900 -26.526800
H -3.504900 -15.475700 -24.197800
H -3.302300 -17.043200 -26.179400
H -13.870400 -15.101500 -34.017500
H -13.855100 -16.576900 -36.072400
C -13.177600 -15.654400 -34.299400
C -13.176700 -16.475200 -35.443600
O -12.087400 -18.300700 -37.314900
H -11.984500 -14.513600 -32.095700
C -11.969000 -15.821500 -33.680800
C -11.964300 -17.084600 -35.423700
H -11.680400 -13.999800 -29.966100
C -11.480400 -15.191100 -32.484100
N -11.414800 -18.038000 -36.312100
O -11.195100 -16.714300 -34.369400
H -10.854800 -12.998500 -30.870900
C -10.789400 -13.732700 -30.240400
N -10.368300 -15.533800 -31.933300
O -10.324500 -18.541200 -36.051900
O -10.131800 -12.429400 -28.300200
N -10.053300 -14.847100 -30.801600
C -9.932900 -13.363000 -29.050100
C -8.910500 -15.141800 -30.082000
N -8.896200 -14.252600 -29.006200
H -8.301500 -14.263600 -28.385300
O -8.079100 -15.976000 -30.339100
