20
Fragment
H -6.783300 -20.120000 -25.131500
H -6.717200 -19.205600 -23.019600
C -6.548700 -20.651900 -24.405600
H -6.541500 -17.678300 -19.132000
C -6.500900 -20.119100 -23.123700
N -6.385000 -19.075000 -20.499600
C -6.329900 -18.575000 -19.254900
H -6.271500 -22.378500 -25.427700
C -6.240800 -21.990000 -24.582900
C -6.137900 -20.930900 -22.054400
C -6.076600 -20.383300 -20.666800
C -5.973800 -19.324200 -18.138300
H -5.943100 -18.935700 -17.293500
C -5.884700 -22.739200 -23.466300
N -5.829500 -22.239200 -22.221600
C -5.713700 -21.195100 -19.597500
H -5.673100 -23.635900 -23.589200
C -5.665800 -20.662300 -18.315600
H -5.497400 -22.108600 -19.701600
H -5.431200 -21.194200 -17.589700
23
Fragment
H -8.212900 -26.487900 -28.982100
H -7.919400 -24.580600 -30.633900
C -7.915900 -25.626100 -28.800400
O -7.841000 -26.894900 -26.230200
C -7.752200 -24.557300 -29.719000
C -7.543800 -25.115500 -27.600200
N -7.509100 -25.707300 -26.303300
H -7.406300 -19.702700 -30.759300
C -7.300200 -23.486200 -28.997700
O -7.166200 -23.815400 -27.669200
O -7.163600 -25.018400 -25.348900
H -7.035400 -21.925400 -30.324900
C -6.984800 -22.147400 -29.422800
N -6.633800 -21.256800 -28.563800
C -6.497400 -19.585000 -30.441800
N -6.355200 -20.024900 -29.065400
O -6.139600 -17.304000 -31.234200
C -6.134100 -18.113500 -30.332600
C -5.967100 -19.007600 -28.217400
H -5.887800 -20.058000 -31.029800
N -5.820300 -17.873800 -29.020400
O -5.789400 -19.069400 -27.025400
H -5.560600 -17.109600 -28.724300
43
Fragment
H -6.783300 -20.120000 -25.131500
H -6.717200 -19.205600 -23.019600
C -6.548700 -20.651900 -24.405600
H -6.541500 -17.678300 -19.132000
C -6.500900 -20.119100 -23.123700
N -6.385000 -19.075000 -20.499600
C -6.329900 -18.575000 -19.254900
H -6.271500 -22.378500 -25.427700
C -6.240800 -21.990000 -24.582900
C -6.137900 -20.930900 -22.054400
C -6.076600 -20.383300 -20.666800
C -5.973800 -19.324200 -18.138300
H -5.943100 -18.935700 -17.293500
C -5.884700 -22.739200 -23.466300
N -5.829500 -22.239200 -22.221600
C -5.713700 -21.195100 -19.597500
H -5.673100 -23.635900 -23.589200
C -5.665800 -20.662300 -18.315600
H -5.497400 -22.108600 -19.701600
H -5.431200 -21.194200 -17.589700
H -8.212900 -26.487900 -28.982100
H -7.919400 -24.580600 -30.633900
C -7.915900 -25.626100 -28.800400
O -7.841000 -26.894900 -26.230200
C -7.752200 -24.557300 -29.719000
C -7.543800 -25.115500 -27.600200
N -7.509100 -25.707300 -26.303300
H -7.406300 -19.702700 -30.759300
C -7.300200 -23.486200 -28.997700
O -7.166200 -23.815400 -27.669200
O -7.163600 -25.018400 -25.348900
H -7.035400 -21.925400 -30.324900
C -6.984800 -22.147400 -29.422800
N -6.633800 -21.256800 -28.563800
C -6.497400 -19.585000 -30.441800
N -6.355200 -20.024900 -29.065400
O -6.139600 -17.304000 -31.234200
C -6.134100 -18.113500 -30.332600
C -5.967100 -19.007600 -28.217400
H -5.887800 -20.058000 -31.029800
N -5.820300 -17.873800 -29.020400
O -5.789400 -19.069400 -27.025400
H -5.560600 -17.109600 -28.724300
