22
Fragment
H -8.872700 -11.911200 -26.323000
H -8.175400 -11.025300 -24.302500
C -8.140000 -12.297100 -25.899100
C -7.726400 -11.750400 -24.674300
N -7.553400 -13.326400 -26.489600
C -6.649000 -12.306100 -24.036100
C -6.496400 -13.893800 -25.852900
N -6.383700 -15.508900 -27.629600
H -6.346100 -11.955000 -23.230200
H -6.161600 -16.904700 -28.967100
C -6.004900 -13.416100 -24.615900
C -5.852700 -15.033800 -26.475600
C -5.786300 -16.551700 -28.192800
C -4.880600 -14.058400 -24.004700
C -4.714600 -15.599700 -25.861600
C -4.618700 -17.154100 -27.689000
H -4.579600 -13.758700 -23.177800
C -4.248700 -15.091400 -24.604100
H -4.221600 -17.866500 -28.135500
C -4.080200 -16.669900 -26.526800
H -3.504900 -15.475700 -24.197800
H -3.302300 -17.043200 -26.179400
23
Fragment
O -9.431200 -19.795200 -29.482400
H -9.208800 -21.507500 -31.436200
N -8.614100 -21.518500 -30.815200
C -8.599800 -20.629300 -29.739500
C -7.577400 -22.408100 -30.771400
N -7.456900 -20.924000 -29.019900
O -7.378500 -23.341800 -31.521300
O -7.185700 -17.230000 -23.769600
N -7.142000 -20.237300 -27.888200
C -6.720900 -22.038500 -29.581100
H -6.655500 -22.772600 -28.950600
O -6.315200 -19.056900 -25.452100
N -6.095500 -17.733200 -23.509400
C -6.029800 -20.580000 -27.337400
H -5.829900 -21.771300 -29.855400
C -5.545900 -18.686500 -24.397700
C -5.541300 -19.949600 -26.140600
H -5.525800 -21.257500 -27.725800
O -5.422800 -17.470400 -22.506600
C -4.333600 -19.295900 -24.377900
C -4.332700 -20.116700 -25.522100
H -3.655200 -19.194300 -23.749100
H -3.639900 -20.669600 -25.804000
45
Fragment
H -8.872700 -11.911200 -26.323000
H -8.175400 -11.025300 -24.302500
C -8.140000 -12.297100 -25.899100
C -7.726400 -11.750400 -24.674300
N -7.553400 -13.326400 -26.489600
C -6.649000 -12.306100 -24.036100
C -6.496400 -13.893800 -25.852900
N -6.383700 -15.508900 -27.629600
H -6.346100 -11.955000 -23.230200
H -6.161600 -16.904700 -28.967100
C -6.004900 -13.416100 -24.615900
C -5.852700 -15.033800 -26.475600
C -5.786300 -16.551700 -28.192800
C -4.880600 -14.058400 -24.004700
C -4.714600 -15.599700 -25.861600
C -4.618700 -17.154100 -27.689000
H -4.579600 -13.758700 -23.177800
C -4.248700 -15.091400 -24.604100
H -4.221600 -17.866500 -28.135500
C -4.080200 -16.669900 -26.526800
H -3.504900 -15.475700 -24.197800
H -3.302300 -17.043200 -26.179400
O -9.431200 -19.795200 -29.482400
H -9.208800 -21.507500 -31.436200
N -8.614100 -21.518500 -30.815200
C -8.599800 -20.629300 -29.739500
C -7.577400 -22.408100 -30.771400
N -7.456900 -20.924000 -29.019900
O -7.378500 -23.341800 -31.521300
O -7.185700 -17.230000 -23.769600
N -7.142000 -20.237300 -27.888200
C -6.720900 -22.038500 -29.581100
H -6.655500 -22.772600 -28.950600
O -6.315200 -19.056900 -25.452100
N -6.095500 -17.733200 -23.509400
C -6.029800 -20.580000 -27.337400
H -5.829900 -21.771300 -29.855400
C -5.545900 -18.686500 -24.397700
C -5.541300 -19.949600 -26.140600
H -5.525800 -21.257500 -27.725800
O -5.422800 -17.470400 -22.506600
C -4.333600 -19.295900 -24.377900
C -4.332700 -20.116700 -25.522100
H -3.655200 -19.194300 -23.749100
H -3.639900 -20.669600 -25.804000
