20
Fragment
H -6.783300 -20.120000 -25.131500
H -6.717200 -19.205600 -23.019600
C -6.548700 -20.651900 -24.405600
H -6.541500 -17.678300 -19.132000
C -6.500900 -20.119100 -23.123700
N -6.385000 -19.075000 -20.499600
C -6.329900 -18.575000 -19.254900
H -6.271500 -22.378500 -25.427700
C -6.240800 -21.990000 -24.582900
C -6.137900 -20.930900 -22.054400
C -6.076600 -20.383300 -20.666800
C -5.973800 -19.324200 -18.138300
H -5.943100 -18.935700 -17.293500
C -5.884700 -22.739200 -23.466300
N -5.829500 -22.239200 -22.221600
C -5.713700 -21.195100 -19.597500
H -5.673100 -23.635900 -23.589200
C -5.665800 -20.662300 -18.315600
H -5.497400 -22.108600 -19.701600
H -5.431200 -21.194200 -17.589700
23
Fragment
H -4.111900 -24.204600 -28.237300
O -3.883100 -22.244800 -29.936200
N -3.852300 -23.440400 -27.941200
H -3.784700 -21.256200 -25.931800
C -3.705400 -22.306600 -28.744200
C -3.538500 -23.200700 -26.629000
O -3.532900 -24.010200 -25.727400
N -3.317300 -21.289300 -27.896200
C -3.175200 -21.729200 -26.519800
N -3.038800 -20.057400 -28.397800
C -2.687700 -19.166800 -27.538800
H -2.637100 -19.388800 -26.636700
O -2.509000 -16.295800 -31.612700
O -2.506400 -17.498800 -29.292400
C -2.372400 -17.828000 -27.963900
H -2.266300 -21.611500 -26.202300
N -2.163500 -15.606900 -30.658300
C -2.128800 -16.198700 -29.361400
C -1.920300 -16.756900 -27.242600
O -1.831600 -14.419300 -30.731400
C -1.756700 -15.688100 -28.161200
H -1.753200 -16.733600 -26.327700
H -1.459600 -14.826300 -27.979500
43
Fragment
H -6.783300 -20.120000 -25.131500
H -6.717200 -19.205600 -23.019600
C -6.548700 -20.651900 -24.405600
H -6.541500 -17.678300 -19.132000
C -6.500900 -20.119100 -23.123700
N -6.385000 -19.075000 -20.499600
C -6.329900 -18.575000 -19.254900
H -6.271500 -22.378500 -25.427700
C -6.240800 -21.990000 -24.582900
C -6.137900 -20.930900 -22.054400
C -6.076600 -20.383300 -20.666800
C -5.973800 -19.324200 -18.138300
H -5.943100 -18.935700 -17.293500
C -5.884700 -22.739200 -23.466300
N -5.829500 -22.239200 -22.221600
C -5.713700 -21.195100 -19.597500
H -5.673100 -23.635900 -23.589200
C -5.665800 -20.662300 -18.315600
H -5.497400 -22.108600 -19.701600
H -5.431200 -21.194200 -17.589700
H -4.111900 -24.204600 -28.237300
O -3.883100 -22.244800 -29.936200
N -3.852300 -23.440400 -27.941200
H -3.784700 -21.256200 -25.931800
C -3.705400 -22.306600 -28.744200
C -3.538500 -23.200700 -26.629000
O -3.532900 -24.010200 -25.727400
N -3.317300 -21.289300 -27.896200
C -3.175200 -21.729200 -26.519800
N -3.038800 -20.057400 -28.397800
C -2.687700 -19.166800 -27.538800
H -2.637100 -19.388800 -26.636700
O -2.509000 -16.295800 -31.612700
O -2.506400 -17.498800 -29.292400
C -2.372400 -17.828000 -27.963900
H -2.266300 -21.611500 -26.202300
N -2.163500 -15.606900 -30.658300
C -2.128800 -16.198700 -29.361400
C -1.920300 -16.756900 -27.242600
O -1.831600 -14.419300 -30.731400
C -1.756700 -15.688100 -28.161200
H -1.753200 -16.733600 -26.327700
H -1.459600 -14.826300 -27.979500
