22
Fragment
H -8.872700 -11.911200 -26.323000
H -8.175400 -11.025300 -24.302500
C -8.140000 -12.297100 -25.899100
C -7.726400 -11.750400 -24.674300
N -7.553400 -13.326400 -26.489600
C -6.649000 -12.306100 -24.036100
C -6.496400 -13.893800 -25.852900
N -6.383700 -15.508900 -27.629600
H -6.346100 -11.955000 -23.230200
H -6.161600 -16.904700 -28.967100
C -6.004900 -13.416100 -24.615900
C -5.852700 -15.033800 -26.475600
C -5.786300 -16.551700 -28.192800
C -4.880600 -14.058400 -24.004700
C -4.714600 -15.599700 -25.861600
C -4.618700 -17.154100 -27.689000
H -4.579600 -13.758700 -23.177800
C -4.248700 -15.091400 -24.604100
H -4.221600 -17.866500 -28.135500
C -4.080200 -16.669900 -26.526800
H -3.504900 -15.475700 -24.197800
H -3.302300 -17.043200 -26.179400
23
Fragment
H -9.492800 -6.158700 -19.062100
H -9.477500 -7.634100 -21.117000
C -8.800000 -6.711600 -19.344000
C -8.799200 -7.532400 -20.488300
O -7.709900 -9.357900 -22.359500
H -7.606900 -5.570800 -17.140400
C -7.591400 -6.878800 -18.725500
C -7.586800 -8.141800 -20.468400
H -7.302900 -5.057000 -15.010700
C -7.102900 -6.248300 -17.528700
N -7.037200 -9.095200 -21.356700
O -6.817500 -7.771500 -19.414000
H -6.477200 -4.055700 -15.915500
C -6.411800 -4.789900 -15.285000
N -5.990700 -6.591000 -16.977900
O -5.947000 -9.598400 -21.096500
O -5.754200 -3.486600 -13.344800
N -5.675800 -5.904400 -15.846300
C -5.555300 -4.420300 -14.094700
C -4.532900 -6.199000 -15.126600
N -4.518700 -5.309800 -14.050900
H -3.923900 -5.320900 -13.429900
O -3.701500 -7.033200 -15.383700
45
Fragment
H -8.872700 -11.911200 -26.323000
H -8.175400 -11.025300 -24.302500
C -8.140000 -12.297100 -25.899100
C -7.726400 -11.750400 -24.674300
N -7.553400 -13.326400 -26.489600
C -6.649000 -12.306100 -24.036100
C -6.496400 -13.893800 -25.852900
N -6.383700 -15.508900 -27.629600
H -6.346100 -11.955000 -23.230200
H -6.161600 -16.904700 -28.967100
C -6.004900 -13.416100 -24.615900
C -5.852700 -15.033800 -26.475600
C -5.786300 -16.551700 -28.192800
C -4.880600 -14.058400 -24.004700
C -4.714600 -15.599700 -25.861600
C -4.618700 -17.154100 -27.689000
H -4.579600 -13.758700 -23.177800
C -4.248700 -15.091400 -24.604100
H -4.221600 -17.866500 -28.135500
C -4.080200 -16.669900 -26.526800
H -3.504900 -15.475700 -24.197800
H -3.302300 -17.043200 -26.179400
H -9.492800 -6.158700 -19.062100
H -9.477500 -7.634100 -21.117000
C -8.800000 -6.711600 -19.344000
C -8.799200 -7.532400 -20.488300
O -7.709900 -9.357900 -22.359500
H -7.606900 -5.570800 -17.140400
C -7.591400 -6.878800 -18.725500
C -7.586800 -8.141800 -20.468400
H -7.302900 -5.057000 -15.010700
C -7.102900 -6.248300 -17.528700
N -7.037200 -9.095200 -21.356700
O -6.817500 -7.771500 -19.414000
H -6.477200 -4.055700 -15.915500
C -6.411800 -4.789900 -15.285000
N -5.990700 -6.591000 -16.977900
O -5.947000 -9.598400 -21.096500
O -5.754200 -3.486600 -13.344800
N -5.675800 -5.904400 -15.846300
C -5.555300 -4.420300 -14.094700
C -4.532900 -6.199000 -15.126600
N -4.518700 -5.309800 -14.050900
H -3.923900 -5.320900 -13.429900
O -3.701500 -7.033200 -15.383700
