3
Fragment
H -2.596600 -17.993600 -25.001700
O -1.697800 -18.319900 -25.219000
H -1.668500 -18.347300 -26.038700
15
Fragment
O -2.922200 -17.358000 -27.829400
H -2.590600 -19.397000 -28.836700
C -2.409700 -17.576000 -28.928900
N -2.276300 -18.842500 -29.427600
C -1.942000 -16.592400 -29.875300
N -1.914300 -15.256300 -29.816100
C -1.739900 -19.180200 -30.676900
H -1.723400 -21.268200 -30.449800
N -1.683900 -20.470700 -30.964900
C -1.414800 -17.016900 -31.086700
N -1.367000 -14.805600 -30.920500
N -1.279600 -18.283400 -31.539400
H -1.209100 -20.903100 -31.799400
N -1.075200 -15.881600 -31.718800
H -0.793100 -15.780000 -32.359000
18
Fragment
H -2.596600 -17.993600 -25.001700
O -1.697800 -18.319900 -25.219000
H -1.668500 -18.347300 -26.038700
O -2.922200 -17.358000 -27.829400
H -2.590600 -19.397000 -28.836700
C -2.409700 -17.576000 -28.928900
N -2.276300 -18.842500 -29.427600
C -1.942000 -16.592400 -29.875300
N -1.914300 -15.256300 -29.816100
C -1.739900 -19.180200 -30.676900
H -1.723400 -21.268200 -30.449800
N -1.683900 -20.470700 -30.964900
C -1.414800 -17.016900 -31.086700
N -1.367000 -14.805600 -30.920500
N -1.279600 -18.283400 -31.539400
H -1.209100 -20.903100 -31.799400
N -1.075200 -15.881600 -31.718800
H -0.793100 -15.780000 -32.359000
