27
Fragment
H -7.196400 -5.636900 -16.516900
H -7.087700 -6.382900 -18.690200
O -6.468400 -4.752500 -14.301800
C -6.383300 -5.618200 -16.967000
C -6.319300 -6.070100 -18.270700
H -5.827000 -6.680300 -20.369500
C -5.389900 -4.675700 -14.906700
H -5.357700 -2.990400 -10.587600
C -5.245400 -5.135000 -16.313500
C -5.124000 -6.058400 -18.952300
O -4.997100 -6.500100 -20.225700
H -4.844900 -2.055400 -8.470900
N -4.579900 -2.704500 -10.356700
N -4.429000 -3.720400 -13.011400
N -4.296200 -4.166300 -14.309100
C -4.249200 -2.170200 -9.175800
C -4.050900 -5.134300 -17.011700
C -3.980100 -5.595400 -18.313200
H -3.542800 -4.120900 -14.721900
C -3.450400 -2.711300 -11.127900
C -3.385100 -3.214400 -12.480000
H -3.280200 -4.818500 -16.597300
H -3.165900 -5.594700 -18.761900
N -2.984400 -1.828600 -9.129500
H -2.589100 -3.169700 -12.959600
C -2.468300 -2.158000 -10.354200
H -1.586500 -2.025400 -10.619100
27
Fragment
H -3.991900 -6.516800 -27.090700
C -3.110100 -6.384200 -27.355500
H -2.989300 -5.372500 -24.750200
N -2.594000 -6.713600 -28.580200
H -2.412500 -2.947500 -18.947900
H -2.298200 -3.723600 -21.112400
C -2.193400 -5.327700 -25.229700
C -2.128000 -5.830800 -26.581800
H -2.035600 -4.421300 -22.987900
C -1.598300 -2.946800 -19.396500
C -1.527500 -3.407900 -20.698000
C -1.329200 -6.371900 -28.534000
N -1.282200 -4.375900 -23.400700
N -1.149400 -4.821800 -24.698400
N -0.998500 -5.837700 -27.353000
H -0.733500 -6.486800 -29.238900
O -0.581300 -2.042100 -17.484000
C -0.454400 -2.483700 -18.757500
C -0.333000 -3.407200 -21.396300
H -0.220800 -5.551800 -27.122100
C -0.188500 -3.866500 -22.803100
H 0.248600 -1.861900 -17.340200
C 0.740900 -2.472000 -19.439000
C 0.804900 -2.923900 -20.742700
O 0.890000 -3.789700 -23.407900
H 1.509200 -2.159300 -19.019500
H 1.618000 -2.905300 -21.192900
54
Fragment
H -7.196400 -5.636900 -16.516900
H -7.087700 -6.382900 -18.690200
O -6.468400 -4.752500 -14.301800
C -6.383300 -5.618200 -16.967000
C -6.319300 -6.070100 -18.270700
H -5.827000 -6.680300 -20.369500
C -5.389900 -4.675700 -14.906700
H -5.357700 -2.990400 -10.587600
C -5.245400 -5.135000 -16.313500
C -5.124000 -6.058400 -18.952300
O -4.997100 -6.500100 -20.225700
H -4.844900 -2.055400 -8.470900
N -4.579900 -2.704500 -10.356700
N -4.429000 -3.720400 -13.011400
N -4.296200 -4.166300 -14.309100
C -4.249200 -2.170200 -9.175800
C -4.050900 -5.134300 -17.011700
C -3.980100 -5.595400 -18.313200
H -3.542800 -4.120900 -14.721900
C -3.450400 -2.711300 -11.127900
C -3.385100 -3.214400 -12.480000
H -3.280200 -4.818500 -16.597300
H -3.165900 -5.594700 -18.761900
N -2.984400 -1.828600 -9.129500
H -2.589100 -3.169700 -12.959600
C -2.468300 -2.158000 -10.354200
H -1.586500 -2.025400 -10.619100
H -3.991900 -6.516800 -27.090700
C -3.110100 -6.384200 -27.355500
H -2.989300 -5.372500 -24.750200
N -2.594000 -6.713600 -28.580200
H -2.412500 -2.947500 -18.947900
H -2.298200 -3.723600 -21.112400
C -2.193400 -5.327700 -25.229700
C -2.128000 -5.830800 -26.581800
H -2.035600 -4.421300 -22.987900
C -1.598300 -2.946800 -19.396500
C -1.527500 -3.407900 -20.698000
C -1.329200 -6.371900 -28.534000
N -1.282200 -4.375900 -23.400700
N -1.149400 -4.821800 -24.698400
N -0.998500 -5.837700 -27.353000
H -0.733500 -6.486800 -29.238900
O -0.581300 -2.042100 -17.484000
C -0.454400 -2.483700 -18.757500
C -0.333000 -3.407200 -21.396300
H -0.220800 -5.551800 -27.122100
C -0.188500 -3.866500 -22.803100
H 0.248600 -1.861900 -17.340200
C 0.740900 -2.472000 -19.439000
C 0.804900 -2.923900 -20.742700
O 0.890000 -3.789700 -23.407900
H 1.509200 -2.159300 -19.019500
H 1.618000 -2.905300 -21.192900
