27
Fragment
H -7.196400 -5.636900 -16.516900
H -7.087700 -6.382900 -18.690200
O -6.468400 -4.752500 -14.301800
C -6.383300 -5.618200 -16.967000
C -6.319300 -6.070100 -18.270700
H -5.827000 -6.680300 -20.369500
C -5.389900 -4.675700 -14.906700
H -5.357700 -2.990400 -10.587600
C -5.245400 -5.135000 -16.313500
C -5.124000 -6.058400 -18.952300
O -4.997100 -6.500100 -20.225700
H -4.844900 -2.055400 -8.470900
N -4.579900 -2.704500 -10.356700
N -4.429000 -3.720400 -13.011400
N -4.296200 -4.166300 -14.309100
C -4.249200 -2.170200 -9.175800
C -4.050900 -5.134300 -17.011700
C -3.980100 -5.595400 -18.313200
H -3.542800 -4.120900 -14.721900
C -3.450400 -2.711300 -11.127900
C -3.385100 -3.214400 -12.480000
H -3.280200 -4.818500 -16.597300
H -3.165900 -5.594700 -18.761900
N -2.984400 -1.828600 -9.129500
H -2.589100 -3.169700 -12.959600
C -2.468300 -2.158000 -10.354200
H -1.586500 -2.025400 -10.619100
3
Fragment
O -8.736000 -3.419600 -15.294900
H -8.547000 -2.995400 -16.035400
H -8.038800 -3.798300 -14.954400
30
Fragment
H -7.196400 -5.636900 -16.516900
H -7.087700 -6.382900 -18.690200
O -6.468400 -4.752500 -14.301800
C -6.383300 -5.618200 -16.967000
C -6.319300 -6.070100 -18.270700
H -5.827000 -6.680300 -20.369500
C -5.389900 -4.675700 -14.906700
H -5.357700 -2.990400 -10.587600
C -5.245400 -5.135000 -16.313500
C -5.124000 -6.058400 -18.952300
O -4.997100 -6.500100 -20.225700
H -4.844900 -2.055400 -8.470900
N -4.579900 -2.704500 -10.356700
N -4.429000 -3.720400 -13.011400
N -4.296200 -4.166300 -14.309100
C -4.249200 -2.170200 -9.175800
C -4.050900 -5.134300 -17.011700
C -3.980100 -5.595400 -18.313200
H -3.542800 -4.120900 -14.721900
C -3.450400 -2.711300 -11.127900
C -3.385100 -3.214400 -12.480000
H -3.280200 -4.818500 -16.597300
H -3.165900 -5.594700 -18.761900
N -2.984400 -1.828600 -9.129500
H -2.589100 -3.169700 -12.959600
C -2.468300 -2.158000 -10.354200
H -1.586500 -2.025400 -10.619100
O -8.736000 -3.419600 -15.294900
H -8.547000 -2.995400 -16.035400
H -8.038800 -3.798300 -14.954400
