27
Fragment
H -7.196400 -5.636900 -16.516900
H -7.087700 -6.382900 -18.690200
O -6.468400 -4.752500 -14.301800
C -6.383300 -5.618200 -16.967000
C -6.319300 -6.070100 -18.270700
H -5.827000 -6.680300 -20.369500
C -5.389900 -4.675700 -14.906700
H -5.357700 -2.990400 -10.587600
C -5.245400 -5.135000 -16.313500
C -5.124000 -6.058400 -18.952300
O -4.997100 -6.500100 -20.225700
H -4.844900 -2.055400 -8.470900
N -4.579900 -2.704500 -10.356700
N -4.429000 -3.720400 -13.011400
N -4.296200 -4.166300 -14.309100
C -4.249200 -2.170200 -9.175800
C -4.050900 -5.134300 -17.011700
C -3.980100 -5.595400 -18.313200
H -3.542800 -4.120900 -14.721900
C -3.450400 -2.711300 -11.127900
C -3.385100 -3.214400 -12.480000
H -3.280200 -4.818500 -16.597300
H -3.165900 -5.594700 -18.761900
N -2.984400 -1.828600 -9.129500
H -2.589100 -3.169700 -12.959600
C -2.468300 -2.158000 -10.354200
H -1.586500 -2.025400 -10.619100
27
Fragment
H -3.089400 -0.334000 -3.947000
H -2.980600 -1.079900 -6.120300
O -2.361400 0.550400 -1.731900
C -2.276300 -0.315300 -4.397100
C -2.212300 -0.767200 -5.700800
H -1.720000 -1.377400 -7.799600
C -1.282900 0.627300 -2.336700
H -1.250600 2.312500 1.982300
C -1.138400 0.168000 -3.743600
C -1.017000 -0.755500 -6.382400
O -0.890100 -1.197100 -7.655800
H -0.737900 3.247500 4.099000
N -0.472900 2.598500 2.213200
N -0.322000 1.582600 -0.441500
N -0.189200 1.136700 -1.739200
C -0.142200 3.132700 3.394100
C 0.056100 0.168600 -4.441800
C 0.126900 -0.292500 -5.743300
H 0.564200 1.182000 -2.152000
C 0.656600 2.591600 1.442000
C 0.722000 2.088500 0.089900
H 0.826800 0.484400 -4.027400
H 0.941200 -0.291700 -6.191900
N 1.122600 3.474400 3.440400
H 1.517900 2.133300 -0.389700
C 1.638700 3.145000 2.215700
H 2.520500 3.277600 1.950900
54
Fragment
H -7.196400 -5.636900 -16.516900
H -7.087700 -6.382900 -18.690200
O -6.468400 -4.752500 -14.301800
C -6.383300 -5.618200 -16.967000
C -6.319300 -6.070100 -18.270700
H -5.827000 -6.680300 -20.369500
C -5.389900 -4.675700 -14.906700
H -5.357700 -2.990400 -10.587600
C -5.245400 -5.135000 -16.313500
C -5.124000 -6.058400 -18.952300
O -4.997100 -6.500100 -20.225700
H -4.844900 -2.055400 -8.470900
N -4.579900 -2.704500 -10.356700
N -4.429000 -3.720400 -13.011400
N -4.296200 -4.166300 -14.309100
C -4.249200 -2.170200 -9.175800
C -4.050900 -5.134300 -17.011700
C -3.980100 -5.595400 -18.313200
H -3.542800 -4.120900 -14.721900
C -3.450400 -2.711300 -11.127900
C -3.385100 -3.214400 -12.480000
H -3.280200 -4.818500 -16.597300
H -3.165900 -5.594700 -18.761900
N -2.984400 -1.828600 -9.129500
H -2.589100 -3.169700 -12.959600
C -2.468300 -2.158000 -10.354200
H -1.586500 -2.025400 -10.619100
H -3.089400 -0.334000 -3.947000
H -2.980600 -1.079900 -6.120300
O -2.361400 0.550400 -1.731900
C -2.276300 -0.315300 -4.397100
C -2.212300 -0.767200 -5.700800
H -1.720000 -1.377400 -7.799600
C -1.282900 0.627300 -2.336700
H -1.250600 2.312500 1.982300
C -1.138400 0.168000 -3.743600
C -1.017000 -0.755500 -6.382400
O -0.890100 -1.197100 -7.655800
H -0.737900 3.247500 4.099000
N -0.472900 2.598500 2.213200
N -0.322000 1.582600 -0.441500
N -0.189200 1.136700 -1.739200
C -0.142200 3.132700 3.394100
C 0.056100 0.168600 -4.441800
C 0.126900 -0.292500 -5.743300
H 0.564200 1.182000 -2.152000
C 0.656600 2.591600 1.442000
C 0.722000 2.088500 0.089900
H 0.826800 0.484400 -4.027400
H 0.941200 -0.291700 -6.191900
N 1.122600 3.474400 3.440400
H 1.517900 2.133300 -0.389700
C 1.638700 3.145000 2.215700
H 2.520500 3.277600 1.950900
