20
Fragment
H -13.597700 -12.430200 -19.646100
H -13.077600 -9.982700 -19.756600
Br -13.066300 -7.000900 -19.550100
H -13.037100 -14.804200 -19.812200
H -12.899500 -12.729700 -21.232900
C -12.656600 -12.684500 -20.167600
H -12.412000 -10.202200 -21.361300
C -12.256200 -14.060200 -19.675300
C -12.150100 -10.201400 -20.298700
H -11.943100 -14.045500 -18.631000
H -11.843400 -7.738900 -21.569700
C -11.636400 -11.583000 -19.902000
C -11.530300 -7.724200 -20.525400
H -11.374500 -11.582200 -18.839400
C -11.130000 -9.099900 -20.033100
H -10.887000 -9.054700 -18.967700
H -10.749400 -6.980200 -20.388400
Br -10.720300 -14.783500 -20.650500
H -10.708900 -11.801700 -20.444000
H -10.188800 -9.354200 -20.554600
8
Fragment
H -16.409300 -11.608400 -21.250500
N -16.323200 -12.459200 -20.713500
H -16.312800 -12.417800 -19.704200
H -16.031600 -14.768000 -19.699500
C -16.029000 -13.586100 -21.381100
O -15.972500 -13.591200 -22.646000
N -15.780100 -14.705900 -20.675700
H -15.692800 -15.567800 -21.201400
28
Fragment
H -13.597700 -12.430200 -19.646100
H -13.077600 -9.982700 -19.756600
Br -13.066300 -7.000900 -19.550100
H -13.037100 -14.804200 -19.812200
H -12.899500 -12.729700 -21.232900
C -12.656600 -12.684500 -20.167600
H -12.412000 -10.202200 -21.361300
C -12.256200 -14.060200 -19.675300
C -12.150100 -10.201400 -20.298700
H -11.943100 -14.045500 -18.631000
H -11.843400 -7.738900 -21.569700
C -11.636400 -11.583000 -19.902000
C -11.530300 -7.724200 -20.525400
H -11.374500 -11.582200 -18.839400
C -11.130000 -9.099900 -20.033100
H -10.887000 -9.054700 -18.967700
H -10.749400 -6.980200 -20.388400
Br -10.720300 -14.783500 -20.650500
H -10.708900 -11.801700 -20.444000
H -10.188800 -9.354200 -20.554600
H -16.409300 -11.608400 -21.250500
N -16.323200 -12.459200 -20.713500
H -16.312800 -12.417800 -19.704200
H -16.031600 -14.768000 -19.699500
C -16.029000 -13.586100 -21.381100
O -15.972500 -13.591200 -22.646000
N -15.780100 -14.705900 -20.675700
H -15.692800 -15.567800 -21.201400
