20
Fragment
H -13.597700 -12.430200 -19.646100
H -13.077600 -9.982700 -19.756600
Br -13.066300 -7.000900 -19.550100
H -13.037100 -14.804200 -19.812200
H -12.899500 -12.729700 -21.232900
C -12.656600 -12.684500 -20.167600
H -12.412000 -10.202200 -21.361300
C -12.256200 -14.060200 -19.675300
C -12.150100 -10.201400 -20.298700
H -11.943100 -14.045500 -18.631000
H -11.843400 -7.738900 -21.569700
C -11.636400 -11.583000 -19.902000
C -11.530300 -7.724200 -20.525400
H -11.374500 -11.582200 -18.839400
C -11.130000 -9.099900 -20.033100
H -10.887000 -9.054700 -18.967700
H -10.749400 -6.980200 -20.388400
Br -10.720300 -14.783500 -20.650500
H -10.708900 -11.801700 -20.444000
H -10.188800 -9.354200 -20.554600
8
Fragment
H -12.444900 -15.622100 -14.550400
N -12.358800 -14.771300 -14.013400
H -12.348400 -14.812700 -13.004100
H -12.067200 -12.462500 -12.999400
C -12.064600 -13.644400 -14.681000
O -12.008100 -13.639300 -15.945900
N -11.815600 -12.524600 -13.975600
H -11.728400 -11.662700 -14.501300
28
Fragment
H -13.597700 -12.430200 -19.646100
H -13.077600 -9.982700 -19.756600
Br -13.066300 -7.000900 -19.550100
H -13.037100 -14.804200 -19.812200
H -12.899500 -12.729700 -21.232900
C -12.656600 -12.684500 -20.167600
H -12.412000 -10.202200 -21.361300
C -12.256200 -14.060200 -19.675300
C -12.150100 -10.201400 -20.298700
H -11.943100 -14.045500 -18.631000
H -11.843400 -7.738900 -21.569700
C -11.636400 -11.583000 -19.902000
C -11.530300 -7.724200 -20.525400
H -11.374500 -11.582200 -18.839400
C -11.130000 -9.099900 -20.033100
H -10.887000 -9.054700 -18.967700
H -10.749400 -6.980200 -20.388400
Br -10.720300 -14.783500 -20.650500
H -10.708900 -11.801700 -20.444000
H -10.188800 -9.354200 -20.554600
H -12.444900 -15.622100 -14.550400
N -12.358800 -14.771300 -14.013400
H -12.348400 -14.812700 -13.004100
H -12.067200 -12.462500 -12.999400
C -12.064600 -13.644400 -14.681000
O -12.008100 -13.639300 -15.945900
N -11.815600 -12.524600 -13.975600
H -11.728400 -11.662700 -14.501300
