20
Fragment
H -13.597700 -12.430200 -19.646100
H -13.077600 -9.982700 -19.756600
Br -13.066300 -7.000900 -19.550100
H -13.037100 -14.804200 -19.812200
H -12.899500 -12.729700 -21.232900
C -12.656600 -12.684500 -20.167600
H -12.412000 -10.202200 -21.361300
C -12.256200 -14.060200 -19.675300
C -12.150100 -10.201400 -20.298700
H -11.943100 -14.045500 -18.631000
H -11.843400 -7.738900 -21.569700
C -11.636400 -11.583000 -19.902000
C -11.530300 -7.724200 -20.525400
H -11.374500 -11.582200 -18.839400
C -11.130000 -9.099900 -20.033100
H -10.887000 -9.054700 -18.967700
H -10.749400 -6.980200 -20.388400
Br -10.720300 -14.783500 -20.650500
H -10.708900 -11.801700 -20.444000
H -10.188800 -9.354200 -20.554600
8
Fragment
O -16.517500 -4.585500 -17.860100
H -15.420300 -6.587700 -16.934900
C -15.397200 -4.600100 -17.272500
H -15.124100 -2.607800 -17.416900
N -14.899900 -5.735700 -16.756800
N -14.668100 -3.474800 -17.171400
H -13.951400 -5.791100 -16.406400
H -13.803100 -3.445000 -16.652300
28
Fragment
H -13.597700 -12.430200 -19.646100
H -13.077600 -9.982700 -19.756600
Br -13.066300 -7.000900 -19.550100
H -13.037100 -14.804200 -19.812200
H -12.899500 -12.729700 -21.232900
C -12.656600 -12.684500 -20.167600
H -12.412000 -10.202200 -21.361300
C -12.256200 -14.060200 -19.675300
C -12.150100 -10.201400 -20.298700
H -11.943100 -14.045500 -18.631000
H -11.843400 -7.738900 -21.569700
C -11.636400 -11.583000 -19.902000
C -11.530300 -7.724200 -20.525400
H -11.374500 -11.582200 -18.839400
C -11.130000 -9.099900 -20.033100
H -10.887000 -9.054700 -18.967700
H -10.749400 -6.980200 -20.388400
Br -10.720300 -14.783500 -20.650500
H -10.708900 -11.801700 -20.444000
H -10.188800 -9.354200 -20.554600
O -16.517500 -4.585500 -17.860100
H -15.420300 -6.587700 -16.934900
C -15.397200 -4.600100 -17.272500
H -15.124100 -2.607800 -17.416900
N -14.899900 -5.735700 -16.756800
N -14.668100 -3.474800 -17.171400
H -13.951400 -5.791100 -16.406400
H -13.803100 -3.445000 -16.652300
