26
Fragment
H -12.567700 -17.925100 -33.740200
H -12.537100 -17.907600 -31.424700
H -12.514500 -14.173300 -27.140000
O -12.456200 -16.942700 -35.989300
H -12.440100 -14.143800 -29.453500
O -12.392800 -15.163100 -24.911000
C -12.274700 -17.174900 -33.275100
C -12.254300 -17.157400 -31.895900
C -12.239700 -14.924400 -27.615200
C -12.206900 -14.917000 -28.992400
N -11.867900 -16.075500 -25.490900
C -11.856300 -16.072700 -26.956700
N -11.856300 -16.059800 -35.409400
C -11.847500 -16.045100 -33.945600
C -11.826400 -16.062600 -29.707200
C -11.814700 -16.032200 -31.195200
C -11.478700 -17.225600 -27.627200
C -11.468500 -17.203500 -29.006500
C -11.416800 -14.916100 -31.912000
C -11.406600 -14.917900 -33.283200
O -11.382500 -17.043100 -24.909000
O -11.276800 -15.164000 -36.005400
H -11.239600 -17.993300 -27.160100
H -11.217800 -17.966600 -29.475600
H -11.151400 -14.150200 -31.454900
H -11.109200 -14.175100 -33.758300
8
Fragment
H -13.738300 -16.186100 -21.425700
N -12.991200 -16.169500 -21.850500
H -12.986100 -16.175000 -22.710300
C -11.838800 -16.135400 -21.176000
O -11.836600 -16.127100 -19.935700
H -10.697300 -16.105000 -22.726400
N -10.684200 -16.098500 -21.866600
H -9.933400 -16.069900 -21.447800
34
Fragment
H -12.567700 -17.925100 -33.740200
H -12.537100 -17.907600 -31.424700
H -12.514500 -14.173300 -27.140000
O -12.456200 -16.942700 -35.989300
H -12.440100 -14.143800 -29.453500
O -12.392800 -15.163100 -24.911000
C -12.274700 -17.174900 -33.275100
C -12.254300 -17.157400 -31.895900
C -12.239700 -14.924400 -27.615200
C -12.206900 -14.917000 -28.992400
N -11.867900 -16.075500 -25.490900
C -11.856300 -16.072700 -26.956700
N -11.856300 -16.059800 -35.409400
C -11.847500 -16.045100 -33.945600
C -11.826400 -16.062600 -29.707200
C -11.814700 -16.032200 -31.195200
C -11.478700 -17.225600 -27.627200
C -11.468500 -17.203500 -29.006500
C -11.416800 -14.916100 -31.912000
C -11.406600 -14.917900 -33.283200
O -11.382500 -17.043100 -24.909000
O -11.276800 -15.164000 -36.005400
H -11.239600 -17.993300 -27.160100
H -11.217800 -17.966600 -29.475600
H -11.151400 -14.150200 -31.454900
H -11.109200 -14.175100 -33.758300
H -13.738300 -16.186100 -21.425700
N -12.991200 -16.169500 -21.850500
H -12.986100 -16.175000 -22.710300
C -11.838800 -16.135400 -21.176000
O -11.836600 -16.127100 -19.935700
H -10.697300 -16.105000 -22.726400
N -10.684200 -16.098500 -21.866600
H -9.933400 -16.069900 -21.447800
