26
Fragment
H -12.567700 -17.925100 -33.740200
H -12.537100 -17.907600 -31.424700
H -12.514500 -14.173300 -27.140000
O -12.456200 -16.942700 -35.989300
H -12.440100 -14.143800 -29.453500
O -12.392800 -15.163100 -24.911000
C -12.274700 -17.174900 -33.275100
C -12.254300 -17.157400 -31.895900
C -12.239700 -14.924400 -27.615200
C -12.206900 -14.917000 -28.992400
N -11.867900 -16.075500 -25.490900
C -11.856300 -16.072700 -26.956700
N -11.856300 -16.059800 -35.409400
C -11.847500 -16.045100 -33.945600
C -11.826400 -16.062600 -29.707200
C -11.814700 -16.032200 -31.195200
C -11.478700 -17.225600 -27.627200
C -11.468500 -17.203500 -29.006500
C -11.416800 -14.916100 -31.912000
C -11.406600 -14.917900 -33.283200
O -11.382500 -17.043100 -24.909000
O -11.276800 -15.164000 -36.005400
H -11.239600 -17.993300 -27.160100
H -11.217800 -17.966600 -29.475600
H -11.151400 -14.150200 -31.454900
H -11.109200 -14.175100 -33.758300
26
Fragment
H -10.757800 -18.783100 -16.579200
H -10.715600 -18.758200 -18.882600
H -10.649200 -22.574600 -20.861900
H -10.627400 -22.601300 -23.177400
O -10.590200 -19.772000 -14.332100
O -10.484500 -21.651100 -25.428500
C -10.460400 -19.525900 -17.054300
C -10.450200 -19.524100 -18.425500
C -10.398500 -21.811500 -21.331000
C -10.388300 -21.833600 -22.710300
C -10.052300 -20.640200 -19.142300
C -10.040600 -20.670600 -20.630300
C -10.019500 -20.653100 -16.391900
C -10.010700 -20.680700 -23.380800
N -10.010700 -20.667800 -14.928100
N -9.999100 -20.683500 -24.846600
C -9.660100 -19.525000 -21.345100
C -9.627300 -19.532400 -22.722300
C -9.612700 -21.765400 -18.441600
C -9.592300 -21.782900 -17.062400
O -9.474200 -19.771100 -25.426500
H -9.426900 -18.751800 -20.884000
O -9.410800 -21.550700 -14.348200
H -9.352500 -18.781300 -23.197500
H -9.329900 -22.515600 -18.912800
H -9.299300 -22.533100 -16.597300
52
Fragment
H -12.567700 -17.925100 -33.740200
H -12.537100 -17.907600 -31.424700
H -12.514500 -14.173300 -27.140000
O -12.456200 -16.942700 -35.989300
H -12.440100 -14.143800 -29.453500
O -12.392800 -15.163100 -24.911000
C -12.274700 -17.174900 -33.275100
C -12.254300 -17.157400 -31.895900
C -12.239700 -14.924400 -27.615200
C -12.206900 -14.917000 -28.992400
N -11.867900 -16.075500 -25.490900
C -11.856300 -16.072700 -26.956700
N -11.856300 -16.059800 -35.409400
C -11.847500 -16.045100 -33.945600
C -11.826400 -16.062600 -29.707200
C -11.814700 -16.032200 -31.195200
C -11.478700 -17.225600 -27.627200
C -11.468500 -17.203500 -29.006500
C -11.416800 -14.916100 -31.912000
C -11.406600 -14.917900 -33.283200
O -11.382500 -17.043100 -24.909000
O -11.276800 -15.164000 -36.005400
H -11.239600 -17.993300 -27.160100
H -11.217800 -17.966600 -29.475600
H -11.151400 -14.150200 -31.454900
H -11.109200 -14.175100 -33.758300
H -10.757800 -18.783100 -16.579200
H -10.715600 -18.758200 -18.882600
H -10.649200 -22.574600 -20.861900
H -10.627400 -22.601300 -23.177400
O -10.590200 -19.772000 -14.332100
O -10.484500 -21.651100 -25.428500
C -10.460400 -19.525900 -17.054300
C -10.450200 -19.524100 -18.425500
C -10.398500 -21.811500 -21.331000
C -10.388300 -21.833600 -22.710300
C -10.052300 -20.640200 -19.142300
C -10.040600 -20.670600 -20.630300
C -10.019500 -20.653100 -16.391900
C -10.010700 -20.680700 -23.380800
N -10.010700 -20.667800 -14.928100
N -9.999100 -20.683500 -24.846600
C -9.660100 -19.525000 -21.345100
C -9.627300 -19.532400 -22.722300
C -9.612700 -21.765400 -18.441600
C -9.592300 -21.782900 -17.062400
O -9.474200 -19.771100 -25.426500
H -9.426900 -18.751800 -20.884000
O -9.410800 -21.550700 -14.348200
H -9.352500 -18.781300 -23.197500
H -9.329900 -22.515600 -18.912800
H -9.299300 -22.533100 -16.597300
