14
Fragment
H -14.090000 -19.712800 -32.074500
H -13.262300 -20.964600 -31.682600
C -13.207100 -20.046200 -31.808400
H -12.871600 -19.567800 -30.940000
O -12.312500 -17.435800 -32.604600
C -12.222800 -19.793200 -32.881000
C -11.831100 -18.404300 -33.184200
N -11.710000 -20.793300 -33.526600
N -10.888000 -18.273900 -34.143400
N -10.805700 -20.553500 -34.504300
H -10.577600 -17.604500 -34.405300
H -10.411600 -21.228100 -34.817900
C -10.309700 -19.304300 -34.834400
O -9.456500 -19.123800 -35.680100
14
Fragment
H -13.177100 -13.058400 -26.629100
O -12.888400 -10.722100 -27.186000
N -12.675700 -12.968800 -27.293200
C -12.357400 -11.722300 -27.689300
N -12.159400 -14.131000 -27.817200
N -11.438600 -11.645800 -28.687600
C -11.289900 -14.042700 -28.745400
H -11.165800 -16.102300 -28.898000
H -11.100100 -10.844700 -28.959900
H -11.071200 -15.469800 -30.362500
C -10.848200 -12.734300 -29.298200
C -10.692800 -15.274800 -29.347700
O -10.057700 -12.619600 -30.191300
H -9.801600 -15.166700 -29.496200
28
Fragment
H -14.090000 -19.712800 -32.074500
H -13.262300 -20.964600 -31.682600
C -13.207100 -20.046200 -31.808400
H -12.871600 -19.567800 -30.940000
O -12.312500 -17.435800 -32.604600
C -12.222800 -19.793200 -32.881000
C -11.831100 -18.404300 -33.184200
N -11.710000 -20.793300 -33.526600
N -10.888000 -18.273900 -34.143400
N -10.805700 -20.553500 -34.504300
H -10.577600 -17.604500 -34.405300
H -10.411600 -21.228100 -34.817900
C -10.309700 -19.304300 -34.834400
O -9.456500 -19.123800 -35.680100
H -13.177100 -13.058400 -26.629100
O -12.888400 -10.722100 -27.186000
N -12.675700 -12.968800 -27.293200
C -12.357400 -11.722300 -27.689300
N -12.159400 -14.131000 -27.817200
N -11.438600 -11.645800 -28.687600
C -11.289900 -14.042700 -28.745400
H -11.165800 -16.102300 -28.898000
H -11.100100 -10.844700 -28.959900
H -11.071200 -15.469800 -30.362500
C -10.848200 -12.734300 -29.298200
C -10.692800 -15.274800 -29.347700
O -10.057700 -12.619600 -30.191300
H -9.801600 -15.166700 -29.496200
