14
Fragment
H -14.090000 -19.712800 -32.074500
H -13.262300 -20.964600 -31.682600
C -13.207100 -20.046200 -31.808400
H -12.871600 -19.567800 -30.940000
O -12.312500 -17.435800 -32.604600
C -12.222800 -19.793200 -32.881000
C -11.831100 -18.404300 -33.184200
N -11.710000 -20.793300 -33.526600
N -10.888000 -18.273900 -34.143400
N -10.805700 -20.553500 -34.504300
H -10.577600 -17.604500 -34.405300
H -10.411600 -21.228100 -34.817900
C -10.309700 -19.304300 -34.834400
O -9.456500 -19.123800 -35.680100
14
Fragment
O -13.504400 -20.407200 -26.200000
C -12.651200 -20.226700 -27.045700
H -12.549200 -18.302900 -27.062200
H -12.383300 -21.926500 -27.474800
N -12.155100 -18.977500 -27.375700
N -12.072900 -21.257100 -27.736700
N -11.250800 -18.737700 -28.353500
C -11.129700 -21.126700 -28.695900
C -10.738100 -19.737800 -28.999100
O -10.648300 -22.095200 -29.275500
H -10.089200 -19.963200 -30.940000
C -9.753700 -19.484800 -30.071700
H -9.698500 -18.566400 -30.197500
H -8.870800 -19.818200 -29.805600
28
Fragment
H -14.090000 -19.712800 -32.074500
H -13.262300 -20.964600 -31.682600
C -13.207100 -20.046200 -31.808400
H -12.871600 -19.567800 -30.940000
O -12.312500 -17.435800 -32.604600
C -12.222800 -19.793200 -32.881000
C -11.831100 -18.404300 -33.184200
N -11.710000 -20.793300 -33.526600
N -10.888000 -18.273900 -34.143400
N -10.805700 -20.553500 -34.504300
H -10.577600 -17.604500 -34.405300
H -10.411600 -21.228100 -34.817900
C -10.309700 -19.304300 -34.834400
O -9.456500 -19.123800 -35.680100
O -13.504400 -20.407200 -26.200000
C -12.651200 -20.226700 -27.045700
H -12.549200 -18.302900 -27.062200
H -12.383300 -21.926500 -27.474800
N -12.155100 -18.977500 -27.375700
N -12.072900 -21.257100 -27.736700
N -11.250800 -18.737700 -28.353500
C -11.129700 -21.126700 -28.695900
C -10.738100 -19.737800 -28.999100
O -10.648300 -22.095200 -29.275500
H -10.089200 -19.963200 -30.940000
C -9.753700 -19.484800 -30.071700
H -9.698500 -18.566400 -30.197500
H -8.870800 -19.818200 -29.805600
