14
Fragment
H -14.090000 -19.712800 -32.074500
H -13.262300 -20.964600 -31.682600
C -13.207100 -20.046200 -31.808400
H -12.871600 -19.567800 -30.940000
O -12.312500 -17.435800 -32.604600
C -12.222800 -19.793200 -32.881000
C -11.831100 -18.404300 -33.184200
N -11.710000 -20.793300 -33.526600
N -10.888000 -18.273900 -34.143400
N -10.805700 -20.553500 -34.504300
H -10.577600 -17.604500 -34.405300
H -10.411600 -21.228100 -34.817900
C -10.309700 -19.304300 -34.834400
O -9.456500 -19.123800 -35.680100
14
Fragment
O -17.785700 -17.334300 -26.084500
H -17.073600 -15.232600 -27.124100
C -16.975500 -17.157800 -26.981800
H -16.626100 -18.685000 -27.351000
N -16.590300 -15.945500 -27.447900
N -16.337100 -18.205300 -27.594400
N -15.716900 -15.713600 -28.456600
C -15.443100 -18.096000 -28.592700
C -15.129600 -16.726900 -29.013500
O -14.931700 -19.093500 -29.124900
H -14.458500 -16.853400 -30.775000
C -14.134600 -16.517400 -30.071700
H -14.036800 -15.496200 -30.259400
H -13.418900 -16.866600 -29.764300
28
Fragment
H -14.090000 -19.712800 -32.074500
H -13.262300 -20.964600 -31.682600
C -13.207100 -20.046200 -31.808400
H -12.871600 -19.567800 -30.940000
O -12.312500 -17.435800 -32.604600
C -12.222800 -19.793200 -32.881000
C -11.831100 -18.404300 -33.184200
N -11.710000 -20.793300 -33.526600
N -10.888000 -18.273900 -34.143400
N -10.805700 -20.553500 -34.504300
H -10.577600 -17.604500 -34.405300
H -10.411600 -21.228100 -34.817900
C -10.309700 -19.304300 -34.834400
O -9.456500 -19.123800 -35.680100
O -17.785700 -17.334300 -26.084500
H -17.073600 -15.232600 -27.124100
C -16.975500 -17.157800 -26.981800
H -16.626100 -18.685000 -27.351000
N -16.590300 -15.945500 -27.447900
N -16.337100 -18.205300 -27.594400
N -15.716900 -15.713600 -28.456600
C -15.443100 -18.096000 -28.592700
C -15.129600 -16.726900 -29.013500
O -14.931700 -19.093500 -29.124900
H -14.458500 -16.853400 -30.775000
C -14.134600 -16.517400 -30.071700
H -14.036800 -15.496200 -30.259400
H -13.418900 -16.866600 -29.764300
