14
Fragment
H -14.090000 -19.712800 -32.074500
H -13.262300 -20.964600 -31.682600
C -13.207100 -20.046200 -31.808400
H -12.871600 -19.567800 -30.940000
O -12.312500 -17.435800 -32.604600
C -12.222800 -19.793200 -32.881000
C -11.831100 -18.404300 -33.184200
N -11.710000 -20.793300 -33.526600
N -10.888000 -18.273900 -34.143400
N -10.805700 -20.553500 -34.504300
H -10.577600 -17.604500 -34.405300
H -10.411600 -21.228100 -34.817900
C -10.309700 -19.304300 -34.834400
O -9.456500 -19.123800 -35.680100
14
Fragment
O -12.751500 -15.608200 -36.397900
H -12.039400 -17.709900 -37.437400
C -11.941400 -15.784700 -37.295100
H -11.591900 -14.257500 -37.664300
N -11.556100 -16.997000 -37.761300
N -11.302900 -14.737200 -37.907700
N -10.682700 -17.228900 -38.769900
C -10.408900 -14.846500 -38.906100
C -10.095400 -16.215600 -39.326900
O -9.897500 -13.849000 -39.438200
H -9.424300 -16.089100 -41.088400
C -9.100400 -16.425100 -40.385000
H -9.002600 -17.446300 -40.572700
H -8.384700 -16.075900 -40.077700
28
Fragment
H -14.090000 -19.712800 -32.074500
H -13.262300 -20.964600 -31.682600
C -13.207100 -20.046200 -31.808400
H -12.871600 -19.567800 -30.940000
O -12.312500 -17.435800 -32.604600
C -12.222800 -19.793200 -32.881000
C -11.831100 -18.404300 -33.184200
N -11.710000 -20.793300 -33.526600
N -10.888000 -18.273900 -34.143400
N -10.805700 -20.553500 -34.504300
H -10.577600 -17.604500 -34.405300
H -10.411600 -21.228100 -34.817900
C -10.309700 -19.304300 -34.834400
O -9.456500 -19.123800 -35.680100
O -12.751500 -15.608200 -36.397900
H -12.039400 -17.709900 -37.437400
C -11.941400 -15.784700 -37.295100
H -11.591900 -14.257500 -37.664300
N -11.556100 -16.997000 -37.761300
N -11.302900 -14.737200 -37.907700
N -10.682700 -17.228900 -38.769900
C -10.408900 -14.846500 -38.906100
C -10.095400 -16.215600 -39.326900
O -9.897500 -13.849000 -39.438200
H -9.424300 -16.089100 -41.088400
C -9.100400 -16.425100 -40.385000
H -9.002600 -17.446300 -40.572700
H -8.384700 -16.075900 -40.077700
