18
Fragment
O -66.588600 -11.179300 -5.933700
H -66.244500 -9.102500 -6.726900
C -65.522800 -10.643100 -6.118800
O -65.400900 -9.443500 -6.659200
H -65.013600 -13.007900 -5.083900
C -64.223700 -11.294600 -5.808700
C -64.209900 -12.572700 -5.259900
H -63.018000 -14.047800 -4.595200
C -63.018000 -13.199900 -4.978700
C -63.018000 -10.656200 -6.077000
H -63.018000 -9.798300 -6.435000
C -61.826100 -12.572700 -5.259900
C -61.812300 -11.294600 -5.808700
H -61.022400 -13.007900 -5.083900
O -60.635100 -9.443500 -6.659200
C -60.513200 -10.643100 -6.118800
H -59.791500 -9.102500 -6.726900
O -59.447400 -11.179300 -5.933700
18
Fragment
O -66.588600 -11.179300 -9.734200
H -66.244500 -9.102500 -10.527400
C -65.522800 -10.643100 -9.919300
O -65.400900 -9.443500 -10.459700
H -65.013600 -13.007900 -8.884400
C -64.223700 -11.294600 -9.609200
C -64.209900 -12.572700 -9.060400
H -63.018000 -14.047800 -8.395700
C -63.018000 -13.199900 -8.779200
C -63.018000 -10.656200 -9.877500
H -63.018000 -9.798300 -10.235500
C -61.826100 -12.572700 -9.060400
C -61.812300 -11.294600 -9.609200
H -61.022400 -13.007900 -8.884400
O -60.635100 -9.443500 -10.459700
C -60.513200 -10.643100 -9.919300
H -59.791500 -9.102500 -10.527400
O -59.447400 -11.179300 -9.734200
36
Fragment
O -66.588600 -11.179300 -5.933700
H -66.244500 -9.102500 -6.726900
C -65.522800 -10.643100 -6.118800
O -65.400900 -9.443500 -6.659200
H -65.013600 -13.007900 -5.083900
C -64.223700 -11.294600 -5.808700
C -64.209900 -12.572700 -5.259900
H -63.018000 -14.047800 -4.595200
C -63.018000 -13.199900 -4.978700
C -63.018000 -10.656200 -6.077000
H -63.018000 -9.798300 -6.435000
C -61.826100 -12.572700 -5.259900
C -61.812300 -11.294600 -5.808700
H -61.022400 -13.007900 -5.083900
O -60.635100 -9.443500 -6.659200
C -60.513200 -10.643100 -6.118800
H -59.791500 -9.102500 -6.726900
O -59.447400 -11.179300 -5.933700
O -66.588600 -11.179300 -9.734200
H -66.244500 -9.102500 -10.527400
C -65.522800 -10.643100 -9.919300
O -65.400900 -9.443500 -10.459700
H -65.013600 -13.007900 -8.884400
C -64.223700 -11.294600 -9.609200
C -64.209900 -12.572700 -9.060400
H -63.018000 -14.047800 -8.395700
C -63.018000 -13.199900 -8.779200
C -63.018000 -10.656200 -9.877500
H -63.018000 -9.798300 -10.235500
C -61.826100 -12.572700 -9.060400
C -61.812300 -11.294600 -9.609200
H -61.022400 -13.007900 -8.884400
O -60.635100 -9.443500 -10.459700
C -60.513200 -10.643100 -9.919300
H -59.791500 -9.102500 -10.527400
O -59.447400 -11.179300 -9.734200
