18
Fragment
O -66.588600 -11.179300 -5.933700
H -66.244500 -9.102500 -6.726900
C -65.522800 -10.643100 -6.118800
O -65.400900 -9.443500 -6.659200
H -65.013600 -13.007900 -5.083900
C -64.223700 -11.294600 -5.808700
C -64.209900 -12.572700 -5.259900
H -63.018000 -14.047800 -4.595200
C -63.018000 -13.199900 -4.978700
C -63.018000 -10.656200 -6.077000
H -63.018000 -9.798300 -6.435000
C -61.826100 -12.572700 -5.259900
C -61.812300 -11.294600 -5.808700
H -61.022400 -13.007900 -5.083900
O -60.635100 -9.443500 -6.659200
C -60.513200 -10.643100 -6.118800
H -59.791500 -9.102500 -6.726900
O -59.447400 -11.179300 -5.933700
17
Fragment
H -58.695000 -6.625500 -7.860200
N -58.251700 -8.492100 -7.488500
C -58.014400 -7.257700 -7.923300
H -57.438800 -10.250300 -7.328900
C -57.274100 -9.378700 -7.608600
C -56.802700 -6.873600 -8.463700
H -56.674200 -5.999600 -8.754100
C -56.036900 -9.086900 -8.125100
C -55.786900 -7.794500 -8.571300
H -55.376000 -9.741600 -8.174900
C -54.484500 -7.353100 -9.166000
O -54.359700 -6.250800 -9.714500
H -53.464500 -9.077600 -8.714500
N -53.454000 -8.203500 -9.060800
H -52.321700 -7.462800 -10.318400
N -52.206600 -7.942900 -9.688200
H -51.754600 -7.506500 -9.193400
35
Fragment
O -66.588600 -11.179300 -5.933700
H -66.244500 -9.102500 -6.726900
C -65.522800 -10.643100 -6.118800
O -65.400900 -9.443500 -6.659200
H -65.013600 -13.007900 -5.083900
C -64.223700 -11.294600 -5.808700
C -64.209900 -12.572700 -5.259900
H -63.018000 -14.047800 -4.595200
C -63.018000 -13.199900 -4.978700
C -63.018000 -10.656200 -6.077000
H -63.018000 -9.798300 -6.435000
C -61.826100 -12.572700 -5.259900
C -61.812300 -11.294600 -5.808700
H -61.022400 -13.007900 -5.083900
O -60.635100 -9.443500 -6.659200
C -60.513200 -10.643100 -6.118800
H -59.791500 -9.102500 -6.726900
O -59.447400 -11.179300 -5.933700
H -58.695000 -6.625500 -7.860200
N -58.251700 -8.492100 -7.488500
C -58.014400 -7.257700 -7.923300
H -57.438800 -10.250300 -7.328900
C -57.274100 -9.378700 -7.608600
C -56.802700 -6.873600 -8.463700
H -56.674200 -5.999600 -8.754100
C -56.036900 -9.086900 -8.125100
C -55.786900 -7.794500 -8.571300
H -55.376000 -9.741600 -8.174900
C -54.484500 -7.353100 -9.166000
O -54.359700 -6.250800 -9.714500
H -53.464500 -9.077600 -8.714500
N -53.454000 -8.203500 -9.060800
H -52.321700 -7.462800 -10.318400
N -52.206600 -7.942900 -9.688200
H -51.754600 -7.506500 -9.193400
