18
Fragment
O -66.588600 -11.179300 -5.933700
H -66.244500 -9.102500 -6.726900
C -65.522800 -10.643100 -6.118800
O -65.400900 -9.443500 -6.659200
H -65.013600 -13.007900 -5.083900
C -64.223700 -11.294600 -5.808700
C -64.209900 -12.572700 -5.259900
H -63.018000 -14.047800 -4.595200
C -63.018000 -13.199900 -4.978700
C -63.018000 -10.656200 -6.077000
H -63.018000 -9.798300 -6.435000
C -61.826100 -12.572700 -5.259900
C -61.812300 -11.294600 -5.808700
H -61.022400 -13.007900 -5.083900
O -60.635100 -9.443500 -6.659200
C -60.513200 -10.643100 -6.118800
H -59.791500 -9.102500 -6.726900
O -59.447400 -11.179300 -5.933700
18
Fragment
O -66.588600 -17.413900 -2.133200
H -66.244500 -15.337100 -2.926400
C -65.522800 -16.877700 -2.318300
O -65.400900 -15.678100 -2.858700
H -65.013600 -19.242500 -1.283400
C -64.223700 -17.529200 -2.008200
C -64.209900 -18.807300 -1.459400
H -63.018000 -20.282400 -0.794700
C -63.018000 -19.434500 -1.178200
C -63.018000 -16.890800 -2.276500
H -63.018000 -16.032900 -2.634500
C -61.826100 -18.807300 -1.459400
C -61.812300 -17.529200 -2.008200
H -61.022400 -19.242500 -1.283400
O -60.635100 -15.678100 -2.858700
C -60.513200 -16.877700 -2.318300
H -59.791500 -15.337100 -2.926400
O -59.447400 -17.413900 -2.133200
36
Fragment
O -66.588600 -11.179300 -5.933700
H -66.244500 -9.102500 -6.726900
C -65.522800 -10.643100 -6.118800
O -65.400900 -9.443500 -6.659200
H -65.013600 -13.007900 -5.083900
C -64.223700 -11.294600 -5.808700
C -64.209900 -12.572700 -5.259900
H -63.018000 -14.047800 -4.595200
C -63.018000 -13.199900 -4.978700
C -63.018000 -10.656200 -6.077000
H -63.018000 -9.798300 -6.435000
C -61.826100 -12.572700 -5.259900
C -61.812300 -11.294600 -5.808700
H -61.022400 -13.007900 -5.083900
O -60.635100 -9.443500 -6.659200
C -60.513200 -10.643100 -6.118800
H -59.791500 -9.102500 -6.726900
O -59.447400 -11.179300 -5.933700
O -66.588600 -17.413900 -2.133200
H -66.244500 -15.337100 -2.926400
C -65.522800 -16.877700 -2.318300
O -65.400900 -15.678100 -2.858700
H -65.013600 -19.242500 -1.283400
C -64.223700 -17.529200 -2.008200
C -64.209900 -18.807300 -1.459400
H -63.018000 -20.282400 -0.794700
C -63.018000 -19.434500 -1.178200
C -63.018000 -16.890800 -2.276500
H -63.018000 -16.032900 -2.634500
C -61.826100 -18.807300 -1.459400
C -61.812300 -17.529200 -2.008200
H -61.022400 -19.242500 -1.283400
O -60.635100 -15.678100 -2.858700
C -60.513200 -16.877700 -2.318300
H -59.791500 -15.337100 -2.926400
O -59.447400 -17.413900 -2.133200
