35
Fragment
H -10.838900 -17.722800 -34.157500
H -10.501600 -17.285400 -35.637900
H -10.318200 -19.757500 -35.032900
C -10.146100 -17.699600 -34.836000
C -9.618700 -19.092400 -35.127400
H -9.249400 -19.145800 -36.022800
H -9.158100 -16.204100 -33.773800
C -8.906400 -16.955200 -34.333700
O -8.769600 -21.529200 -34.145800
N -8.572700 -19.276600 -34.111500
H -8.375000 -16.628800 -35.076600
H -8.355300 -17.952900 -32.583800
C -8.218400 -20.509200 -33.710600
C -8.130100 -18.001500 -33.525800
H -7.767800 -29.205000 -30.813800
H -7.655400 -23.206900 -33.098900
O -7.648400 -27.235200 -32.672500
N -7.588000 -25.832200 -32.855600
N -7.212100 -20.561900 -32.768000
H -7.172900 -17.882900 -33.629500
C -7.096600 -23.009600 -32.382300
C -6.977200 -27.496800 -31.551600
C -6.900600 -28.914000 -31.105200
C -6.894800 -25.433700 -31.834700
H -6.821000 -19.817800 -32.586300
C -6.753600 -21.691900 -32.071600
H -6.607000 -29.464100 -31.834900
C -6.569600 -24.016800 -31.577800
N -6.489200 -26.444300 -30.992800
H -6.277700 -28.987300 -30.378400
N -5.951300 -21.358500 -31.054200
C -5.729000 -23.692300 -30.517900
C -5.463600 -22.352600 -30.301900
H -5.359600 -24.351100 -29.975100
H -4.910800 -22.127800 -29.588700
35
Fragment
H -4.462100 -28.511300 -33.646500
C -3.893300 -28.653000 -32.924100
N -3.671600 -29.916800 -32.532300
H -3.504800 -26.688800 -32.618700
H -3.357000 -34.257500 -30.688400
C -3.326100 -27.549800 -32.315800
H -3.230600 -32.017000 -31.467800
C -2.823200 -30.116100 -31.518300
N -2.639300 -31.460800 -31.183500
H -2.526400 -34.029000 -32.012300
C -2.477200 -27.770600 -31.233600
C -2.466200 -34.259800 -31.072100
H -2.450100 -36.324600 -30.789500
C -2.208400 -29.066300 -30.826000
N -2.165700 -25.417500 -30.725100
C -1.872200 -26.655900 -30.480200
C -1.789600 -35.620200 -30.882300
H -1.635900 -29.234300 -30.112500
C -1.592700 -31.983600 -30.436100
N -1.580600 -33.329600 -30.356100
H -1.520100 -35.654000 -28.818500
O -1.367800 -24.721500 -29.789900
H -1.213100 -35.827400 -31.634600
N -0.977200 -26.846000 -29.464100
C -0.974400 -35.465000 -29.597900
O -0.733300 -31.282900 -29.895400
C -0.695800 -25.644400 -29.092800
C -0.518900 -34.008300 -29.599700
H -0.455400 -33.660200 -28.696500
H -0.211700 -36.064200 -29.599500
H -0.075800 -24.343900 -27.686100
C 0.241700 -25.173200 -28.051000
H 0.299300 -25.828800 -27.352300
H 0.340600 -33.910900 -30.038600
H 1.110200 -25.040900 -28.438200
70
Fragment
H -10.838900 -17.722800 -34.157500
H -10.501600 -17.285400 -35.637900
H -10.318200 -19.757500 -35.032900
C -10.146100 -17.699600 -34.836000
C -9.618700 -19.092400 -35.127400
H -9.249400 -19.145800 -36.022800
H -9.158100 -16.204100 -33.773800
C -8.906400 -16.955200 -34.333700
O -8.769600 -21.529200 -34.145800
N -8.572700 -19.276600 -34.111500
H -8.375000 -16.628800 -35.076600
H -8.355300 -17.952900 -32.583800
C -8.218400 -20.509200 -33.710600
C -8.130100 -18.001500 -33.525800
H -7.767800 -29.205000 -30.813800
H -7.655400 -23.206900 -33.098900
O -7.648400 -27.235200 -32.672500
N -7.588000 -25.832200 -32.855600
N -7.212100 -20.561900 -32.768000
H -7.172900 -17.882900 -33.629500
C -7.096600 -23.009600 -32.382300
C -6.977200 -27.496800 -31.551600
C -6.900600 -28.914000 -31.105200
C -6.894800 -25.433700 -31.834700
H -6.821000 -19.817800 -32.586300
C -6.753600 -21.691900 -32.071600
H -6.607000 -29.464100 -31.834900
C -6.569600 -24.016800 -31.577800
N -6.489200 -26.444300 -30.992800
H -6.277700 -28.987300 -30.378400
N -5.951300 -21.358500 -31.054200
C -5.729000 -23.692300 -30.517900
C -5.463600 -22.352600 -30.301900
H -5.359600 -24.351100 -29.975100
H -4.910800 -22.127800 -29.588700
H -4.462100 -28.511300 -33.646500
C -3.893300 -28.653000 -32.924100
N -3.671600 -29.916800 -32.532300
H -3.504800 -26.688800 -32.618700
H -3.357000 -34.257500 -30.688400
C -3.326100 -27.549800 -32.315800
H -3.230600 -32.017000 -31.467800
C -2.823200 -30.116100 -31.518300
N -2.639300 -31.460800 -31.183500
H -2.526400 -34.029000 -32.012300
C -2.477200 -27.770600 -31.233600
C -2.466200 -34.259800 -31.072100
H -2.450100 -36.324600 -30.789500
C -2.208400 -29.066300 -30.826000
N -2.165700 -25.417500 -30.725100
C -1.872200 -26.655900 -30.480200
C -1.789600 -35.620200 -30.882300
H -1.635900 -29.234300 -30.112500
C -1.592700 -31.983600 -30.436100
N -1.580600 -33.329600 -30.356100
H -1.520100 -35.654000 -28.818500
O -1.367800 -24.721500 -29.789900
H -1.213100 -35.827400 -31.634600
N -0.977200 -26.846000 -29.464100
C -0.974400 -35.465000 -29.597900
O -0.733300 -31.282900 -29.895400
C -0.695800 -25.644400 -29.092800
C -0.518900 -34.008300 -29.599700
H -0.455400 -33.660200 -28.696500
H -0.211700 -36.064200 -29.599500
H -0.075800 -24.343900 -27.686100
C 0.241700 -25.173200 -28.051000
H 0.299300 -25.828800 -27.352300
H 0.340600 -33.910900 -30.038600
H 1.110200 -25.040900 -28.438200
