35
Fragment
H -10.838900 -17.722800 -34.157500
H -10.501600 -17.285400 -35.637900
H -10.318200 -19.757500 -35.032900
C -10.146100 -17.699600 -34.836000
C -9.618700 -19.092400 -35.127400
H -9.249400 -19.145800 -36.022800
H -9.158100 -16.204100 -33.773800
C -8.906400 -16.955200 -34.333700
O -8.769600 -21.529200 -34.145800
N -8.572700 -19.276600 -34.111500
H -8.375000 -16.628800 -35.076600
H -8.355300 -17.952900 -32.583800
C -8.218400 -20.509200 -33.710600
C -8.130100 -18.001500 -33.525800
H -7.767800 -29.205000 -30.813800
H -7.655400 -23.206900 -33.098900
O -7.648400 -27.235200 -32.672500
N -7.588000 -25.832200 -32.855600
N -7.212100 -20.561900 -32.768000
H -7.172900 -17.882900 -33.629500
C -7.096600 -23.009600 -32.382300
C -6.977200 -27.496800 -31.551600
C -6.900600 -28.914000 -31.105200
C -6.894800 -25.433700 -31.834700
H -6.821000 -19.817800 -32.586300
C -6.753600 -21.691900 -32.071600
H -6.607000 -29.464100 -31.834900
C -6.569600 -24.016800 -31.577800
N -6.489200 -26.444300 -30.992800
H -6.277700 -28.987300 -30.378400
N -5.951300 -21.358500 -31.054200
C -5.729000 -23.692300 -30.517900
C -5.463600 -22.352600 -30.301900
H -5.359600 -24.351100 -29.975100
H -4.910800 -22.127800 -29.588700
35
Fragment
H -6.429900 -18.085100 -29.005300
H -5.660400 -26.955100 -27.404900
H -5.619100 -18.873000 -30.091200
C -5.561400 -18.217400 -29.392400
H -5.243900 -17.388100 -29.757300
H -5.108100 -29.108400 -27.844000
H -4.864400 -26.704400 -28.747000
C -4.800800 -27.052500 -27.843800
C -4.624000 -18.688600 -28.350600
O -4.586400 -24.327100 -27.548000
C -4.345400 -28.509200 -27.845600
N -4.342500 -19.890200 -27.979300
H -4.106600 -28.871600 -25.808900
O -3.951900 -17.765700 -27.653500
H -3.799600 -28.698200 -28.625000
N -3.739100 -26.373800 -27.087300
C -3.727000 -25.027800 -27.007400
H -3.683800 -22.278500 -27.330900
C -3.530100 -28.664400 -26.561200
C -3.447600 -19.700100 -26.963300
N -3.154000 -18.461700 -26.718300
C -3.111300 -22.110500 -26.617500
H -2.869700 -29.368800 -26.654000
C -2.853600 -27.304000 -26.371400
C -2.842600 -20.814800 -26.209800
H -2.793400 -27.073200 -25.431100
N -2.680500 -24.505000 -26.259900
C -2.496600 -23.160300 -25.925100
H -2.089200 -25.061200 -25.975700
C -1.993600 -20.594000 -25.127600
H -1.962700 -27.301700 -26.755100
H -1.815000 -19.733000 -24.824800
N -1.648100 -22.961000 -24.911200
C -1.426400 -21.697200 -24.519400
H -0.857600 -21.555500 -23.797000
70
Fragment
H -10.838900 -17.722800 -34.157500
H -10.501600 -17.285400 -35.637900
H -10.318200 -19.757500 -35.032900
C -10.146100 -17.699600 -34.836000
C -9.618700 -19.092400 -35.127400
H -9.249400 -19.145800 -36.022800
H -9.158100 -16.204100 -33.773800
C -8.906400 -16.955200 -34.333700
O -8.769600 -21.529200 -34.145800
N -8.572700 -19.276600 -34.111500
H -8.375000 -16.628800 -35.076600
H -8.355300 -17.952900 -32.583800
C -8.218400 -20.509200 -33.710600
C -8.130100 -18.001500 -33.525800
H -7.767800 -29.205000 -30.813800
H -7.655400 -23.206900 -33.098900
O -7.648400 -27.235200 -32.672500
N -7.588000 -25.832200 -32.855600
N -7.212100 -20.561900 -32.768000
H -7.172900 -17.882900 -33.629500
C -7.096600 -23.009600 -32.382300
C -6.977200 -27.496800 -31.551600
C -6.900600 -28.914000 -31.105200
C -6.894800 -25.433700 -31.834700
H -6.821000 -19.817800 -32.586300
C -6.753600 -21.691900 -32.071600
H -6.607000 -29.464100 -31.834900
C -6.569600 -24.016800 -31.577800
N -6.489200 -26.444300 -30.992800
H -6.277700 -28.987300 -30.378400
N -5.951300 -21.358500 -31.054200
C -5.729000 -23.692300 -30.517900
C -5.463600 -22.352600 -30.301900
H -5.359600 -24.351100 -29.975100
H -4.910800 -22.127800 -29.588700
H -6.429900 -18.085100 -29.005300
H -5.660400 -26.955100 -27.404900
H -5.619100 -18.873000 -30.091200
C -5.561400 -18.217400 -29.392400
H -5.243900 -17.388100 -29.757300
H -5.108100 -29.108400 -27.844000
H -4.864400 -26.704400 -28.747000
C -4.800800 -27.052500 -27.843800
C -4.624000 -18.688600 -28.350600
O -4.586400 -24.327100 -27.548000
C -4.345400 -28.509200 -27.845600
N -4.342500 -19.890200 -27.979300
H -4.106600 -28.871600 -25.808900
O -3.951900 -17.765700 -27.653500
H -3.799600 -28.698200 -28.625000
N -3.739100 -26.373800 -27.087300
C -3.727000 -25.027800 -27.007400
H -3.683800 -22.278500 -27.330900
C -3.530100 -28.664400 -26.561200
C -3.447600 -19.700100 -26.963300
N -3.154000 -18.461700 -26.718300
C -3.111300 -22.110500 -26.617500
H -2.869700 -29.368800 -26.654000
C -2.853600 -27.304000 -26.371400
C -2.842600 -20.814800 -26.209800
H -2.793400 -27.073200 -25.431100
N -2.680500 -24.505000 -26.259900
C -2.496600 -23.160300 -25.925100
H -2.089200 -25.061200 -25.975700
C -1.993600 -20.594000 -25.127600
H -1.962700 -27.301700 -26.755100
H -1.815000 -19.733000 -24.824800
N -1.648100 -22.961000 -24.911200
C -1.426400 -21.697200 -24.519400
H -0.857600 -21.555500 -23.797000
