20
Fragment
H -3.851500 -16.489600 -10.195800
H -3.576800 -18.521000 -9.082600
C -3.333800 -16.916200 -10.991700
H -3.267000 -15.139400 -12.172600
N -3.235900 -18.992900 -9.754700
O -3.138300 -20.925100 -8.570700
C -2.990300 -16.188500 -12.113300
C -2.953800 -18.255700 -10.904300
C -2.915200 -20.284600 -9.605900
C -2.303000 -16.818200 -13.121400
C -2.272500 -18.874600 -11.952000
O -2.236200 -14.856200 -14.335500
C -2.219800 -20.975300 -10.739900
O -1.944600 -22.163000 -10.669200
C -1.929700 -18.142200 -13.090200
N -1.917600 -20.208100 -11.816700
N -1.887600 -16.034400 -14.293900
H -1.529900 -20.516400 -12.401400
H -1.520400 -18.556800 -13.743500
O -1.218800 -16.572100 -15.158500
3
Fragment
H -1.610600 -11.841500 -12.162100
O -1.225800 -12.121100 -12.722900
H -0.947200 -12.857100 -12.411800
23
Fragment
H -3.851500 -16.489600 -10.195800
H -3.576800 -18.521000 -9.082600
C -3.333800 -16.916200 -10.991700
H -3.267000 -15.139400 -12.172600
N -3.235900 -18.992900 -9.754700
O -3.138300 -20.925100 -8.570700
C -2.990300 -16.188500 -12.113300
C -2.953800 -18.255700 -10.904300
C -2.915200 -20.284600 -9.605900
C -2.303000 -16.818200 -13.121400
C -2.272500 -18.874600 -11.952000
O -2.236200 -14.856200 -14.335500
C -2.219800 -20.975300 -10.739900
O -1.944600 -22.163000 -10.669200
C -1.929700 -18.142200 -13.090200
N -1.917600 -20.208100 -11.816700
N -1.887600 -16.034400 -14.293900
H -1.529900 -20.516400 -12.401400
H -1.520400 -18.556800 -13.743500
O -1.218800 -16.572100 -15.158500
H -1.610600 -11.841500 -12.162100
O -1.225800 -12.121100 -12.722900
H -0.947200 -12.857100 -12.411800
