20
Fragment
H -3.851500 -16.489600 -10.195800
H -3.576800 -18.521000 -9.082600
C -3.333800 -16.916200 -10.991700
H -3.267000 -15.139400 -12.172600
N -3.235900 -18.992900 -9.754700
O -3.138300 -20.925100 -8.570700
C -2.990300 -16.188500 -12.113300
C -2.953800 -18.255700 -10.904300
C -2.915200 -20.284600 -9.605900
C -2.303000 -16.818200 -13.121400
C -2.272500 -18.874600 -11.952000
O -2.236200 -14.856200 -14.335500
C -2.219800 -20.975300 -10.739900
O -1.944600 -22.163000 -10.669200
C -1.929700 -18.142200 -13.090200
N -1.917600 -20.208100 -11.816700
N -1.887600 -16.034400 -14.293900
H -1.529900 -20.516400 -12.401400
H -1.520400 -18.556800 -13.743500
O -1.218800 -16.572100 -15.158500
20
Fragment
H -0.795900 -13.382900 -15.397800
H -0.521200 -11.351600 -14.284500
C -0.278200 -12.956300 -16.193700
H -0.211400 -14.733100 -17.374500
N -0.180300 -10.879600 -14.956600
O -0.082700 -8.947400 -13.772700
C 0.065300 -13.684000 -17.315200
C 0.101800 -11.616800 -16.106300
C 0.140500 -9.587900 -14.807900
C 0.752600 -13.054300 -18.323300
C 0.783100 -10.997900 -17.153900
O 0.819500 -15.016300 -19.537500
C 0.835800 -8.897200 -15.941900
O 1.111000 -7.709500 -15.871100
C 1.125900 -11.730300 -18.292100
N 1.138000 -9.664400 -17.018700
N 1.168000 -13.838100 -19.495900
H 1.525700 -9.356100 -17.603400
H 1.535200 -11.315700 -18.945500
O 1.836800 -13.300400 -20.360400
40
Fragment
H -3.851500 -16.489600 -10.195800
H -3.576800 -18.521000 -9.082600
C -3.333800 -16.916200 -10.991700
H -3.267000 -15.139400 -12.172600
N -3.235900 -18.992900 -9.754700
O -3.138300 -20.925100 -8.570700
C -2.990300 -16.188500 -12.113300
C -2.953800 -18.255700 -10.904300
C -2.915200 -20.284600 -9.605900
C -2.303000 -16.818200 -13.121400
C -2.272500 -18.874600 -11.952000
O -2.236200 -14.856200 -14.335500
C -2.219800 -20.975300 -10.739900
O -1.944600 -22.163000 -10.669200
C -1.929700 -18.142200 -13.090200
N -1.917600 -20.208100 -11.816700
N -1.887600 -16.034400 -14.293900
H -1.529900 -20.516400 -12.401400
H -1.520400 -18.556800 -13.743500
O -1.218800 -16.572100 -15.158500
H -0.795900 -13.382900 -15.397800
H -0.521200 -11.351600 -14.284500
C -0.278200 -12.956300 -16.193700
H -0.211400 -14.733100 -17.374500
N -0.180300 -10.879600 -14.956600
O -0.082700 -8.947400 -13.772700
C 0.065300 -13.684000 -17.315200
C 0.101800 -11.616800 -16.106300
C 0.140500 -9.587900 -14.807900
C 0.752600 -13.054300 -18.323300
C 0.783100 -10.997900 -17.153900
O 0.819500 -15.016300 -19.537500
C 0.835800 -8.897200 -15.941900
O 1.111000 -7.709500 -15.871100
C 1.125900 -11.730300 -18.292100
N 1.138000 -9.664400 -17.018700
N 1.168000 -13.838100 -19.495900
H 1.525700 -9.356100 -17.603400
H 1.535200 -11.315700 -18.945500
O 1.836800 -13.300400 -20.360400
