20
Fragment
H -3.851500 -16.489600 -10.195800
H -3.576800 -18.521000 -9.082600
C -3.333800 -16.916200 -10.991700
H -3.267000 -15.139400 -12.172600
N -3.235900 -18.992900 -9.754700
O -3.138300 -20.925100 -8.570700
C -2.990300 -16.188500 -12.113300
C -2.953800 -18.255700 -10.904300
C -2.915200 -20.284600 -9.605900
C -2.303000 -16.818200 -13.121400
C -2.272500 -18.874600 -11.952000
O -2.236200 -14.856200 -14.335500
C -2.219800 -20.975300 -10.739900
O -1.944600 -22.163000 -10.669200
C -1.929700 -18.142200 -13.090200
N -1.917600 -20.208100 -11.816700
N -1.887600 -16.034400 -14.293900
H -1.529900 -20.516400 -12.401400
H -1.520400 -18.556800 -13.743500
O -1.218800 -16.572100 -15.158500
20
Fragment
O -5.970100 -22.546600 -10.851300
H -5.668400 -24.531300 -12.266200
H -5.658900 -26.490900 -13.608300
N -5.301200 -22.008900 -11.715800
N -5.271300 -26.182600 -14.193000
C -5.259200 -24.116700 -12.919600
O -5.244300 -28.137500 -15.340500
C -4.969000 -26.949800 -15.269800
O -4.952700 -20.830700 -11.674200
C -4.916400 -24.849100 -14.057700
C -4.885800 -22.792700 -12.888300
C -4.273700 -26.259100 -16.403800
C -4.235100 -24.230200 -15.105400
C -4.198500 -22.163000 -13.896500
O -4.050600 -26.899600 -17.439000
N -3.952900 -24.967400 -16.255000
H -3.921800 -21.113900 -13.837200
C -3.855000 -22.890700 -15.018000
H -3.612100 -24.495400 -16.927100
H -3.337400 -22.464100 -15.813900
40
Fragment
H -3.851500 -16.489600 -10.195800
H -3.576800 -18.521000 -9.082600
C -3.333800 -16.916200 -10.991700
H -3.267000 -15.139400 -12.172600
N -3.235900 -18.992900 -9.754700
O -3.138300 -20.925100 -8.570700
C -2.990300 -16.188500 -12.113300
C -2.953800 -18.255700 -10.904300
C -2.915200 -20.284600 -9.605900
C -2.303000 -16.818200 -13.121400
C -2.272500 -18.874600 -11.952000
O -2.236200 -14.856200 -14.335500
C -2.219800 -20.975300 -10.739900
O -1.944600 -22.163000 -10.669200
C -1.929700 -18.142200 -13.090200
N -1.917600 -20.208100 -11.816700
N -1.887600 -16.034400 -14.293900
H -1.529900 -20.516400 -12.401400
H -1.520400 -18.556800 -13.743500
O -1.218800 -16.572100 -15.158500
O -5.970100 -22.546600 -10.851300
H -5.668400 -24.531300 -12.266200
H -5.658900 -26.490900 -13.608300
N -5.301200 -22.008900 -11.715800
N -5.271300 -26.182600 -14.193000
C -5.259200 -24.116700 -12.919600
O -5.244300 -28.137500 -15.340500
C -4.969000 -26.949800 -15.269800
O -4.952700 -20.830700 -11.674200
C -4.916400 -24.849100 -14.057700
C -4.885800 -22.792700 -12.888300
C -4.273700 -26.259100 -16.403800
C -4.235100 -24.230200 -15.105400
C -4.198500 -22.163000 -13.896500
O -4.050600 -26.899600 -17.439000
N -3.952900 -24.967400 -16.255000
H -3.921800 -21.113900 -13.837200
C -3.855000 -22.890700 -15.018000
H -3.612100 -24.495400 -16.927100
H -3.337400 -22.464100 -15.813900
