20
Fragment
H -3.851500 -16.489600 -10.195800
H -3.576800 -18.521000 -9.082600
C -3.333800 -16.916200 -10.991700
H -3.267000 -15.139400 -12.172600
N -3.235900 -18.992900 -9.754700
O -3.138300 -20.925100 -8.570700
C -2.990300 -16.188500 -12.113300
C -2.953800 -18.255700 -10.904300
C -2.915200 -20.284600 -9.605900
C -2.303000 -16.818200 -13.121400
C -2.272500 -18.874600 -11.952000
O -2.236200 -14.856200 -14.335500
C -2.219800 -20.975300 -10.739900
O -1.944600 -22.163000 -10.669200
C -1.929700 -18.142200 -13.090200
N -1.917600 -20.208100 -11.816700
N -1.887600 -16.034400 -14.293900
H -1.529900 -20.516400 -12.401400
H -1.520400 -18.556800 -13.743500
O -1.218800 -16.572100 -15.158500
20
Fragment
O -2.914500 -19.274900 -16.053200
H -2.612800 -17.290200 -17.468100
H -2.603300 -15.330600 -18.810200
N -2.245600 -19.812600 -16.917800
N -2.215700 -15.638900 -19.394900
C -2.203600 -17.704800 -18.121500
O -2.188600 -13.684000 -20.542500
C -1.913400 -14.871700 -20.471700
O -1.897100 -20.990800 -16.876200
C -1.860800 -16.972400 -19.259700
C -1.830200 -19.028800 -18.090300
C -1.218100 -15.562400 -21.605800
C -1.179400 -17.591300 -20.307400
C -1.142900 -19.658500 -19.098400
O -0.994900 -14.921900 -22.640900
N -0.897300 -16.854100 -21.457000
H -0.866200 -20.707600 -19.039100
C -0.799400 -18.930800 -20.220000
H -0.556500 -17.326100 -22.129100
H -0.281700 -19.357400 -21.015900
40
Fragment
H -3.851500 -16.489600 -10.195800
H -3.576800 -18.521000 -9.082600
C -3.333800 -16.916200 -10.991700
H -3.267000 -15.139400 -12.172600
N -3.235900 -18.992900 -9.754700
O -3.138300 -20.925100 -8.570700
C -2.990300 -16.188500 -12.113300
C -2.953800 -18.255700 -10.904300
C -2.915200 -20.284600 -9.605900
C -2.303000 -16.818200 -13.121400
C -2.272500 -18.874600 -11.952000
O -2.236200 -14.856200 -14.335500
C -2.219800 -20.975300 -10.739900
O -1.944600 -22.163000 -10.669200
C -1.929700 -18.142200 -13.090200
N -1.917600 -20.208100 -11.816700
N -1.887600 -16.034400 -14.293900
H -1.529900 -20.516400 -12.401400
H -1.520400 -18.556800 -13.743500
O -1.218800 -16.572100 -15.158500
O -2.914500 -19.274900 -16.053200
H -2.612800 -17.290200 -17.468100
H -2.603300 -15.330600 -18.810200
N -2.245600 -19.812600 -16.917800
N -2.215700 -15.638900 -19.394900
C -2.203600 -17.704800 -18.121500
O -2.188600 -13.684000 -20.542500
C -1.913400 -14.871700 -20.471700
O -1.897100 -20.990800 -16.876200
C -1.860800 -16.972400 -19.259700
C -1.830200 -19.028800 -18.090300
C -1.218100 -15.562400 -21.605800
C -1.179400 -17.591300 -20.307400
C -1.142900 -19.658500 -19.098400
O -0.994900 -14.921900 -22.640900
N -0.897300 -16.854100 -21.457000
H -0.866200 -20.707600 -19.039100
C -0.799400 -18.930800 -20.220000
H -0.556500 -17.326100 -22.129100
H -0.281700 -19.357400 -21.015900
