18
Fragment
O -21.582200 -17.246900 -22.869800
N -20.705500 -16.761100 -23.563600
H -20.661100 -19.412200 -23.567300
O -20.562800 -15.560800 -23.720600
C -19.972500 -19.053300 -24.130200
C -19.814500 -17.665400 -24.264800
H -19.258200 -20.829400 -24.715500
C -19.135400 -19.880600 -24.805200
C -18.822300 -17.164500 -25.039000
H -18.710900 -16.213500 -25.111900
C -18.091300 -19.409000 -25.637400
C -17.972600 -18.001500 -25.719600
H -17.558900 -21.305400 -26.138500
N -17.314600 -20.293800 -26.247000
N -16.928300 -17.384600 -26.499400
O -16.810900 -16.168000 -26.458300
H -16.643900 -20.007500 -27.153900
O -16.198200 -18.090500 -27.172600
42
Fragment
H -30.255700 -16.323100 -18.516500
H -29.768600 -15.697400 -19.870400
H -29.705100 -14.174000 -17.583400
H -29.672500 -18.050300 -19.806800
C -29.498100 -16.188600 -19.090600
H -29.390300 -15.411200 -16.672700
C -29.018500 -14.776800 -17.289800
C -28.954800 -17.491900 -19.498200
H -28.528000 -17.906100 -18.744600
O -28.501400 -15.453400 -18.391200
H -28.326400 -13.438800 -15.937800
H -28.138600 -19.133600 -21.289700
O -28.020100 -17.331500 -20.526700
C -27.938100 -14.001600 -16.611000
H -27.481000 -13.459400 -17.258000
C -27.458600 -18.570800 -20.911900
H -27.073100 -19.004500 -20.147100
O -27.018900 -14.888500 -16.008900
H -26.775400 -17.751100 -22.623000
C -26.401300 -18.301900 -21.931100
H -26.165900 -13.390000 -15.092600
H -26.118900 -19.139000 -22.306900
C -25.883500 -14.227100 -15.468400
H -25.509400 -14.777900 -14.776600
O -25.265900 -17.640500 -21.390700
H -25.211700 -13.524500 -17.252400
C -24.826200 -13.958200 -16.487600
H -24.803700 -19.069600 -20.141500
C -24.346700 -18.527400 -20.788500
O -24.264700 -15.197500 -16.872800
H -24.146200 -13.395400 -16.109800
H -23.958400 -19.090200 -21.461700
O -23.783400 -17.075600 -19.008300
H -23.756800 -14.622900 -18.654900
C -23.330000 -15.037100 -17.901300
C -23.266300 -17.752200 -20.109700
H -22.894500 -17.117800 -20.726800
C -22.786700 -16.340400 -18.308900
H -22.612300 -14.478700 -17.592700
H -22.579700 -18.355000 -19.816100
H -22.516100 -16.831600 -17.529200
H -22.029000 -16.205900 -18.883000
60
Fragment
O -21.582200 -17.246900 -22.869800
N -20.705500 -16.761100 -23.563600
H -20.661100 -19.412200 -23.567300
O -20.562800 -15.560800 -23.720600
C -19.972500 -19.053300 -24.130200
C -19.814500 -17.665400 -24.264800
H -19.258200 -20.829400 -24.715500
C -19.135400 -19.880600 -24.805200
C -18.822300 -17.164500 -25.039000
H -18.710900 -16.213500 -25.111900
C -18.091300 -19.409000 -25.637400
C -17.972600 -18.001500 -25.719600
H -17.558900 -21.305400 -26.138500
N -17.314600 -20.293800 -26.247000
N -16.928300 -17.384600 -26.499400
O -16.810900 -16.168000 -26.458300
H -16.643900 -20.007500 -27.153900
O -16.198200 -18.090500 -27.172600
H -30.255700 -16.323100 -18.516500
H -29.768600 -15.697400 -19.870400
H -29.705100 -14.174000 -17.583400
H -29.672500 -18.050300 -19.806800
C -29.498100 -16.188600 -19.090600
H -29.390300 -15.411200 -16.672700
C -29.018500 -14.776800 -17.289800
C -28.954800 -17.491900 -19.498200
H -28.528000 -17.906100 -18.744600
O -28.501400 -15.453400 -18.391200
H -28.326400 -13.438800 -15.937800
H -28.138600 -19.133600 -21.289700
O -28.020100 -17.331500 -20.526700
C -27.938100 -14.001600 -16.611000
H -27.481000 -13.459400 -17.258000
C -27.458600 -18.570800 -20.911900
H -27.073100 -19.004500 -20.147100
O -27.018900 -14.888500 -16.008900
H -26.775400 -17.751100 -22.623000
C -26.401300 -18.301900 -21.931100
H -26.165900 -13.390000 -15.092600
H -26.118900 -19.139000 -22.306900
C -25.883500 -14.227100 -15.468400
H -25.509400 -14.777900 -14.776600
O -25.265900 -17.640500 -21.390700
H -25.211700 -13.524500 -17.252400
C -24.826200 -13.958200 -16.487600
H -24.803700 -19.069600 -20.141500
C -24.346700 -18.527400 -20.788500
O -24.264700 -15.197500 -16.872800
H -24.146200 -13.395400 -16.109800
H -23.958400 -19.090200 -21.461700
O -23.783400 -17.075600 -19.008300
H -23.756800 -14.622900 -18.654900
C -23.330000 -15.037100 -17.901300
C -23.266300 -17.752200 -20.109700
H -22.894500 -17.117800 -20.726800
C -22.786700 -16.340400 -18.308900
H -22.612300 -14.478700 -17.592700
H -22.579700 -18.355000 -19.816100
H -22.516100 -16.831600 -17.529200
H -22.029000 -16.205900 -18.883000
