18
Fragment
O -21.582200 -17.246900 -22.869800
N -20.705500 -16.761100 -23.563600
H -20.661100 -19.412200 -23.567300
O -20.562800 -15.560800 -23.720600
C -19.972500 -19.053300 -24.130200
C -19.814500 -17.665400 -24.264800
H -19.258200 -20.829400 -24.715500
C -19.135400 -19.880600 -24.805200
C -18.822300 -17.164500 -25.039000
H -18.710900 -16.213500 -25.111900
C -18.091300 -19.409000 -25.637400
C -17.972600 -18.001500 -25.719600
H -17.558900 -21.305400 -26.138500
N -17.314600 -20.293800 -26.247000
N -16.928300 -17.384600 -26.499400
O -16.810900 -16.168000 -26.458300
H -16.643900 -20.007500 -27.153900
O -16.198200 -18.090500 -27.172600
18
Fragment
O -19.939800 -18.090500 -19.576800
H -19.494100 -20.007500 -19.595500
O -19.327100 -16.168000 -20.291100
N -19.209600 -17.384600 -20.250000
N -18.823400 -20.293800 -20.502400
H -18.579100 -21.305400 -20.610900
C -18.165400 -18.001500 -21.029800
C -18.046700 -19.409000 -21.112000
H -17.427000 -16.213500 -21.637500
C -17.315700 -17.164500 -21.710400
C -17.002600 -19.880600 -21.944200
H -16.879700 -20.829400 -22.033900
C -16.323500 -17.665400 -22.484600
C -16.165500 -19.053300 -22.619200
O -15.575200 -15.560800 -23.028800
H -15.476900 -19.412200 -23.182100
N -15.432400 -16.761100 -23.185800
O -14.555800 -17.246900 -23.879600
36
Fragment
O -21.582200 -17.246900 -22.869800
N -20.705500 -16.761100 -23.563600
H -20.661100 -19.412200 -23.567300
O -20.562800 -15.560800 -23.720600
C -19.972500 -19.053300 -24.130200
C -19.814500 -17.665400 -24.264800
H -19.258200 -20.829400 -24.715500
C -19.135400 -19.880600 -24.805200
C -18.822300 -17.164500 -25.039000
H -18.710900 -16.213500 -25.111900
C -18.091300 -19.409000 -25.637400
C -17.972600 -18.001500 -25.719600
H -17.558900 -21.305400 -26.138500
N -17.314600 -20.293800 -26.247000
N -16.928300 -17.384600 -26.499400
O -16.810900 -16.168000 -26.458300
H -16.643900 -20.007500 -27.153900
O -16.198200 -18.090500 -27.172600
O -19.939800 -18.090500 -19.576800
H -19.494100 -20.007500 -19.595500
O -19.327100 -16.168000 -20.291100
N -19.209600 -17.384600 -20.250000
N -18.823400 -20.293800 -20.502400
H -18.579100 -21.305400 -20.610900
C -18.165400 -18.001500 -21.029800
C -18.046700 -19.409000 -21.112000
H -17.427000 -16.213500 -21.637500
C -17.315700 -17.164500 -21.710400
C -17.002600 -19.880600 -21.944200
H -16.879700 -20.829400 -22.033900
C -16.323500 -17.665400 -22.484600
C -16.165500 -19.053300 -22.619200
O -15.575200 -15.560800 -23.028800
H -15.476900 -19.412200 -23.182100
N -15.432400 -16.761100 -23.185800
O -14.555800 -17.246900 -23.879600
