18
Fragment
O -21.582200 -17.246900 -22.869800
N -20.705500 -16.761100 -23.563600
H -20.661100 -19.412200 -23.567300
O -20.562800 -15.560800 -23.720600
C -19.972500 -19.053300 -24.130200
C -19.814500 -17.665400 -24.264800
H -19.258200 -20.829400 -24.715500
C -19.135400 -19.880600 -24.805200
C -18.822300 -17.164500 -25.039000
H -18.710900 -16.213500 -25.111900
C -18.091300 -19.409000 -25.637400
C -17.972600 -18.001500 -25.719600
H -17.558900 -21.305400 -26.138500
N -17.314600 -20.293800 -26.247000
N -16.928300 -17.384600 -26.499400
O -16.810900 -16.168000 -26.458300
H -16.643900 -20.007500 -27.153900
O -16.198200 -18.090500 -27.172600
18
Fragment
O -27.244300 -23.512000 -19.576800
H -26.798600 -25.429000 -19.595500
O -26.631600 -21.589500 -20.291100
N -26.514100 -22.806100 -20.250000
N -26.127900 -25.715300 -20.502400
H -25.883600 -26.726900 -20.610900
C -25.469900 -23.423000 -21.029800
C -25.351200 -24.830500 -21.112000
H -24.731500 -21.635000 -21.637500
C -24.620200 -22.586000 -21.710400
C -24.307100 -25.302100 -21.944200
H -24.184200 -26.250900 -22.033900
C -23.628000 -23.086900 -22.484600
C -23.470000 -24.474800 -22.619200
O -22.879700 -20.982300 -23.028800
H -22.781400 -24.833700 -23.182100
N -22.736900 -22.182600 -23.185800
O -21.860300 -22.668400 -23.879600
36
Fragment
O -21.582200 -17.246900 -22.869800
N -20.705500 -16.761100 -23.563600
H -20.661100 -19.412200 -23.567300
O -20.562800 -15.560800 -23.720600
C -19.972500 -19.053300 -24.130200
C -19.814500 -17.665400 -24.264800
H -19.258200 -20.829400 -24.715500
C -19.135400 -19.880600 -24.805200
C -18.822300 -17.164500 -25.039000
H -18.710900 -16.213500 -25.111900
C -18.091300 -19.409000 -25.637400
C -17.972600 -18.001500 -25.719600
H -17.558900 -21.305400 -26.138500
N -17.314600 -20.293800 -26.247000
N -16.928300 -17.384600 -26.499400
O -16.810900 -16.168000 -26.458300
H -16.643900 -20.007500 -27.153900
O -16.198200 -18.090500 -27.172600
O -27.244300 -23.512000 -19.576800
H -26.798600 -25.429000 -19.595500
O -26.631600 -21.589500 -20.291100
N -26.514100 -22.806100 -20.250000
N -26.127900 -25.715300 -20.502400
H -25.883600 -26.726900 -20.610900
C -25.469900 -23.423000 -21.029800
C -25.351200 -24.830500 -21.112000
H -24.731500 -21.635000 -21.637500
C -24.620200 -22.586000 -21.710400
C -24.307100 -25.302100 -21.944200
H -24.184200 -26.250900 -22.033900
C -23.628000 -23.086900 -22.484600
C -23.470000 -24.474800 -22.619200
O -22.879700 -20.982300 -23.028800
H -22.781400 -24.833700 -23.182100
N -22.736900 -22.182600 -23.185800
O -21.860300 -22.668400 -23.879600
