43
Fragment
H -17.486100 -14.712400 -20.634300
H -17.131700 -14.212800 -22.836300
C -16.653600 -14.864000 -21.018000
C -16.438400 -14.570500 -22.330300
H -15.777400 -15.604700 -19.381000
H -15.694900 -14.958300 -24.919800
C -15.629500 -15.385000 -20.272600
C -15.204700 -14.795000 -22.930000
H -15.126200 -13.500400 -24.586500
C -15.025500 -14.526800 -24.385300
O -14.695800 -15.594900 -26.816800
C -14.391900 -15.585200 -20.821100
C -14.169100 -15.289700 -22.162100
N -13.742500 -15.024400 -24.878300
H -13.700300 -15.920500 -20.297200
C -13.687000 -15.516200 -26.113300
H -13.259500 -13.001800 -23.255200
N -12.939800 -15.557000 -22.753400
C -12.592400 -14.812500 -23.967800
C -12.460200 -13.315700 -23.707200
H -12.398500 -12.851100 -24.556300
C -12.376600 -15.991500 -26.646400
H -12.363000 -15.867100 -27.608300
H -12.294900 -15.609500 -22.215500
H -12.289100 -16.941100 -26.469200
H -11.359400 -16.396800 -24.390900
H -11.345400 -13.362400 -21.982700
H -11.336500 -13.850300 -27.344800
C -11.294100 -15.437500 -24.521100
C -11.248300 -12.970700 -22.865000
O -11.216900 -13.899900 -26.396400
C -11.197200 -15.269300 -26.041600
H -11.189300 -12.008400 -22.762200
H -10.150000 -15.402500 -22.810400
C -10.092600 -14.987500 -23.685600
C -9.985200 -13.485800 -23.505900
F -9.972900 -15.956500 -27.935200
C -9.926100 -15.862200 -26.608400
H -9.856500 -13.060100 -24.367600
F -9.688000 -17.101500 -26.158600
H -9.281300 -15.309200 -24.109500
H -9.222200 -13.275900 -22.945300
F -8.826500 -15.162400 -26.345900
6
Fragment
N -18.601100 -18.251300 -29.635600
C -17.842600 -17.968400 -28.871600
H -17.059800 -16.710700 -27.572000
H -16.943700 -18.211400 -27.134300
C -16.882900 -17.604000 -27.875600
H -16.000400 -17.640900 -28.249900
49
Fragment
H -17.486100 -14.712400 -20.634300
H -17.131700 -14.212800 -22.836300
C -16.653600 -14.864000 -21.018000
C -16.438400 -14.570500 -22.330300
H -15.777400 -15.604700 -19.381000
H -15.694900 -14.958300 -24.919800
C -15.629500 -15.385000 -20.272600
C -15.204700 -14.795000 -22.930000
H -15.126200 -13.500400 -24.586500
C -15.025500 -14.526800 -24.385300
O -14.695800 -15.594900 -26.816800
C -14.391900 -15.585200 -20.821100
C -14.169100 -15.289700 -22.162100
N -13.742500 -15.024400 -24.878300
H -13.700300 -15.920500 -20.297200
C -13.687000 -15.516200 -26.113300
H -13.259500 -13.001800 -23.255200
N -12.939800 -15.557000 -22.753400
C -12.592400 -14.812500 -23.967800
C -12.460200 -13.315700 -23.707200
H -12.398500 -12.851100 -24.556300
C -12.376600 -15.991500 -26.646400
H -12.363000 -15.867100 -27.608300
H -12.294900 -15.609500 -22.215500
H -12.289100 -16.941100 -26.469200
H -11.359400 -16.396800 -24.390900
H -11.345400 -13.362400 -21.982700
H -11.336500 -13.850300 -27.344800
C -11.294100 -15.437500 -24.521100
C -11.248300 -12.970700 -22.865000
O -11.216900 -13.899900 -26.396400
C -11.197200 -15.269300 -26.041600
H -11.189300 -12.008400 -22.762200
H -10.150000 -15.402500 -22.810400
C -10.092600 -14.987500 -23.685600
C -9.985200 -13.485800 -23.505900
F -9.972900 -15.956500 -27.935200
C -9.926100 -15.862200 -26.608400
H -9.856500 -13.060100 -24.367600
F -9.688000 -17.101500 -26.158600
H -9.281300 -15.309200 -24.109500
H -9.222200 -13.275900 -22.945300
F -8.826500 -15.162400 -26.345900
N -18.601100 -18.251300 -29.635600
C -17.842600 -17.968400 -28.871600
H -17.059800 -16.710700 -27.572000
H -16.943700 -18.211400 -27.134300
C -16.882900 -17.604000 -27.875600
H -16.000400 -17.640900 -28.249900
