25
Fragment
H -16.565600 -15.434400 -21.835500
H -16.380200 -15.994400 -20.300700
C -15.903200 -15.776500 -21.144900
O -15.565300 -14.247300 -17.998600
H -15.391200 -16.615400 -21.463400
H -15.267600 -13.856300 -20.544900
H -15.143900 -16.320100 -16.870800
C -14.913200 -14.669800 -20.783300
C -14.808100 -15.123900 -18.333500
N -14.676200 -16.251900 -17.567200
H -14.278600 -14.507900 -21.568100
C -13.980800 -15.011900 -19.605400
C -13.817000 -17.293400 -17.803300
O -13.697500 -18.228100 -17.035900
H -13.505900 -13.011300 -19.359000
C -13.187600 -16.259100 -19.924000
N -13.099000 -17.247600 -18.970600
C -12.952700 -13.864500 -19.415900
O -12.591100 -16.395500 -20.973900
H -12.547800 -17.898200 -19.126400
H -12.506600 -14.202500 -17.440500
H -12.475700 -13.703600 -20.300700
C -11.979200 -14.050800 -18.275300
H -11.394000 -14.874400 -18.382300
H -11.311600 -13.276000 -18.335800
25
Fragment
H -19.594400 -18.366500 -22.358700
H -19.512000 -19.964900 -22.312200
C -18.926800 -19.141300 -22.419200
H -18.430300 -18.794100 -20.393800
H -18.399400 -19.293000 -23.254000
H -18.358200 -22.988700 -21.568100
O -18.314900 -21.486000 -19.720600
C -17.953300 -18.955000 -21.278600
N -17.807000 -22.338100 -21.723900
C -17.718400 -21.349600 -20.770500
H -17.400100 -18.101800 -21.335500
O -17.208500 -23.318600 -23.658600
C -17.089000 -22.383900 -22.891200
C -16.925200 -20.102400 -21.089100
H -16.627400 -19.598400 -19.126400
N -16.229800 -21.342400 -23.127300
C -16.097900 -20.214400 -22.361000
C -15.992800 -19.760300 -19.911200
H -15.762100 -21.410600 -23.823700
H -15.638400 -18.946800 -20.149600
H -15.514800 -21.705900 -19.231100
O -15.340700 -19.337800 -22.695900
C -15.002800 -20.867000 -19.549600
H -14.525800 -21.084900 -20.393800
H -14.340400 -20.524900 -18.859000
50
Fragment
H -16.565600 -15.434400 -21.835500
H -16.380200 -15.994400 -20.300700
C -15.903200 -15.776500 -21.144900
O -15.565300 -14.247300 -17.998600
H -15.391200 -16.615400 -21.463400
H -15.267600 -13.856300 -20.544900
H -15.143900 -16.320100 -16.870800
C -14.913200 -14.669800 -20.783300
C -14.808100 -15.123900 -18.333500
N -14.676200 -16.251900 -17.567200
H -14.278600 -14.507900 -21.568100
C -13.980800 -15.011900 -19.605400
C -13.817000 -17.293400 -17.803300
O -13.697500 -18.228100 -17.035900
H -13.505900 -13.011300 -19.359000
C -13.187600 -16.259100 -19.924000
N -13.099000 -17.247600 -18.970600
C -12.952700 -13.864500 -19.415900
O -12.591100 -16.395500 -20.973900
H -12.547800 -17.898200 -19.126400
H -12.506600 -14.202500 -17.440500
H -12.475700 -13.703600 -20.300700
C -11.979200 -14.050800 -18.275300
H -11.394000 -14.874400 -18.382300
H -11.311600 -13.276000 -18.335800
H -19.594400 -18.366500 -22.358700
H -19.512000 -19.964900 -22.312200
C -18.926800 -19.141300 -22.419200
H -18.430300 -18.794100 -20.393800
H -18.399400 -19.293000 -23.254000
H -18.358200 -22.988700 -21.568100
O -18.314900 -21.486000 -19.720600
C -17.953300 -18.955000 -21.278600
N -17.807000 -22.338100 -21.723900
C -17.718400 -21.349600 -20.770500
H -17.400100 -18.101800 -21.335500
O -17.208500 -23.318600 -23.658600
C -17.089000 -22.383900 -22.891200
C -16.925200 -20.102400 -21.089100
H -16.627400 -19.598400 -19.126400
N -16.229800 -21.342400 -23.127300
C -16.097900 -20.214400 -22.361000
C -15.992800 -19.760300 -19.911200
H -15.762100 -21.410600 -23.823700
H -15.638400 -18.946800 -20.149600
H -15.514800 -21.705900 -19.231100
O -15.340700 -19.337800 -22.695900
C -15.002800 -20.867000 -19.549600
H -14.525800 -21.084900 -20.393800
H -14.340400 -20.524900 -18.859000
