25
Fragment
H -16.565600 -15.434400 -21.835500
H -16.380200 -15.994400 -20.300700
C -15.903200 -15.776500 -21.144900
O -15.565300 -14.247300 -17.998600
H -15.391200 -16.615400 -21.463400
H -15.267600 -13.856300 -20.544900
H -15.143900 -16.320100 -16.870800
C -14.913200 -14.669800 -20.783300
C -14.808100 -15.123900 -18.333500
N -14.676200 -16.251900 -17.567200
H -14.278600 -14.507900 -21.568100
C -13.980800 -15.011900 -19.605400
C -13.817000 -17.293400 -17.803300
O -13.697500 -18.228100 -17.035900
H -13.505900 -13.011300 -19.359000
C -13.187600 -16.259100 -19.924000
N -13.099000 -17.247600 -18.970600
C -12.952700 -13.864500 -19.415900
O -12.591100 -16.395500 -20.973900
H -12.547800 -17.898200 -19.126400
H -12.506600 -14.202500 -17.440500
H -12.475700 -13.703600 -20.300700
C -11.979200 -14.050800 -18.275300
H -11.394000 -14.874400 -18.382300
H -11.311600 -13.276000 -18.335800
25
Fragment
H -14.443400 -17.267000 -24.149300
H -14.361000 -15.668600 -24.195800
C -13.775800 -16.492200 -24.088800
H -13.279300 -16.839400 -26.114200
H -13.248400 -16.340500 -23.254000
H -13.207200 -12.644800 -24.939900
O -13.163900 -14.147500 -26.787400
C -12.802300 -16.678500 -25.229400
N -12.656000 -13.295400 -24.784100
C -12.567400 -14.283900 -25.737500
H -12.249100 -17.531700 -25.172500
O -12.057500 -12.314900 -22.849400
C -11.938000 -13.249600 -23.616800
C -11.774200 -15.531100 -25.418900
H -11.476400 -16.035100 -27.381600
N -11.078800 -14.291100 -23.380700
C -10.946900 -15.419100 -24.147000
C -10.841800 -15.873200 -26.596800
H -10.611100 -14.222900 -22.684300
H -10.487400 -16.686700 -26.358400
H -10.363800 -13.927600 -27.276900
O -10.189700 -16.295700 -23.812100
C -9.851800 -14.766500 -26.958400
H -9.374800 -14.548600 -26.114200
H -9.189400 -15.108600 -27.649000
50
Fragment
H -16.565600 -15.434400 -21.835500
H -16.380200 -15.994400 -20.300700
C -15.903200 -15.776500 -21.144900
O -15.565300 -14.247300 -17.998600
H -15.391200 -16.615400 -21.463400
H -15.267600 -13.856300 -20.544900
H -15.143900 -16.320100 -16.870800
C -14.913200 -14.669800 -20.783300
C -14.808100 -15.123900 -18.333500
N -14.676200 -16.251900 -17.567200
H -14.278600 -14.507900 -21.568100
C -13.980800 -15.011900 -19.605400
C -13.817000 -17.293400 -17.803300
O -13.697500 -18.228100 -17.035900
H -13.505900 -13.011300 -19.359000
C -13.187600 -16.259100 -19.924000
N -13.099000 -17.247600 -18.970600
C -12.952700 -13.864500 -19.415900
O -12.591100 -16.395500 -20.973900
H -12.547800 -17.898200 -19.126400
H -12.506600 -14.202500 -17.440500
H -12.475700 -13.703600 -20.300700
C -11.979200 -14.050800 -18.275300
H -11.394000 -14.874400 -18.382300
H -11.311600 -13.276000 -18.335800
H -14.443400 -17.267000 -24.149300
H -14.361000 -15.668600 -24.195800
C -13.775800 -16.492200 -24.088800
H -13.279300 -16.839400 -26.114200
H -13.248400 -16.340500 -23.254000
H -13.207200 -12.644800 -24.939900
O -13.163900 -14.147500 -26.787400
C -12.802300 -16.678500 -25.229400
N -12.656000 -13.295400 -24.784100
C -12.567400 -14.283900 -25.737500
H -12.249100 -17.531700 -25.172500
O -12.057500 -12.314900 -22.849400
C -11.938000 -13.249600 -23.616800
C -11.774200 -15.531100 -25.418900
H -11.476400 -16.035100 -27.381600
N -11.078800 -14.291100 -23.380700
C -10.946900 -15.419100 -24.147000
C -10.841800 -15.873200 -26.596800
H -10.611100 -14.222900 -22.684300
H -10.487400 -16.686700 -26.358400
H -10.363800 -13.927600 -27.276900
O -10.189700 -16.295700 -23.812100
C -9.851800 -14.766500 -26.958400
H -9.374800 -14.548600 -26.114200
H -9.189400 -15.108600 -27.649000
