14
Fragment
H -11.806600 -20.696800 -13.566400
H -11.267700 -22.017800 -12.980600
C -10.995100 -21.187600 -13.447500
H -10.912500 -22.068700 -15.331600
C -10.350800 -21.506100 -14.752700
H -10.245200 -20.676000 -15.219600
O -10.112300 -20.408500 -12.636500
H -9.172800 -21.918600 -11.949600
O -9.128900 -22.197400 -14.576800
C -8.904000 -21.140600 -12.425300
H -8.384500 -20.615900 -11.856200
C -8.251500 -21.455200 -13.732500
H -8.006400 -20.555900 -14.232800
H -7.466200 -22.015200 -13.567400
24
Fragment
N -12.454500 -14.682900 -16.103200
C -11.387200 -14.854100 -15.739500
N -10.867900 -17.966500 -17.229500
H -10.810900 -12.085800 -14.929600
H -10.371000 -12.111900 -12.229700
C -10.247300 -17.320800 -16.529700
C -10.036700 -15.100500 -15.271000
C -9.914400 -12.284400 -14.856900
C -9.734200 -14.549500 -13.856100
N -9.718000 -13.227900 -13.753800
H -9.709300 -12.609200 -15.696300
N -9.674100 -14.822200 -18.795200
O -9.570800 -15.355000 -12.947900
C -9.534000 -12.616500 -12.433200
C -9.446100 -16.449000 -15.679300
H -9.331400 -13.272300 -11.832600
C -9.308500 -14.934900 -17.723900
H -9.204900 -11.602800 -14.778300
C -8.927500 -15.143600 -16.341500
H -8.737200 -12.126200 -12.461700
C -8.537200 -17.156600 -14.788100
N -7.803900 -17.757600 -14.158100
C -7.589700 -14.723400 -15.956700
N -6.537900 -14.458300 -15.611700
38
Fragment
H -11.806600 -20.696800 -13.566400
H -11.267700 -22.017800 -12.980600
C -10.995100 -21.187600 -13.447500
H -10.912500 -22.068700 -15.331600
C -10.350800 -21.506100 -14.752700
H -10.245200 -20.676000 -15.219600
O -10.112300 -20.408500 -12.636500
H -9.172800 -21.918600 -11.949600
O -9.128900 -22.197400 -14.576800
C -8.904000 -21.140600 -12.425300
H -8.384500 -20.615900 -11.856200
C -8.251500 -21.455200 -13.732500
H -8.006400 -20.555900 -14.232800
H -7.466200 -22.015200 -13.567400
N -12.454500 -14.682900 -16.103200
C -11.387200 -14.854100 -15.739500
N -10.867900 -17.966500 -17.229500
H -10.810900 -12.085800 -14.929600
H -10.371000 -12.111900 -12.229700
C -10.247300 -17.320800 -16.529700
C -10.036700 -15.100500 -15.271000
C -9.914400 -12.284400 -14.856900
C -9.734200 -14.549500 -13.856100
N -9.718000 -13.227900 -13.753800
H -9.709300 -12.609200 -15.696300
N -9.674100 -14.822200 -18.795200
O -9.570800 -15.355000 -12.947900
C -9.534000 -12.616500 -12.433200
C -9.446100 -16.449000 -15.679300
H -9.331400 -13.272300 -11.832600
C -9.308500 -14.934900 -17.723900
H -9.204900 -11.602800 -14.778300
C -8.927500 -15.143600 -16.341500
H -8.737200 -12.126200 -12.461700
C -8.537200 -17.156600 -14.788100
N -7.803900 -17.757600 -14.158100
C -7.589700 -14.723400 -15.956700
N -6.537900 -14.458300 -15.611700
