18
Fragment
N -17.793000 -13.481200 -29.632400
C -16.758600 -13.571200 -29.153400
N -15.442600 -16.104800 -31.229700
C -15.440800 -13.707200 -28.595600
N -15.385900 -13.307800 -26.034200
C -15.372400 -13.494300 -27.154200
C -15.036100 -15.491400 -30.358600
N -14.848500 -12.251100 -31.792600
C -14.591700 -12.694400 -30.771800
C -14.493500 -14.744200 -29.239500
C -14.253400 -13.242000 -29.462300
H -13.941300 -17.174600 -29.016300
C -13.530100 -15.489200 -28.317200
N -13.447100 -16.785100 -28.469700
C -13.133900 -12.550700 -28.851600
O -12.915800 -14.827000 -27.489500
H -12.890500 -17.199900 -27.914000
N -12.275800 -11.898900 -28.475600
14
Fragment
H -24.059200 -14.811100 -32.482100
C -23.074000 -14.761700 -32.295200
O -23.007500 -14.637700 -30.862500
H -23.002400 -12.760300 -32.727500
H -22.517500 -15.538600 -32.545300
H -22.500100 -13.631500 -33.838800
C -22.479500 -13.539300 -32.938600
H -21.646400 -14.333800 -29.480000
C -21.639800 -14.453400 -30.470500
H -21.575000 -12.465100 -30.831300
H -21.161400 -15.233500 -30.755500
O -21.132800 -13.351700 -32.538900
C -21.062800 -13.242000 -31.121800
H -20.153300 -13.130100 -30.977400
32
Fragment
N -17.793000 -13.481200 -29.632400
C -16.758600 -13.571200 -29.153400
N -15.442600 -16.104800 -31.229700
C -15.440800 -13.707200 -28.595600
N -15.385900 -13.307800 -26.034200
C -15.372400 -13.494300 -27.154200
C -15.036100 -15.491400 -30.358600
N -14.848500 -12.251100 -31.792600
C -14.591700 -12.694400 -30.771800
C -14.493500 -14.744200 -29.239500
C -14.253400 -13.242000 -29.462300
H -13.941300 -17.174600 -29.016300
C -13.530100 -15.489200 -28.317200
N -13.447100 -16.785100 -28.469700
C -13.133900 -12.550700 -28.851600
O -12.915800 -14.827000 -27.489500
H -12.890500 -17.199900 -27.914000
N -12.275800 -11.898900 -28.475600
H -24.059200 -14.811100 -32.482100
C -23.074000 -14.761700 -32.295200
O -23.007500 -14.637700 -30.862500
H -23.002400 -12.760300 -32.727500
H -22.517500 -15.538600 -32.545300
H -22.500100 -13.631500 -33.838800
C -22.479500 -13.539300 -32.938600
H -21.646400 -14.333800 -29.480000
C -21.639800 -14.453400 -30.470500
H -21.575000 -12.465100 -30.831300
H -21.161400 -15.233500 -30.755500
O -21.132800 -13.351700 -32.538900
C -21.062800 -13.242000 -31.121800
H -20.153300 -13.130100 -30.977400
