14
Fragment
H -11.806600 -20.696800 -13.566400
H -11.267700 -22.017800 -12.980600
C -10.995100 -21.187600 -13.447500
H -10.912500 -22.068700 -15.331600
C -10.350800 -21.506100 -14.752700
H -10.245200 -20.676000 -15.219600
O -10.112300 -20.408500 -12.636500
H -9.172800 -21.918600 -11.949600
O -9.128900 -22.197400 -14.576800
C -8.904000 -21.140600 -12.425300
H -8.384500 -20.615900 -11.856200
C -8.251500 -21.455200 -13.732500
H -8.006400 -20.555900 -14.232800
H -7.466200 -22.015200 -13.567400
24
Fragment
N -16.829700 -20.984800 -18.788300
C -15.777900 -21.249900 -18.443300
N -15.563700 -24.284100 -20.242000
C -14.830400 -23.683100 -19.612000
H -14.630400 -18.652700 -21.938400
C -14.440100 -21.670100 -18.058600
H -14.162700 -18.129300 -19.621800
C -14.059100 -21.461400 -16.676200
H -14.036200 -19.798800 -22.567400
C -13.921500 -22.975500 -18.720800
C -13.833600 -19.143000 -21.966900
O -13.796800 -21.881500 -21.452200
N -13.693500 -21.348700 -15.604900
H -13.658300 -19.135700 -18.703800
N -13.649600 -19.754400 -20.646200
C -13.633400 -21.076000 -20.544000
C -13.453200 -18.810900 -19.543200
C -13.330900 -21.627000 -19.129100
C -13.120300 -23.847300 -17.870300
H -12.996600 -18.638400 -22.170300
H -12.556700 -18.612300 -19.470400
N -12.499700 -24.493000 -17.170500
C -11.980400 -21.380600 -18.660600
N -10.913100 -21.209400 -18.296900
38
Fragment
H -11.806600 -20.696800 -13.566400
H -11.267700 -22.017800 -12.980600
C -10.995100 -21.187600 -13.447500
H -10.912500 -22.068700 -15.331600
C -10.350800 -21.506100 -14.752700
H -10.245200 -20.676000 -15.219600
O -10.112300 -20.408500 -12.636500
H -9.172800 -21.918600 -11.949600
O -9.128900 -22.197400 -14.576800
C -8.904000 -21.140600 -12.425300
H -8.384500 -20.615900 -11.856200
C -8.251500 -21.455200 -13.732500
H -8.006400 -20.555900 -14.232800
H -7.466200 -22.015200 -13.567400
N -16.829700 -20.984800 -18.788300
C -15.777900 -21.249900 -18.443300
N -15.563700 -24.284100 -20.242000
C -14.830400 -23.683100 -19.612000
H -14.630400 -18.652700 -21.938400
C -14.440100 -21.670100 -18.058600
H -14.162700 -18.129300 -19.621800
C -14.059100 -21.461400 -16.676200
H -14.036200 -19.798800 -22.567400
C -13.921500 -22.975500 -18.720800
C -13.833600 -19.143000 -21.966900
O -13.796800 -21.881500 -21.452200
N -13.693500 -21.348700 -15.604900
H -13.658300 -19.135700 -18.703800
N -13.649600 -19.754400 -20.646200
C -13.633400 -21.076000 -20.544000
C -13.453200 -18.810900 -19.543200
C -13.330900 -21.627000 -19.129100
C -13.120300 -23.847300 -17.870300
H -12.996600 -18.638400 -22.170300
H -12.556700 -18.612300 -19.470400
N -12.499700 -24.493000 -17.170500
C -11.980400 -21.380600 -18.660600
N -10.913100 -21.209400 -18.296900
