14
Fragment
H -11.806600 -20.696800 -13.566400
H -11.267700 -22.017800 -12.980600
C -10.995100 -21.187600 -13.447500
H -10.912500 -22.068700 -15.331600
C -10.350800 -21.506100 -14.752700
H -10.245200 -20.676000 -15.219600
O -10.112300 -20.408500 -12.636500
H -9.172800 -21.918600 -11.949600
O -9.128900 -22.197400 -14.576800
C -8.904000 -21.140600 -12.425300
H -8.384500 -20.615900 -11.856200
C -8.251500 -21.455200 -13.732500
H -8.006400 -20.555900 -14.232800
H -7.466200 -22.015200 -13.567400
24
Fragment
N -14.458000 -17.949600 -11.188900
C -13.390700 -17.778400 -10.825200
N -12.871300 -14.666000 -12.315200
H -12.814300 -20.546700 -10.015300
H -12.374500 -20.520600 -7.315400
C -12.250700 -15.311700 -11.615400
C -12.040100 -17.532000 -10.356700
C -11.917900 -20.348100 -9.942600
C -11.737600 -18.083000 -8.941800
N -11.721500 -19.404600 -8.839500
H -11.712800 -20.023300 -10.782000
N -11.677600 -17.810300 -13.880900
O -11.574300 -17.277500 -8.033600
C -11.537500 -20.016000 -7.518900
C -11.449500 -16.183500 -10.765000
H -11.334900 -19.360200 -6.918300
C -11.312000 -17.697600 -12.809600
H -11.208400 -21.029700 -9.864000
C -10.931000 -17.488900 -11.427200
H -10.740600 -20.506300 -7.547400
C -10.540700 -15.475900 -9.873800
N -9.807400 -14.874900 -9.243800
C -9.593200 -17.909100 -11.042400
N -8.541400 -18.174200 -10.697400
38
Fragment
H -11.806600 -20.696800 -13.566400
H -11.267700 -22.017800 -12.980600
C -10.995100 -21.187600 -13.447500
H -10.912500 -22.068700 -15.331600
C -10.350800 -21.506100 -14.752700
H -10.245200 -20.676000 -15.219600
O -10.112300 -20.408500 -12.636500
H -9.172800 -21.918600 -11.949600
O -9.128900 -22.197400 -14.576800
C -8.904000 -21.140600 -12.425300
H -8.384500 -20.615900 -11.856200
C -8.251500 -21.455200 -13.732500
H -8.006400 -20.555900 -14.232800
H -7.466200 -22.015200 -13.567400
N -14.458000 -17.949600 -11.188900
C -13.390700 -17.778400 -10.825200
N -12.871300 -14.666000 -12.315200
H -12.814300 -20.546700 -10.015300
H -12.374500 -20.520600 -7.315400
C -12.250700 -15.311700 -11.615400
C -12.040100 -17.532000 -10.356700
C -11.917900 -20.348100 -9.942600
C -11.737600 -18.083000 -8.941800
N -11.721500 -19.404600 -8.839500
H -11.712800 -20.023300 -10.782000
N -11.677600 -17.810300 -13.880900
O -11.574300 -17.277500 -8.033600
C -11.537500 -20.016000 -7.518900
C -11.449500 -16.183500 -10.765000
H -11.334900 -19.360200 -6.918300
C -11.312000 -17.697600 -12.809600
H -11.208400 -21.029700 -9.864000
C -10.931000 -17.488900 -11.427200
H -10.740600 -20.506300 -7.547400
C -10.540700 -15.475900 -9.873800
N -9.807400 -14.874900 -9.243800
C -9.593200 -17.909100 -11.042400
N -8.541400 -18.174200 -10.697400
