18
Fragment
N -17.793000 -13.481200 -29.632400
C -16.758600 -13.571200 -29.153400
N -15.442600 -16.104800 -31.229700
C -15.440800 -13.707200 -28.595600
N -15.385900 -13.307800 -26.034200
C -15.372400 -13.494300 -27.154200
C -15.036100 -15.491400 -30.358600
N -14.848500 -12.251100 -31.792600
C -14.591700 -12.694400 -30.771800
C -14.493500 -14.744200 -29.239500
C -14.253400 -13.242000 -29.462300
H -13.941300 -17.174600 -29.016300
C -13.530100 -15.489200 -28.317200
N -13.447100 -16.785100 -28.469700
C -13.133900 -12.550700 -28.851600
O -12.915800 -14.827000 -27.489500
H -12.890500 -17.199900 -27.914000
N -12.275800 -11.898900 -28.475600
18
Fragment
N -12.284100 -10.046700 -25.649200
H -11.669400 -4.745700 -26.210800
O -11.644100 -7.118600 -26.635400
C -11.426000 -9.394900 -25.273200
N -11.112800 -5.160500 -25.655200
C -11.029800 -6.456400 -25.807600
H -10.618600 -4.771000 -25.108500
C -10.306600 -8.703600 -24.662500
C -10.066400 -7.201400 -24.885300
C -9.968200 -9.251200 -23.353100
N -9.711400 -9.694500 -22.332300
C -9.523800 -6.454200 -23.766200
C -9.187500 -8.451300 -26.970600
N -9.174000 -8.637800 -28.090600
C -9.119100 -8.238400 -25.529200
N -9.117300 -5.840800 -22.895200
C -7.801400 -8.374400 -24.971400
N -6.767000 -8.464400 -24.492400
36
Fragment
N -17.793000 -13.481200 -29.632400
C -16.758600 -13.571200 -29.153400
N -15.442600 -16.104800 -31.229700
C -15.440800 -13.707200 -28.595600
N -15.385900 -13.307800 -26.034200
C -15.372400 -13.494300 -27.154200
C -15.036100 -15.491400 -30.358600
N -14.848500 -12.251100 -31.792600
C -14.591700 -12.694400 -30.771800
C -14.493500 -14.744200 -29.239500
C -14.253400 -13.242000 -29.462300
H -13.941300 -17.174600 -29.016300
C -13.530100 -15.489200 -28.317200
N -13.447100 -16.785100 -28.469700
C -13.133900 -12.550700 -28.851600
O -12.915800 -14.827000 -27.489500
H -12.890500 -17.199900 -27.914000
N -12.275800 -11.898900 -28.475600
N -12.284100 -10.046700 -25.649200
H -11.669400 -4.745700 -26.210800
O -11.644100 -7.118600 -26.635400
C -11.426000 -9.394900 -25.273200
N -11.112800 -5.160500 -25.655200
C -11.029800 -6.456400 -25.807600
H -10.618600 -4.771000 -25.108500
C -10.306600 -8.703600 -24.662500
C -10.066400 -7.201400 -24.885300
C -9.968200 -9.251200 -23.353100
N -9.711400 -9.694500 -22.332300
C -9.523800 -6.454200 -23.766200
C -9.187500 -8.451300 -26.970600
N -9.174000 -8.637800 -28.090600
C -9.119100 -8.238400 -25.529200
N -9.117300 -5.840800 -22.895200
C -7.801400 -8.374400 -24.971400
N -6.767000 -8.464400 -24.492400
