14
Fragment
H -11.806600 -20.696800 -13.566400
H -11.267700 -22.017800 -12.980600
C -10.995100 -21.187600 -13.447500
H -10.912500 -22.068700 -15.331600
C -10.350800 -21.506100 -14.752700
H -10.245200 -20.676000 -15.219600
O -10.112300 -20.408500 -12.636500
H -9.172800 -21.918600 -11.949600
O -9.128900 -22.197400 -14.576800
C -8.904000 -21.140600 -12.425300
H -8.384500 -20.615900 -11.856200
C -8.251500 -21.455200 -13.732500
H -8.006400 -20.555900 -14.232800
H -7.466200 -22.015200 -13.567400
24
Fragment
N -12.454500 -27.735900 -16.103200
C -11.387200 -27.907100 -15.739500
N -10.867900 -31.019500 -17.229500
H -10.810900 -25.138800 -14.929600
H -10.371000 -25.164900 -12.229700
C -10.247300 -30.373800 -16.529700
C -10.036700 -28.153500 -15.271000
C -9.914400 -25.337400 -14.856900
C -9.734200 -27.602500 -13.856100
N -9.718000 -26.280900 -13.753800
H -9.709300 -25.662200 -15.696300
N -9.674100 -27.875200 -18.795200
O -9.570800 -28.408000 -12.947900
C -9.534000 -25.669500 -12.433200
C -9.446100 -29.502000 -15.679300
H -9.331400 -26.325300 -11.832600
C -9.308500 -27.987900 -17.723900
H -9.204900 -24.655800 -14.778300
C -8.927500 -28.196600 -16.341500
H -8.737200 -25.179200 -12.461700
C -8.537200 -30.209600 -14.788100
N -7.803900 -30.810600 -14.158100
C -7.589700 -27.776400 -15.956700
N -6.537900 -27.511300 -15.611700
38
Fragment
H -11.806600 -20.696800 -13.566400
H -11.267700 -22.017800 -12.980600
C -10.995100 -21.187600 -13.447500
H -10.912500 -22.068700 -15.331600
C -10.350800 -21.506100 -14.752700
H -10.245200 -20.676000 -15.219600
O -10.112300 -20.408500 -12.636500
H -9.172800 -21.918600 -11.949600
O -9.128900 -22.197400 -14.576800
C -8.904000 -21.140600 -12.425300
H -8.384500 -20.615900 -11.856200
C -8.251500 -21.455200 -13.732500
H -8.006400 -20.555900 -14.232800
H -7.466200 -22.015200 -13.567400
N -12.454500 -27.735900 -16.103200
C -11.387200 -27.907100 -15.739500
N -10.867900 -31.019500 -17.229500
H -10.810900 -25.138800 -14.929600
H -10.371000 -25.164900 -12.229700
C -10.247300 -30.373800 -16.529700
C -10.036700 -28.153500 -15.271000
C -9.914400 -25.337400 -14.856900
C -9.734200 -27.602500 -13.856100
N -9.718000 -26.280900 -13.753800
H -9.709300 -25.662200 -15.696300
N -9.674100 -27.875200 -18.795200
O -9.570800 -28.408000 -12.947900
C -9.534000 -25.669500 -12.433200
C -9.446100 -29.502000 -15.679300
H -9.331400 -26.325300 -11.832600
C -9.308500 -27.987900 -17.723900
H -9.204900 -24.655800 -14.778300
C -8.927500 -28.196600 -16.341500
H -8.737200 -25.179200 -12.461700
C -8.537200 -30.209600 -14.788100
N -7.803900 -30.810600 -14.158100
C -7.589700 -27.776400 -15.956700
N -6.537900 -27.511300 -15.611700
