18
Fragment
N -17.793000 -13.481200 -29.632400
C -16.758600 -13.571200 -29.153400
N -15.442600 -16.104800 -31.229700
C -15.440800 -13.707200 -28.595600
N -15.385900 -13.307800 -26.034200
C -15.372400 -13.494300 -27.154200
C -15.036100 -15.491400 -30.358600
N -14.848500 -12.251100 -31.792600
C -14.591700 -12.694400 -30.771800
C -14.493500 -14.744200 -29.239500
C -14.253400 -13.242000 -29.462300
H -13.941300 -17.174600 -29.016300
C -13.530100 -15.489200 -28.317200
N -13.447100 -16.785100 -28.469700
C -13.133900 -12.550700 -28.851600
O -12.915800 -14.827000 -27.489500
H -12.890500 -17.199900 -27.914000
N -12.275800 -11.898900 -28.475600
14
Fragment
H -17.504800 -20.615700 -28.678900
H -17.096600 -21.648200 -29.842600
C -16.800100 -21.055700 -29.148000
H -16.660000 -19.284700 -30.282800
H -16.199300 -20.653000 -26.797200
C -16.023800 -19.899200 -29.716300
O -15.927500 -21.868800 -28.320600
O -15.477200 -19.094900 -28.665200
C -15.406100 -21.053500 -27.262700
H -15.373200 -20.334800 -30.275600
H -14.783000 -21.666900 -26.725000
C -14.645000 -19.900300 -27.832800
H -14.343800 -19.257300 -27.033500
H -13.850300 -20.287600 -28.336200
32
Fragment
N -17.793000 -13.481200 -29.632400
C -16.758600 -13.571200 -29.153400
N -15.442600 -16.104800 -31.229700
C -15.440800 -13.707200 -28.595600
N -15.385900 -13.307800 -26.034200
C -15.372400 -13.494300 -27.154200
C -15.036100 -15.491400 -30.358600
N -14.848500 -12.251100 -31.792600
C -14.591700 -12.694400 -30.771800
C -14.493500 -14.744200 -29.239500
C -14.253400 -13.242000 -29.462300
H -13.941300 -17.174600 -29.016300
C -13.530100 -15.489200 -28.317200
N -13.447100 -16.785100 -28.469700
C -13.133900 -12.550700 -28.851600
O -12.915800 -14.827000 -27.489500
H -12.890500 -17.199900 -27.914000
N -12.275800 -11.898900 -28.475600
H -17.504800 -20.615700 -28.678900
H -17.096600 -21.648200 -29.842600
C -16.800100 -21.055700 -29.148000
H -16.660000 -19.284700 -30.282800
H -16.199300 -20.653000 -26.797200
C -16.023800 -19.899200 -29.716300
O -15.927500 -21.868800 -28.320600
O -15.477200 -19.094900 -28.665200
C -15.406100 -21.053500 -27.262700
H -15.373200 -20.334800 -30.275600
H -14.783000 -21.666900 -26.725000
C -14.645000 -19.900300 -27.832800
H -14.343800 -19.257300 -27.033500
H -13.850300 -20.287600 -28.336200
