29
Fragment
H -16.922000 -26.507000 -9.984000
O -16.317300 -28.808300 -9.850000
N -16.237700 -26.562300 -10.083200
H -16.140300 -24.735500 -10.671800
C -15.669800 -27.743800 -9.913000
H -15.512600 -24.540500 -8.391200
C -15.496300 -25.348200 -10.357600
C -14.828700 -24.755000 -9.122400
H -14.778800 -25.613200 -11.070000
H -14.404800 -23.939200 -9.339600
O -14.310800 -23.224100 -6.663700
C -14.228900 -27.764900 -9.784100
H -13.970800 -29.594900 -10.403900
C -13.743100 -25.616400 -8.522900
N -13.536200 -28.907400 -10.102700
C -13.503200 -24.131000 -6.428400
C -13.339300 -26.869400 -9.203500
C -13.197600 -25.281600 -7.343500
N -12.777300 -24.256100 -5.289500
C -12.234100 -28.730300 -9.768900
N -12.230100 -25.983700 -6.626800
C -12.055200 -27.491900 -9.206400
C -12.031000 -25.366100 -5.445900
H -11.830600 -26.653300 -6.856300
N -11.174500 -25.830900 -4.572800
H -11.129500 -25.531900 -3.808200
H -11.086800 -27.059600 -8.905200
Br -10.968800 -30.058700 -10.119400
H -10.774600 -26.507000 -4.749400
29
Fragment
H -23.110400 -30.375000 -6.364000
O -22.505800 -28.073700 -6.230000
N -22.426100 -30.319700 -6.463200
H -22.328800 -32.146500 -7.051800
C -21.858300 -29.138200 -6.293000
H -21.701100 -32.341500 -4.771200
C -21.684800 -31.533800 -6.737600
C -21.017100 -32.127000 -5.502400
H -20.967300 -31.268800 -7.450000
H -20.593300 -32.942800 -5.719600
O -20.499300 -33.657900 -3.043700
C -20.417300 -29.117100 -6.164100
H -20.159200 -27.287100 -6.783900
C -19.931600 -31.265600 -4.902900
N -19.724700 -27.974600 -6.482700
C -19.691700 -32.751000 -2.808400
C -19.527700 -30.012600 -5.583500
C -19.386000 -31.600400 -3.723500
N -18.965700 -32.625900 -1.669500
C -18.422600 -28.151700 -6.148900
N -18.418600 -30.898300 -3.006800
C -18.243700 -29.390100 -5.586400
C -18.219500 -31.515900 -1.825900
H -18.019100 -30.228700 -3.236300
N -17.363000 -31.051100 -0.952800
H -17.318000 -31.350100 -0.188200
H -17.275300 -29.822400 -5.285200
Br -17.157200 -26.823300 -6.499400
H -16.963000 -30.375000 -1.129400
58
Fragment
H -16.922000 -26.507000 -9.984000
O -16.317300 -28.808300 -9.850000
N -16.237700 -26.562300 -10.083200
H -16.140300 -24.735500 -10.671800
C -15.669800 -27.743800 -9.913000
H -15.512600 -24.540500 -8.391200
C -15.496300 -25.348200 -10.357600
C -14.828700 -24.755000 -9.122400
H -14.778800 -25.613200 -11.070000
H -14.404800 -23.939200 -9.339600
O -14.310800 -23.224100 -6.663700
C -14.228900 -27.764900 -9.784100
H -13.970800 -29.594900 -10.403900
C -13.743100 -25.616400 -8.522900
N -13.536200 -28.907400 -10.102700
C -13.503200 -24.131000 -6.428400
C -13.339300 -26.869400 -9.203500
C -13.197600 -25.281600 -7.343500
N -12.777300 -24.256100 -5.289500
C -12.234100 -28.730300 -9.768900
N -12.230100 -25.983700 -6.626800
C -12.055200 -27.491900 -9.206400
C -12.031000 -25.366100 -5.445900
H -11.830600 -26.653300 -6.856300
N -11.174500 -25.830900 -4.572800
H -11.129500 -25.531900 -3.808200
H -11.086800 -27.059600 -8.905200
Br -10.968800 -30.058700 -10.119400
H -10.774600 -26.507000 -4.749400
H -23.110400 -30.375000 -6.364000
O -22.505800 -28.073700 -6.230000
N -22.426100 -30.319700 -6.463200
H -22.328800 -32.146500 -7.051800
C -21.858300 -29.138200 -6.293000
H -21.701100 -32.341500 -4.771200
C -21.684800 -31.533800 -6.737600
C -21.017100 -32.127000 -5.502400
H -20.967300 -31.268800 -7.450000
H -20.593300 -32.942800 -5.719600
O -20.499300 -33.657900 -3.043700
C -20.417300 -29.117100 -6.164100
H -20.159200 -27.287100 -6.783900
C -19.931600 -31.265600 -4.902900
N -19.724700 -27.974600 -6.482700
C -19.691700 -32.751000 -2.808400
C -19.527700 -30.012600 -5.583500
C -19.386000 -31.600400 -3.723500
N -18.965700 -32.625900 -1.669500
C -18.422600 -28.151700 -6.148900
N -18.418600 -30.898300 -3.006800
C -18.243700 -29.390100 -5.586400
C -18.219500 -31.515900 -1.825900
H -18.019100 -30.228700 -3.236300
N -17.363000 -31.051100 -0.952800
H -17.318000 -31.350100 -0.188200
H -17.275300 -29.822400 -5.285200
Br -17.157200 -26.823300 -6.499400
H -16.963000 -30.375000 -1.129400
