29
Fragment
H -16.922000 -26.507000 -9.984000
O -16.317300 -28.808300 -9.850000
N -16.237700 -26.562300 -10.083200
H -16.140300 -24.735500 -10.671800
C -15.669800 -27.743800 -9.913000
H -15.512600 -24.540500 -8.391200
C -15.496300 -25.348200 -10.357600
C -14.828700 -24.755000 -9.122400
H -14.778800 -25.613200 -11.070000
H -14.404800 -23.939200 -9.339600
O -14.310800 -23.224100 -6.663700
C -14.228900 -27.764900 -9.784100
H -13.970800 -29.594900 -10.403900
C -13.743100 -25.616400 -8.522900
N -13.536200 -28.907400 -10.102700
C -13.503200 -24.131000 -6.428400
C -13.339300 -26.869400 -9.203500
C -13.197600 -25.281600 -7.343500
N -12.777300 -24.256100 -5.289500
C -12.234100 -28.730300 -9.768900
N -12.230100 -25.983700 -6.626800
C -12.055200 -27.491900 -9.206400
C -12.031000 -25.366100 -5.445900
H -11.830600 -26.653300 -6.856300
N -11.174500 -25.830900 -4.572800
H -11.129500 -25.531900 -3.808200
H -11.086800 -27.059600 -8.905200
Br -10.968800 -30.058700 -10.119400
H -10.774600 -26.507000 -4.749400
29
Fragment
H -17.355900 -26.507000 -2.744000
O -16.751300 -28.808300 -2.610000
N -16.671600 -26.562300 -2.843200
H -16.574200 -24.735500 -3.431800
C -16.103800 -27.743800 -2.673000
H -15.946600 -24.540500 -1.151200
C -15.930200 -25.348200 -3.117500
C -15.262600 -24.755000 -1.882400
H -15.212700 -25.613200 -3.830000
H -14.838700 -23.939200 -2.099600
O -14.744700 -23.224100 0.576300
C -14.662800 -27.764900 -2.544100
H -14.404700 -29.594900 -3.163900
C -14.177100 -25.616400 -1.282900
N -13.970100 -28.907400 -2.862700
C -13.937200 -24.131000 0.811600
C -13.773200 -26.869400 -1.963500
C -13.631500 -25.281600 -0.103500
N -13.211200 -24.256100 1.950500
C -12.668000 -28.730300 -2.528900
N -12.664100 -25.983700 0.613200
C -12.489200 -27.491900 -1.966400
C -12.465000 -25.366100 1.794100
H -12.264600 -26.653300 0.383700
N -11.608400 -25.830900 2.667200
H -11.563500 -25.531900 3.431800
H -11.520700 -27.059600 -1.665200
Br -11.402700 -30.058700 -2.879400
H -11.208500 -26.507000 2.490600
58
Fragment
H -16.922000 -26.507000 -9.984000
O -16.317300 -28.808300 -9.850000
N -16.237700 -26.562300 -10.083200
H -16.140300 -24.735500 -10.671800
C -15.669800 -27.743800 -9.913000
H -15.512600 -24.540500 -8.391200
C -15.496300 -25.348200 -10.357600
C -14.828700 -24.755000 -9.122400
H -14.778800 -25.613200 -11.070000
H -14.404800 -23.939200 -9.339600
O -14.310800 -23.224100 -6.663700
C -14.228900 -27.764900 -9.784100
H -13.970800 -29.594900 -10.403900
C -13.743100 -25.616400 -8.522900
N -13.536200 -28.907400 -10.102700
C -13.503200 -24.131000 -6.428400
C -13.339300 -26.869400 -9.203500
C -13.197600 -25.281600 -7.343500
N -12.777300 -24.256100 -5.289500
C -12.234100 -28.730300 -9.768900
N -12.230100 -25.983700 -6.626800
C -12.055200 -27.491900 -9.206400
C -12.031000 -25.366100 -5.445900
H -11.830600 -26.653300 -6.856300
N -11.174500 -25.830900 -4.572800
H -11.129500 -25.531900 -3.808200
H -11.086800 -27.059600 -8.905200
Br -10.968800 -30.058700 -10.119400
H -10.774600 -26.507000 -4.749400
H -17.355900 -26.507000 -2.744000
O -16.751300 -28.808300 -2.610000
N -16.671600 -26.562300 -2.843200
H -16.574200 -24.735500 -3.431800
C -16.103800 -27.743800 -2.673000
H -15.946600 -24.540500 -1.151200
C -15.930200 -25.348200 -3.117500
C -15.262600 -24.755000 -1.882400
H -15.212700 -25.613200 -3.830000
H -14.838700 -23.939200 -2.099600
O -14.744700 -23.224100 0.576300
C -14.662800 -27.764900 -2.544100
H -14.404700 -29.594900 -3.163900
C -14.177100 -25.616400 -1.282900
N -13.970100 -28.907400 -2.862700
C -13.937200 -24.131000 0.811600
C -13.773200 -26.869400 -1.963500
C -13.631500 -25.281600 -0.103500
N -13.211200 -24.256100 1.950500
C -12.668000 -28.730300 -2.528900
N -12.664100 -25.983700 0.613200
C -12.489200 -27.491900 -1.966400
C -12.465000 -25.366100 1.794100
H -12.264600 -26.653300 0.383700
N -11.608400 -25.830900 2.667200
H -11.563500 -25.531900 3.431800
H -11.520700 -27.059600 -1.665200
Br -11.402700 -30.058700 -2.879400
H -11.208500 -26.507000 2.490600
