29
Fragment
H -16.922000 -26.507000 -9.984000
O -16.317300 -28.808300 -9.850000
N -16.237700 -26.562300 -10.083200
H -16.140300 -24.735500 -10.671800
C -15.669800 -27.743800 -9.913000
H -15.512600 -24.540500 -8.391200
C -15.496300 -25.348200 -10.357600
C -14.828700 -24.755000 -9.122400
H -14.778800 -25.613200 -11.070000
H -14.404800 -23.939200 -9.339600
O -14.310800 -23.224100 -6.663700
C -14.228900 -27.764900 -9.784100
H -13.970800 -29.594900 -10.403900
C -13.743100 -25.616400 -8.522900
N -13.536200 -28.907400 -10.102700
C -13.503200 -24.131000 -6.428400
C -13.339300 -26.869400 -9.203500
C -13.197600 -25.281600 -7.343500
N -12.777300 -24.256100 -5.289500
C -12.234100 -28.730300 -9.768900
N -12.230100 -25.983700 -6.626800
C -12.055200 -27.491900 -9.206400
C -12.031000 -25.366100 -5.445900
H -11.830600 -26.653300 -6.856300
N -11.174500 -25.830900 -4.572800
H -11.129500 -25.531900 -3.808200
H -11.086800 -27.059600 -8.905200
Br -10.968800 -30.058700 -10.119400
H -10.774600 -26.507000 -4.749400
6
Fragment
H -15.179200 -29.351100 -6.183000
C -14.066200 -29.217800 -6.500800
H -14.028200 -28.766000 -7.254500
H -13.836100 -30.781300 -5.676200
H -13.585600 -28.587300 -5.871600
O -13.412300 -30.440000 -6.331400
35
Fragment
H -16.922000 -26.507000 -9.984000
O -16.317300 -28.808300 -9.850000
N -16.237700 -26.562300 -10.083200
H -16.140300 -24.735500 -10.671800
C -15.669800 -27.743800 -9.913000
H -15.512600 -24.540500 -8.391200
C -15.496300 -25.348200 -10.357600
C -14.828700 -24.755000 -9.122400
H -14.778800 -25.613200 -11.070000
H -14.404800 -23.939200 -9.339600
O -14.310800 -23.224100 -6.663700
C -14.228900 -27.764900 -9.784100
H -13.970800 -29.594900 -10.403900
C -13.743100 -25.616400 -8.522900
N -13.536200 -28.907400 -10.102700
C -13.503200 -24.131000 -6.428400
C -13.339300 -26.869400 -9.203500
C -13.197600 -25.281600 -7.343500
N -12.777300 -24.256100 -5.289500
C -12.234100 -28.730300 -9.768900
N -12.230100 -25.983700 -6.626800
C -12.055200 -27.491900 -9.206400
C -12.031000 -25.366100 -5.445900
H -11.830600 -26.653300 -6.856300
N -11.174500 -25.830900 -4.572800
H -11.129500 -25.531900 -3.808200
H -11.086800 -27.059600 -8.905200
Br -10.968800 -30.058700 -10.119400
H -10.774600 -26.507000 -4.749400
H -15.179200 -29.351100 -6.183000
C -14.066200 -29.217800 -6.500800
H -14.028200 -28.766000 -7.254500
H -13.836100 -30.781300 -5.676200
H -13.585600 -28.587300 -5.871600
O -13.412300 -30.440000 -6.331400
