29
Fragment
H -16.922000 -26.507000 -9.984000
O -16.317300 -28.808300 -9.850000
N -16.237700 -26.562300 -10.083200
H -16.140300 -24.735500 -10.671800
C -15.669800 -27.743800 -9.913000
H -15.512600 -24.540500 -8.391200
C -15.496300 -25.348200 -10.357600
C -14.828700 -24.755000 -9.122400
H -14.778800 -25.613200 -11.070000
H -14.404800 -23.939200 -9.339600
O -14.310800 -23.224100 -6.663700
C -14.228900 -27.764900 -9.784100
H -13.970800 -29.594900 -10.403900
C -13.743100 -25.616400 -8.522900
N -13.536200 -28.907400 -10.102700
C -13.503200 -24.131000 -6.428400
C -13.339300 -26.869400 -9.203500
C -13.197600 -25.281600 -7.343500
N -12.777300 -24.256100 -5.289500
C -12.234100 -28.730300 -9.768900
N -12.230100 -25.983700 -6.626800
C -12.055200 -27.491900 -9.206400
C -12.031000 -25.366100 -5.445900
H -11.830600 -26.653300 -6.856300
N -11.174500 -25.830900 -4.572800
H -11.129500 -25.531900 -3.808200
H -11.086800 -27.059600 -8.905200
Br -10.968800 -30.058700 -10.119400
H -10.774600 -26.507000 -4.749400
29
Fragment
H -10.733500 -30.375000 -13.604000
O -10.128900 -28.073700 -13.470000
N -10.049200 -30.319700 -13.703200
H -9.951800 -32.146500 -14.291800
C -9.481400 -29.138200 -13.533000
H -9.324200 -32.341500 -12.011200
C -9.307800 -31.533800 -13.977600
C -8.640200 -32.127000 -12.742400
H -8.590300 -31.268800 -14.690000
H -8.216300 -32.942800 -12.959600
O -8.122300 -33.657900 -10.283700
C -8.040400 -29.117100 -13.404100
H -7.782300 -27.287100 -14.023900
C -7.554700 -31.265600 -12.142900
N -7.347700 -27.974600 -13.722700
C -7.314700 -32.751000 -10.048400
C -7.150800 -30.012600 -12.823500
C -7.009100 -31.600400 -10.963500
N -6.588800 -32.625900 -8.909600
C -6.045600 -28.151700 -13.388900
N -6.041700 -30.898300 -10.246800
C -5.866800 -29.390100 -12.826400
C -5.842500 -31.515900 -9.065900
H -5.642200 -30.228700 -10.476300
N -4.986000 -31.051100 -8.192800
H -4.941100 -31.350100 -7.428200
H -4.898300 -29.822400 -12.525200
Br -4.780300 -26.823300 -13.739400
H -4.586100 -30.375000 -8.369400
58
Fragment
H -16.922000 -26.507000 -9.984000
O -16.317300 -28.808300 -9.850000
N -16.237700 -26.562300 -10.083200
H -16.140300 -24.735500 -10.671800
C -15.669800 -27.743800 -9.913000
H -15.512600 -24.540500 -8.391200
C -15.496300 -25.348200 -10.357600
C -14.828700 -24.755000 -9.122400
H -14.778800 -25.613200 -11.070000
H -14.404800 -23.939200 -9.339600
O -14.310800 -23.224100 -6.663700
C -14.228900 -27.764900 -9.784100
H -13.970800 -29.594900 -10.403900
C -13.743100 -25.616400 -8.522900
N -13.536200 -28.907400 -10.102700
C -13.503200 -24.131000 -6.428400
C -13.339300 -26.869400 -9.203500
C -13.197600 -25.281600 -7.343500
N -12.777300 -24.256100 -5.289500
C -12.234100 -28.730300 -9.768900
N -12.230100 -25.983700 -6.626800
C -12.055200 -27.491900 -9.206400
C -12.031000 -25.366100 -5.445900
H -11.830600 -26.653300 -6.856300
N -11.174500 -25.830900 -4.572800
H -11.129500 -25.531900 -3.808200
H -11.086800 -27.059600 -8.905200
Br -10.968800 -30.058700 -10.119400
H -10.774600 -26.507000 -4.749400
H -10.733500 -30.375000 -13.604000
O -10.128900 -28.073700 -13.470000
N -10.049200 -30.319700 -13.703200
H -9.951800 -32.146500 -14.291800
C -9.481400 -29.138200 -13.533000
H -9.324200 -32.341500 -12.011200
C -9.307800 -31.533800 -13.977600
C -8.640200 -32.127000 -12.742400
H -8.590300 -31.268800 -14.690000
H -8.216300 -32.942800 -12.959600
O -8.122300 -33.657900 -10.283700
C -8.040400 -29.117100 -13.404100
H -7.782300 -27.287100 -14.023900
C -7.554700 -31.265600 -12.142900
N -7.347700 -27.974600 -13.722700
C -7.314700 -32.751000 -10.048400
C -7.150800 -30.012600 -12.823500
C -7.009100 -31.600400 -10.963500
N -6.588800 -32.625900 -8.909600
C -6.045600 -28.151700 -13.388900
N -6.041700 -30.898300 -10.246800
C -5.866800 -29.390100 -12.826400
C -5.842500 -31.515900 -9.065900
H -5.642200 -30.228700 -10.476300
N -4.986000 -31.051100 -8.192800
H -4.941100 -31.350100 -7.428200
H -4.898300 -29.822400 -12.525200
Br -4.780300 -26.823300 -13.739400
H -4.586100 -30.375000 -8.369400
