3
Fragment
H -12.465800 -15.356400 -24.356800
O -11.932000 -15.954600 -24.546500
H -11.800700 -15.693400 -25.322800
43
Fragment
H -20.900600 -17.652500 -21.569200
H -20.515600 -16.499200 -19.599300
O -20.241400 -18.745700 -23.689000
C -20.095100 -17.212200 -21.424300
C -19.854200 -16.538100 -20.251300
N -19.348500 -17.909500 -23.649500
C -19.098700 -17.214300 -22.376500
O -18.665700 -17.612400 -24.618100
C -18.631500 -15.910400 -20.031400
H -18.483100 -15.473300 -19.223200
H -18.027400 -12.196600 -19.475100
C -17.882800 -16.589700 -22.190500
H -17.772100 -13.070800 -20.579100
O -17.680000 -13.463700 -22.556200
N -17.639400 -12.841200 -19.801100
C -17.634900 -15.923000 -20.987200
H -17.235100 -16.611900 -22.857800
C -16.704100 -13.417400 -19.036600
N -16.488100 -12.766400 -17.854300
C -16.479400 -13.775500 -22.761000
H -16.335100 -12.742200 -24.418900
C -16.232300 -15.326900 -20.737200
C -16.040400 -14.594900 -19.416600
N -15.869700 -13.245700 -23.899300
C -15.671800 -14.586500 -21.950900
H -15.669000 -11.897500 -15.711200
H -15.654300 -16.113700 -20.655000
C -15.548800 -13.253000 -17.056100
N -15.251400 -12.620000 -15.923200
C -15.079100 -15.089900 -18.526200
N -14.882300 -14.399000 -17.346400
H -14.707900 -12.754900 -25.943800
H -14.642400 -12.932900 -15.402400
C -14.583900 -13.490000 -24.221500
O -14.361000 -16.124200 -18.711800
C -14.322600 -14.684400 -22.278900
H -14.316900 -14.705500 -16.775500
N -14.114400 -12.962300 -25.371400
N -13.782700 -14.186200 -23.438100
H -13.630500 -15.682900 -20.682600
N -13.431400 -15.321600 -21.490400
H -13.329000 -13.249900 -25.598800
H -12.620800 -15.303700 -21.734800
46
Fragment
H -12.465800 -15.356400 -24.356800
O -11.932000 -15.954600 -24.546500
H -11.800700 -15.693400 -25.322800
H -20.900600 -17.652500 -21.569200
H -20.515600 -16.499200 -19.599300
O -20.241400 -18.745700 -23.689000
C -20.095100 -17.212200 -21.424300
C -19.854200 -16.538100 -20.251300
N -19.348500 -17.909500 -23.649500
C -19.098700 -17.214300 -22.376500
O -18.665700 -17.612400 -24.618100
C -18.631500 -15.910400 -20.031400
H -18.483100 -15.473300 -19.223200
H -18.027400 -12.196600 -19.475100
C -17.882800 -16.589700 -22.190500
H -17.772100 -13.070800 -20.579100
O -17.680000 -13.463700 -22.556200
N -17.639400 -12.841200 -19.801100
C -17.634900 -15.923000 -20.987200
H -17.235100 -16.611900 -22.857800
C -16.704100 -13.417400 -19.036600
N -16.488100 -12.766400 -17.854300
C -16.479400 -13.775500 -22.761000
H -16.335100 -12.742200 -24.418900
C -16.232300 -15.326900 -20.737200
C -16.040400 -14.594900 -19.416600
N -15.869700 -13.245700 -23.899300
C -15.671800 -14.586500 -21.950900
H -15.669000 -11.897500 -15.711200
H -15.654300 -16.113700 -20.655000
C -15.548800 -13.253000 -17.056100
N -15.251400 -12.620000 -15.923200
C -15.079100 -15.089900 -18.526200
N -14.882300 -14.399000 -17.346400
H -14.707900 -12.754900 -25.943800
H -14.642400 -12.932900 -15.402400
C -14.583900 -13.490000 -24.221500
O -14.361000 -16.124200 -18.711800
C -14.322600 -14.684400 -22.278900
H -14.316900 -14.705500 -16.775500
N -14.114400 -12.962300 -25.371400
N -13.782700 -14.186200 -23.438100
H -13.630500 -15.682900 -20.682600
N -13.431400 -15.321600 -21.490400
H -13.329000 -13.249900 -25.598800
H -12.620800 -15.303700 -21.734800
