20
Fragment
O -15.295700 -19.720500 -16.850100
H -14.620300 -16.290400 -13.909500
H -14.374500 -17.335300 -12.767400
H -14.341000 -18.162300 -15.122000
H -14.332800 -21.252300 -18.158100
H -14.089900 -15.815600 -12.513200
C -14.079600 -20.024700 -16.971800
C -14.060200 -16.519400 -13.164000
O -13.687400 -20.935400 -17.763300
C -13.439100 -18.344300 -15.256300
C -13.061300 -19.311700 -16.183000
O -12.726200 -16.694700 -13.611200
C -12.492700 -17.656700 -14.539700
C -11.725700 -19.590300 -16.371400
H -11.469400 -20.249400 -16.975400
C -11.133300 -17.928200 -14.761400
C -10.766900 -18.891900 -15.662900
H -10.381700 -16.638500 -13.564300
O -10.159200 -17.245700 -14.115100
H -9.865700 -19.077400 -15.799000
20
Fragment
O -22.996700 -19.720500 -16.850100
H -22.321300 -16.290400 -13.909500
H -22.075500 -17.335300 -12.767400
H -22.042000 -18.162300 -15.122000
H -22.033800 -21.252300 -18.158100
H -21.790900 -15.815600 -12.513200
C -21.780600 -20.024700 -16.971800
C -21.761200 -16.519400 -13.164000
O -21.388400 -20.935400 -17.763300
C -21.140100 -18.344300 -15.256300
C -20.762300 -19.311700 -16.183000
O -20.427200 -16.694700 -13.611200
C -20.193700 -17.656700 -14.539700
C -19.426700 -19.590300 -16.371400
H -19.170400 -20.249400 -16.975400
C -18.834300 -17.928200 -14.761400
C -18.467900 -18.891900 -15.662900
H -18.082700 -16.638500 -13.564300
O -17.860200 -17.245700 -14.115100
H -17.566700 -19.077400 -15.799000
40
Fragment
O -15.295700 -19.720500 -16.850100
H -14.620300 -16.290400 -13.909500
H -14.374500 -17.335300 -12.767400
H -14.341000 -18.162300 -15.122000
H -14.332800 -21.252300 -18.158100
H -14.089900 -15.815600 -12.513200
C -14.079600 -20.024700 -16.971800
C -14.060200 -16.519400 -13.164000
O -13.687400 -20.935400 -17.763300
C -13.439100 -18.344300 -15.256300
C -13.061300 -19.311700 -16.183000
O -12.726200 -16.694700 -13.611200
C -12.492700 -17.656700 -14.539700
C -11.725700 -19.590300 -16.371400
H -11.469400 -20.249400 -16.975400
C -11.133300 -17.928200 -14.761400
C -10.766900 -18.891900 -15.662900
H -10.381700 -16.638500 -13.564300
O -10.159200 -17.245700 -14.115100
H -9.865700 -19.077400 -15.799000
O -22.996700 -19.720500 -16.850100
H -22.321300 -16.290400 -13.909500
H -22.075500 -17.335300 -12.767400
H -22.042000 -18.162300 -15.122000
H -22.033800 -21.252300 -18.158100
H -21.790900 -15.815600 -12.513200
C -21.780600 -20.024700 -16.971800
C -21.761200 -16.519400 -13.164000
O -21.388400 -20.935400 -17.763300
C -21.140100 -18.344300 -15.256300
C -20.762300 -19.311700 -16.183000
O -20.427200 -16.694700 -13.611200
C -20.193700 -17.656700 -14.539700
C -19.426700 -19.590300 -16.371400
H -19.170400 -20.249400 -16.975400
C -18.834300 -17.928200 -14.761400
C -18.467900 -18.891900 -15.662900
H -18.082700 -16.638500 -13.564300
O -17.860200 -17.245700 -14.115100
H -17.566700 -19.077400 -15.799000
