42
Fragment
H -23.652400 -25.493100 -21.398600
C -22.925600 -24.912500 -21.388600
H -22.735300 -24.748300 -23.379700
H -22.698500 -24.846000 -19.389900
C -22.389900 -24.446700 -22.571500
C -22.375600 -24.511900 -20.195700
H -21.620600 -21.373400 -26.355700
C -21.367200 -23.555800 -22.576500
C -21.345300 -23.612200 -20.213200
H -21.184400 -19.319100 -27.300600
H -20.981300 -23.326600 -19.406200
H -20.973700 -24.752000 -24.863300
C -20.834000 -23.121600 -21.382300
C -20.786900 -22.993000 -23.827100
C -20.786800 -21.223400 -26.739200
C -20.683100 -23.875300 -24.978600
C -20.528600 -19.978600 -27.305600
O -20.368400 -21.832000 -23.838200
C -20.211500 -23.552400 -26.186600
H -20.138200 -22.504200 -21.371000
H -20.085500 -24.264900 -26.769300
C -19.865600 -22.235400 -26.720400
H -19.589200 -17.810500 -28.478400
C -19.289700 -19.722100 -27.878200
C -18.944300 -18.478900 -28.443400
C -18.612000 -22.030400 -27.300600
C -18.312000 -20.746800 -27.854400
H -17.761200 -23.885200 -26.953500
C -17.720100 -18.220500 -28.933300
C -17.579500 -23.042300 -27.300600
H -17.539200 -17.389400 -29.309200
C -16.997300 -20.481400 -28.378200
C -16.694300 -19.216300 -28.881900
C -16.350800 -22.772700 -27.799300
C -16.008400 -21.507300 -28.310500
H -15.709800 -23.447300 -27.803000
C -15.393200 -18.978300 -29.343100
H -15.179700 -18.144800 -29.698900
C -14.720900 -21.188200 -28.793000
C -14.433100 -19.942900 -29.280400
H -14.055000 -21.836500 -28.779200
H -13.571300 -19.752600 -29.572400
16
Fragment
N -11.412600 -21.854400 -30.153800
C -10.350900 -21.927100 -30.498400
N -9.336800 -25.249900 -29.752800
C -8.969700 -22.000900 -30.918200
C -8.872300 -24.314900 -30.186400
H -8.850200 -20.094700 -31.591100
C -8.365300 -20.880500 -31.482000
C -8.251100 -23.156300 -30.772800
C -7.036900 -20.937000 -31.880500
C -6.922800 -23.212800 -31.171300
H -6.437800 -23.998600 -31.062300
C -6.415800 -19.778400 -32.466900
C -6.318400 -22.092400 -31.735200
N -5.951300 -18.843400 -32.900500
C -4.937100 -22.166200 -32.154900
N -3.875400 -22.238900 -32.499500
58
Fragment
H -23.652400 -25.493100 -21.398600
C -22.925600 -24.912500 -21.388600
H -22.735300 -24.748300 -23.379700
H -22.698500 -24.846000 -19.389900
C -22.389900 -24.446700 -22.571500
C -22.375600 -24.511900 -20.195700
H -21.620600 -21.373400 -26.355700
C -21.367200 -23.555800 -22.576500
C -21.345300 -23.612200 -20.213200
H -21.184400 -19.319100 -27.300600
H -20.981300 -23.326600 -19.406200
H -20.973700 -24.752000 -24.863300
C -20.834000 -23.121600 -21.382300
C -20.786900 -22.993000 -23.827100
C -20.786800 -21.223400 -26.739200
C -20.683100 -23.875300 -24.978600
C -20.528600 -19.978600 -27.305600
O -20.368400 -21.832000 -23.838200
C -20.211500 -23.552400 -26.186600
H -20.138200 -22.504200 -21.371000
H -20.085500 -24.264900 -26.769300
C -19.865600 -22.235400 -26.720400
H -19.589200 -17.810500 -28.478400
C -19.289700 -19.722100 -27.878200
C -18.944300 -18.478900 -28.443400
C -18.612000 -22.030400 -27.300600
C -18.312000 -20.746800 -27.854400
H -17.761200 -23.885200 -26.953500
C -17.720100 -18.220500 -28.933300
C -17.579500 -23.042300 -27.300600
H -17.539200 -17.389400 -29.309200
C -16.997300 -20.481400 -28.378200
C -16.694300 -19.216300 -28.881900
C -16.350800 -22.772700 -27.799300
C -16.008400 -21.507300 -28.310500
H -15.709800 -23.447300 -27.803000
C -15.393200 -18.978300 -29.343100
H -15.179700 -18.144800 -29.698900
C -14.720900 -21.188200 -28.793000
C -14.433100 -19.942900 -29.280400
H -14.055000 -21.836500 -28.779200
H -13.571300 -19.752600 -29.572400
N -11.412600 -21.854400 -30.153800
C -10.350900 -21.927100 -30.498400
N -9.336800 -25.249900 -29.752800
C -8.969700 -22.000900 -30.918200
C -8.872300 -24.314900 -30.186400
H -8.850200 -20.094700 -31.591100
C -8.365300 -20.880500 -31.482000
C -8.251100 -23.156300 -30.772800
C -7.036900 -20.937000 -31.880500
C -6.922800 -23.212800 -31.171300
H -6.437800 -23.998600 -31.062300
C -6.415800 -19.778400 -32.466900
C -6.318400 -22.092400 -31.735200
N -5.951300 -18.843400 -32.900500
C -4.937100 -22.166200 -32.154900
N -3.875400 -22.238900 -32.499500
