20
Fragment
O -15.295700 -19.720500 -16.850100
H -14.620300 -16.290400 -13.909500
H -14.374500 -17.335300 -12.767400
H -14.341000 -18.162300 -15.122000
H -14.332800 -21.252300 -18.158100
H -14.089900 -15.815600 -12.513200
C -14.079600 -20.024700 -16.971800
C -14.060200 -16.519400 -13.164000
O -13.687400 -20.935400 -17.763300
C -13.439100 -18.344300 -15.256300
C -13.061300 -19.311700 -16.183000
O -12.726200 -16.694700 -13.611200
C -12.492700 -17.656700 -14.539700
C -11.725700 -19.590300 -16.371400
H -11.469400 -20.249400 -16.975400
C -11.133300 -17.928200 -14.761400
C -10.766900 -18.891900 -15.662900
H -10.381700 -16.638500 -13.564300
O -10.159200 -17.245700 -14.115100
H -9.865700 -19.077400 -15.799000
20
Fragment
H -18.526900 -10.144900 -11.244800
O -18.233500 -11.976600 -12.928800
H -18.011000 -12.583800 -13.479500
C -17.625800 -10.330400 -11.380900
C -17.259300 -11.294100 -12.282400
H -16.923300 -8.972900 -10.068400
C -16.666900 -9.632000 -10.672400
C -15.900000 -11.565600 -12.504200
O -15.666500 -12.527600 -13.432700
C -15.331400 -9.910600 -10.860800
C -14.953500 -10.878000 -11.787500
O -14.705200 -8.286900 -9.280500
C -14.332500 -12.702800 -13.879800
C -14.313100 -9.197600 -10.072000
H -14.302800 -13.406700 -14.530700
H -14.059800 -7.970000 -8.885700
H -14.051700 -11.060000 -11.921800
H -14.018200 -11.887000 -14.276400
H -13.772400 -12.931900 -13.134300
O -13.097000 -9.501800 -10.193700
40
Fragment
O -15.295700 -19.720500 -16.850100
H -14.620300 -16.290400 -13.909500
H -14.374500 -17.335300 -12.767400
H -14.341000 -18.162300 -15.122000
H -14.332800 -21.252300 -18.158100
H -14.089900 -15.815600 -12.513200
C -14.079600 -20.024700 -16.971800
C -14.060200 -16.519400 -13.164000
O -13.687400 -20.935400 -17.763300
C -13.439100 -18.344300 -15.256300
C -13.061300 -19.311700 -16.183000
O -12.726200 -16.694700 -13.611200
C -12.492700 -17.656700 -14.539700
C -11.725700 -19.590300 -16.371400
H -11.469400 -20.249400 -16.975400
C -11.133300 -17.928200 -14.761400
C -10.766900 -18.891900 -15.662900
H -10.381700 -16.638500 -13.564300
O -10.159200 -17.245700 -14.115100
H -9.865700 -19.077400 -15.799000
H -18.526900 -10.144900 -11.244800
O -18.233500 -11.976600 -12.928800
H -18.011000 -12.583800 -13.479500
C -17.625800 -10.330400 -11.380900
C -17.259300 -11.294100 -12.282400
H -16.923300 -8.972900 -10.068400
C -16.666900 -9.632000 -10.672400
C -15.900000 -11.565600 -12.504200
O -15.666500 -12.527600 -13.432700
C -15.331400 -9.910600 -10.860800
C -14.953500 -10.878000 -11.787500
O -14.705200 -8.286900 -9.280500
C -14.332500 -12.702800 -13.879800
C -14.313100 -9.197600 -10.072000
H -14.302800 -13.406700 -14.530700
H -14.059800 -7.970000 -8.885700
H -14.051700 -11.060000 -11.921800
H -14.018200 -11.887000 -14.276400
H -13.772400 -12.931900 -13.134300
O -13.097000 -9.501800 -10.193700
