20
Fragment
O -15.295700 -19.720500 -16.850100
H -14.620300 -16.290400 -13.909500
H -14.374500 -17.335300 -12.767400
H -14.341000 -18.162300 -15.122000
H -14.332800 -21.252300 -18.158100
H -14.089900 -15.815600 -12.513200
C -14.079600 -20.024700 -16.971800
C -14.060200 -16.519400 -13.164000
O -13.687400 -20.935400 -17.763300
C -13.439100 -18.344300 -15.256300
C -13.061300 -19.311700 -16.183000
O -12.726200 -16.694700 -13.611200
C -12.492700 -17.656700 -14.539700
C -11.725700 -19.590300 -16.371400
H -11.469400 -20.249400 -16.975400
C -11.133300 -17.928200 -14.761400
C -10.766900 -18.891900 -15.662900
H -10.381700 -16.638500 -13.564300
O -10.159200 -17.245700 -14.115100
H -9.865700 -19.077400 -15.799000
16
Fragment
N -13.524000 -13.916800 -10.501100
C -12.536100 -13.548500 -10.074700
H -12.050900 -11.802100 -8.204200
C -11.275200 -13.103200 -9.532000
C -11.254800 -12.159100 -8.526900
N -10.165600 -15.367600 -11.930800
C -10.131600 -14.613900 -11.086200
C -10.094800 -13.640000 -10.029700
C -10.042300 -11.745100 -7.999600
C -10.005500 -10.771100 -6.943100
N -9.971400 -10.017500 -6.098400
C -8.882300 -13.226000 -9.502300
C -8.861800 -12.281900 -8.497200
H -8.086100 -13.583000 -9.825000
C -7.600900 -11.836600 -7.954500
N -6.613100 -11.468200 -7.528100
36
Fragment
O -15.295700 -19.720500 -16.850100
H -14.620300 -16.290400 -13.909500
H -14.374500 -17.335300 -12.767400
H -14.341000 -18.162300 -15.122000
H -14.332800 -21.252300 -18.158100
H -14.089900 -15.815600 -12.513200
C -14.079600 -20.024700 -16.971800
C -14.060200 -16.519400 -13.164000
O -13.687400 -20.935400 -17.763300
C -13.439100 -18.344300 -15.256300
C -13.061300 -19.311700 -16.183000
O -12.726200 -16.694700 -13.611200
C -12.492700 -17.656700 -14.539700
C -11.725700 -19.590300 -16.371400
H -11.469400 -20.249400 -16.975400
C -11.133300 -17.928200 -14.761400
C -10.766900 -18.891900 -15.662900
H -10.381700 -16.638500 -13.564300
O -10.159200 -17.245700 -14.115100
H -9.865700 -19.077400 -15.799000
N -13.524000 -13.916800 -10.501100
C -12.536100 -13.548500 -10.074700
H -12.050900 -11.802100 -8.204200
C -11.275200 -13.103200 -9.532000
C -11.254800 -12.159100 -8.526900
N -10.165600 -15.367600 -11.930800
C -10.131600 -14.613900 -11.086200
C -10.094800 -13.640000 -10.029700
C -10.042300 -11.745100 -7.999600
C -10.005500 -10.771100 -6.943100
N -9.971400 -10.017500 -6.098400
C -8.882300 -13.226000 -9.502300
C -8.861800 -12.281900 -8.497200
H -8.086100 -13.583000 -9.825000
C -7.600900 -11.836600 -7.954500
N -6.613100 -11.468200 -7.528100
