18
Fragment
O -18.342100 -15.642600 -27.092900
N -17.385800 -14.879200 -27.145300
O -17.380000 -13.876700 -27.851300
H -16.913200 -16.940300 -25.581900
C -16.224400 -15.165200 -26.322900
C -16.185100 -16.314300 -25.565900
H -15.225500 -13.475700 -26.873100
C -15.173900 -14.264500 -26.328700
C -15.071700 -16.543300 -24.784200
H -14.713300 -17.340300 -24.251400
C -14.058400 -14.490400 -25.560100
C -14.009700 -15.651700 -24.744900
H -13.069000 -12.884300 -26.091400
H -13.010900 -16.499600 -23.359100
N -12.994000 -13.616100 -25.590700
N -12.906900 -15.899100 -23.976300
H -12.371600 -15.214100 -23.731800
H -12.354100 -13.677200 -25.123400
18
Fragment
H -22.041000 -8.588200 -25.825000
H -22.023400 -10.125100 -27.216600
N -21.488200 -10.810100 -26.972100
N -21.401000 -8.527100 -25.357700
H -21.384200 -11.410600 -27.589300
H -21.326100 -7.795300 -24.857000
C -20.385300 -10.562700 -26.203500
C -20.336600 -9.401400 -25.388300
H -19.681700 -12.251300 -26.697000
C -19.323300 -11.454300 -26.164200
C -19.221100 -9.175500 -24.619700
H -19.169600 -8.386700 -24.075300
C -18.209900 -11.225300 -25.382500
C -18.170600 -10.076200 -24.625500
H -17.481800 -11.851300 -25.366500
O -17.015100 -8.787700 -23.097100
N -17.009300 -9.790200 -23.803100
O -16.053000 -10.553600 -23.855500
36
Fragment
O -18.342100 -15.642600 -27.092900
N -17.385800 -14.879200 -27.145300
O -17.380000 -13.876700 -27.851300
H -16.913200 -16.940300 -25.581900
C -16.224400 -15.165200 -26.322900
C -16.185100 -16.314300 -25.565900
H -15.225500 -13.475700 -26.873100
C -15.173900 -14.264500 -26.328700
C -15.071700 -16.543300 -24.784200
H -14.713300 -17.340300 -24.251400
C -14.058400 -14.490400 -25.560100
C -14.009700 -15.651700 -24.744900
H -13.069000 -12.884300 -26.091400
H -13.010900 -16.499600 -23.359100
N -12.994000 -13.616100 -25.590700
N -12.906900 -15.899100 -23.976300
H -12.371600 -15.214100 -23.731800
H -12.354100 -13.677200 -25.123400
H -22.041000 -8.588200 -25.825000
H -22.023400 -10.125100 -27.216600
N -21.488200 -10.810100 -26.972100
N -21.401000 -8.527100 -25.357700
H -21.384200 -11.410600 -27.589300
H -21.326100 -7.795300 -24.857000
C -20.385300 -10.562700 -26.203500
C -20.336600 -9.401400 -25.388300
H -19.681700 -12.251300 -26.697000
C -19.323300 -11.454300 -26.164200
C -19.221100 -9.175500 -24.619700
H -19.169600 -8.386700 -24.075300
C -18.209900 -11.225300 -25.382500
C -18.170600 -10.076200 -24.625500
H -17.481800 -11.851300 -25.366500
O -17.015100 -8.787700 -23.097100
N -17.009300 -9.790200 -23.803100
O -16.053000 -10.553600 -23.855500
