18
Fragment
O -18.342100 -15.642600 -27.092900
N -17.385800 -14.879200 -27.145300
O -17.380000 -13.876700 -27.851300
H -16.913200 -16.940300 -25.581900
C -16.224400 -15.165200 -26.322900
C -16.185100 -16.314300 -25.565900
H -15.225500 -13.475700 -26.873100
C -15.173900 -14.264500 -26.328700
C -15.071700 -16.543300 -24.784200
H -14.713300 -17.340300 -24.251400
C -14.058400 -14.490400 -25.560100
C -14.009700 -15.651700 -24.744900
H -13.069000 -12.884300 -26.091400
H -13.010900 -16.499600 -23.359100
N -12.994000 -13.616100 -25.590700
N -12.906900 -15.899100 -23.976300
H -12.371600 -15.214100 -23.731800
H -12.354100 -13.677200 -25.123400
42
Fragment
H -16.181000 -21.547800 -28.068200
H -16.055500 -19.536700 -26.991000
H -15.484200 -20.534100 -29.040600
C -15.397700 -21.011500 -28.212300
C -15.238400 -20.033400 -27.076900
H -15.217800 -17.647600 -28.034700
H -15.079500 -20.529000 -26.263200
H -15.050400 -23.195700 -29.446700
H -14.554300 -18.583000 -29.103200
C -14.427200 -18.143300 -28.260300
O -14.255500 -21.846100 -28.263300
C -14.255000 -22.657200 -29.432200
H -14.233900 -22.096400 -30.210900
O -14.172600 -19.111200 -27.253000
H -13.450000 -16.540300 -29.002700
C -13.270700 -17.220200 -28.350600
H -13.117600 -16.810000 -27.494700
H -13.088900 -24.129000 -30.184700
C -13.056500 -23.541700 -29.426300
H -13.046900 -24.061800 -28.619900
O -12.126900 -17.960100 -28.734900
O -11.876000 -22.751900 -29.491800
H -10.956000 -16.650200 -29.606800
C -10.946400 -17.170300 -28.800400
H -10.914000 -16.583000 -28.042000
H -10.885300 -23.902000 -30.732100
C -10.732200 -23.491800 -29.876100
H -10.552900 -24.171700 -29.224000
O -9.830300 -21.600800 -30.973700
H -9.769000 -18.615600 -28.015800
C -9.747900 -18.054800 -28.794600
O -9.747400 -18.865900 -29.963500
C -9.575700 -22.568700 -29.966400
H -9.448700 -22.129000 -29.123600
H -8.952500 -17.516300 -28.780000
H -8.923400 -20.183000 -31.963600
H -8.785100 -23.064400 -30.192000
C -8.764500 -20.678600 -31.149900
C -8.605200 -19.700500 -30.014400
H -8.518700 -20.177900 -29.186200
H -7.947400 -21.175300 -31.235700
H -7.821900 -19.164200 -30.158500
60
Fragment
O -18.342100 -15.642600 -27.092900
N -17.385800 -14.879200 -27.145300
O -17.380000 -13.876700 -27.851300
H -16.913200 -16.940300 -25.581900
C -16.224400 -15.165200 -26.322900
C -16.185100 -16.314300 -25.565900
H -15.225500 -13.475700 -26.873100
C -15.173900 -14.264500 -26.328700
C -15.071700 -16.543300 -24.784200
H -14.713300 -17.340300 -24.251400
C -14.058400 -14.490400 -25.560100
C -14.009700 -15.651700 -24.744900
H -13.069000 -12.884300 -26.091400
H -13.010900 -16.499600 -23.359100
N -12.994000 -13.616100 -25.590700
N -12.906900 -15.899100 -23.976300
H -12.371600 -15.214100 -23.731800
H -12.354100 -13.677200 -25.123400
H -16.181000 -21.547800 -28.068200
H -16.055500 -19.536700 -26.991000
H -15.484200 -20.534100 -29.040600
C -15.397700 -21.011500 -28.212300
C -15.238400 -20.033400 -27.076900
H -15.217800 -17.647600 -28.034700
H -15.079500 -20.529000 -26.263200
H -15.050400 -23.195700 -29.446700
H -14.554300 -18.583000 -29.103200
C -14.427200 -18.143300 -28.260300
O -14.255500 -21.846100 -28.263300
C -14.255000 -22.657200 -29.432200
H -14.233900 -22.096400 -30.210900
O -14.172600 -19.111200 -27.253000
H -13.450000 -16.540300 -29.002700
C -13.270700 -17.220200 -28.350600
H -13.117600 -16.810000 -27.494700
H -13.088900 -24.129000 -30.184700
C -13.056500 -23.541700 -29.426300
H -13.046900 -24.061800 -28.619900
O -12.126900 -17.960100 -28.734900
O -11.876000 -22.751900 -29.491800
H -10.956000 -16.650200 -29.606800
C -10.946400 -17.170300 -28.800400
H -10.914000 -16.583000 -28.042000
H -10.885300 -23.902000 -30.732100
C -10.732200 -23.491800 -29.876100
H -10.552900 -24.171700 -29.224000
O -9.830300 -21.600800 -30.973700
H -9.769000 -18.615600 -28.015800
C -9.747900 -18.054800 -28.794600
O -9.747400 -18.865900 -29.963500
C -9.575700 -22.568700 -29.966400
H -9.448700 -22.129000 -29.123600
H -8.952500 -17.516300 -28.780000
H -8.923400 -20.183000 -31.963600
H -8.785100 -23.064400 -30.192000
C -8.764500 -20.678600 -31.149900
C -8.605200 -19.700500 -30.014400
H -8.518700 -20.177900 -29.186200
H -7.947400 -21.175300 -31.235700
H -7.821900 -19.164200 -30.158500
