18
Fragment
O -18.342100 -15.642600 -27.092900
N -17.385800 -14.879200 -27.145300
O -17.380000 -13.876700 -27.851300
H -16.913200 -16.940300 -25.581900
C -16.224400 -15.165200 -26.322900
C -16.185100 -16.314300 -25.565900
H -15.225500 -13.475700 -26.873100
C -15.173900 -14.264500 -26.328700
C -15.071700 -16.543300 -24.784200
H -14.713300 -17.340300 -24.251400
C -14.058400 -14.490400 -25.560100
C -14.009700 -15.651700 -24.744900
H -13.069000 -12.884300 -26.091400
H -13.010900 -16.499600 -23.359100
N -12.994000 -13.616100 -25.590700
N -12.906900 -15.899100 -23.976300
H -12.371600 -15.214100 -23.731800
H -12.354100 -13.677200 -25.123400
42
Fragment
H -25.921000 -11.369800 -28.068200
H -25.795500 -9.358700 -26.991000
H -25.224200 -10.356100 -29.040600
C -25.137700 -10.833500 -28.212300
C -24.978400 -9.855400 -27.076900
H -24.957800 -7.469600 -28.034700
H -24.819500 -10.351000 -26.263200
H -24.790400 -13.017700 -29.446700
H -24.294300 -8.405000 -29.103200
C -24.167200 -7.965300 -28.260300
O -23.995500 -11.668100 -28.263300
C -23.995000 -12.479200 -29.432200
H -23.973900 -11.918400 -30.210900
O -23.912600 -8.933200 -27.253000
H -23.190000 -6.362300 -29.002700
C -23.010700 -7.042200 -28.350600
H -22.857600 -6.632000 -27.494700
H -22.828900 -13.951000 -30.184700
C -22.796500 -13.363700 -29.426300
H -22.786900 -13.883800 -28.619900
O -21.866900 -7.782100 -28.734900
O -21.616000 -12.573900 -29.491800
H -20.696000 -6.472200 -29.606800
C -20.686400 -6.992300 -28.800400
H -20.654000 -6.405000 -28.042000
H -20.625300 -13.724000 -30.732100
C -20.472200 -13.313800 -29.876100
H -20.292900 -13.993700 -29.224000
O -19.570300 -11.422800 -30.973700
H -19.509000 -8.437600 -28.015800
C -19.487900 -7.876800 -28.794600
O -19.487400 -8.687900 -29.963500
C -19.315700 -12.390700 -29.966400
H -19.188700 -11.951000 -29.123600
H -18.692500 -7.338300 -28.780000
H -18.663400 -10.005000 -31.963600
H -18.525100 -12.886400 -30.192000
C -18.504500 -10.500600 -31.149900
C -18.345200 -9.522500 -30.014400
H -18.258700 -9.999900 -29.186200
H -17.687400 -10.997300 -31.235700
H -17.561900 -8.986200 -30.158500
60
Fragment
O -18.342100 -15.642600 -27.092900
N -17.385800 -14.879200 -27.145300
O -17.380000 -13.876700 -27.851300
H -16.913200 -16.940300 -25.581900
C -16.224400 -15.165200 -26.322900
C -16.185100 -16.314300 -25.565900
H -15.225500 -13.475700 -26.873100
C -15.173900 -14.264500 -26.328700
C -15.071700 -16.543300 -24.784200
H -14.713300 -17.340300 -24.251400
C -14.058400 -14.490400 -25.560100
C -14.009700 -15.651700 -24.744900
H -13.069000 -12.884300 -26.091400
H -13.010900 -16.499600 -23.359100
N -12.994000 -13.616100 -25.590700
N -12.906900 -15.899100 -23.976300
H -12.371600 -15.214100 -23.731800
H -12.354100 -13.677200 -25.123400
H -25.921000 -11.369800 -28.068200
H -25.795500 -9.358700 -26.991000
H -25.224200 -10.356100 -29.040600
C -25.137700 -10.833500 -28.212300
C -24.978400 -9.855400 -27.076900
H -24.957800 -7.469600 -28.034700
H -24.819500 -10.351000 -26.263200
H -24.790400 -13.017700 -29.446700
H -24.294300 -8.405000 -29.103200
C -24.167200 -7.965300 -28.260300
O -23.995500 -11.668100 -28.263300
C -23.995000 -12.479200 -29.432200
H -23.973900 -11.918400 -30.210900
O -23.912600 -8.933200 -27.253000
H -23.190000 -6.362300 -29.002700
C -23.010700 -7.042200 -28.350600
H -22.857600 -6.632000 -27.494700
H -22.828900 -13.951000 -30.184700
C -22.796500 -13.363700 -29.426300
H -22.786900 -13.883800 -28.619900
O -21.866900 -7.782100 -28.734900
O -21.616000 -12.573900 -29.491800
H -20.696000 -6.472200 -29.606800
C -20.686400 -6.992300 -28.800400
H -20.654000 -6.405000 -28.042000
H -20.625300 -13.724000 -30.732100
C -20.472200 -13.313800 -29.876100
H -20.292900 -13.993700 -29.224000
O -19.570300 -11.422800 -30.973700
H -19.509000 -8.437600 -28.015800
C -19.487900 -7.876800 -28.794600
O -19.487400 -8.687900 -29.963500
C -19.315700 -12.390700 -29.966400
H -19.188700 -11.951000 -29.123600
H -18.692500 -7.338300 -28.780000
H -18.663400 -10.005000 -31.963600
H -18.525100 -12.886400 -30.192000
C -18.504500 -10.500600 -31.149900
C -18.345200 -9.522500 -30.014400
H -18.258700 -9.999900 -29.186200
H -17.687400 -10.997300 -31.235700
H -17.561900 -8.986200 -30.158500
