36
Fragment
H -7.710600 -6.017800 -44.917800
H -7.644900 -6.131600 -47.545700
O -7.334700 -8.216600 -46.231800
H -7.274100 -4.514000 -45.180600
H -7.072400 -4.587200 -47.545700
C -6.920800 -5.439900 -45.037500
C -6.835800 -5.596800 -47.484400
H -6.570200 -11.959800 -47.545700
H -6.532700 -12.171100 -45.180600
H -6.429400 -5.489500 -44.246200
H -6.246400 -5.871500 -48.217300
C -6.130000 -8.183200 -46.164600
N -6.114000 -5.746300 -46.220100
H -6.110300 -10.951800 -44.246200
N -6.045500 -10.550300 -46.220100
C -5.907500 -11.402100 -45.037500
H -5.870900 -10.602300 -48.217300
C -5.814200 -11.250100 -47.484400
N -5.420400 -6.977000 -46.112000
N -5.326600 -9.334200 -46.112000
H -5.012100 -11.797200 -44.917800
H -4.946400 -11.683400 -47.545700
C -4.021900 -6.856700 -46.164600
C -3.927100 -9.345600 -46.164600
O -3.448400 -5.796700 -46.231800
N -3.332000 -8.074300 -46.112000
O -3.295900 -10.372300 -46.231800
H -1.961700 -7.911800 -48.217300
N -1.919400 -8.089000 -46.220100
H -1.539300 -7.944300 -44.246200
H -1.487700 -6.570500 -47.545700
C -1.429000 -7.538700 -47.484400
H -1.356300 -6.570500 -44.917800
C -1.250700 -7.543500 -45.037500
H -0.436400 -7.838600 -47.545700
H -0.272200 -7.700400 -45.180600
36
Fragment
H -3.017600 2.110700 -44.917800
H -2.951900 1.996900 -47.545700
O -2.641700 -0.088100 -46.231800
H -2.581100 3.614500 -45.180600
H -2.379400 3.541300 -47.545700
C -2.227800 2.688600 -45.037500
C -2.142800 2.531800 -47.484400
H -1.877200 -3.831200 -47.545700
H -1.839700 -4.042600 -45.180600
H -1.736400 2.639100 -44.246200
H -1.553400 2.257000 -48.217300
C -1.437000 -0.054700 -46.164600
N -1.421000 2.382200 -46.220100
H -1.417300 -2.823300 -44.246200
N -1.352500 -2.421800 -46.220100
C -1.214500 -3.273600 -45.037500
H -1.177900 -2.473800 -48.217300
C -1.121200 -3.121600 -47.484400
N -0.727400 1.151500 -46.112000
N -0.633600 -1.205700 -46.112000
H -0.319100 -3.668700 -44.917800
H -0.253400 -3.554900 -47.545700
C 0.671100 1.271800 -46.164600
C 0.765900 -1.217100 -46.164600
O 1.244600 2.331800 -46.231800
N 1.361000 0.054200 -46.112000
O 1.397100 -2.243700 -46.231800
H 2.731300 0.216800 -48.217300
N 2.773600 0.039600 -46.220100
H 3.153700 0.184200 -44.246200
H 3.205300 1.558000 -47.545700
C 3.264000 0.589900 -47.484400
H 3.336700 1.558000 -44.917800
C 3.442300 0.585000 -45.037500
H 4.256600 0.289900 -47.545700
H 4.420800 0.428100 -45.180600
72
Fragment
H -7.710600 -6.017800 -44.917800
H -7.644900 -6.131600 -47.545700
O -7.334700 -8.216600 -46.231800
H -7.274100 -4.514000 -45.180600
H -7.072400 -4.587200 -47.545700
C -6.920800 -5.439900 -45.037500
C -6.835800 -5.596800 -47.484400
H -6.570200 -11.959800 -47.545700
H -6.532700 -12.171100 -45.180600
H -6.429400 -5.489500 -44.246200
H -6.246400 -5.871500 -48.217300
C -6.130000 -8.183200 -46.164600
N -6.114000 -5.746300 -46.220100
H -6.110300 -10.951800 -44.246200
N -6.045500 -10.550300 -46.220100
C -5.907500 -11.402100 -45.037500
H -5.870900 -10.602300 -48.217300
C -5.814200 -11.250100 -47.484400
N -5.420400 -6.977000 -46.112000
N -5.326600 -9.334200 -46.112000
H -5.012100 -11.797200 -44.917800
H -4.946400 -11.683400 -47.545700
C -4.021900 -6.856700 -46.164600
C -3.927100 -9.345600 -46.164600
O -3.448400 -5.796700 -46.231800
N -3.332000 -8.074300 -46.112000
O -3.295900 -10.372300 -46.231800
H -1.961700 -7.911800 -48.217300
N -1.919400 -8.089000 -46.220100
H -1.539300 -7.944300 -44.246200
H -1.487700 -6.570500 -47.545700
C -1.429000 -7.538700 -47.484400
H -1.356300 -6.570500 -44.917800
C -1.250700 -7.543500 -45.037500
H -0.436400 -7.838600 -47.545700
H -0.272200 -7.700400 -45.180600
H -3.017600 2.110700 -44.917800
H -2.951900 1.996900 -47.545700
O -2.641700 -0.088100 -46.231800
H -2.581100 3.614500 -45.180600
H -2.379400 3.541300 -47.545700
C -2.227800 2.688600 -45.037500
C -2.142800 2.531800 -47.484400
H -1.877200 -3.831200 -47.545700
H -1.839700 -4.042600 -45.180600
H -1.736400 2.639100 -44.246200
H -1.553400 2.257000 -48.217300
C -1.437000 -0.054700 -46.164600
N -1.421000 2.382200 -46.220100
H -1.417300 -2.823300 -44.246200
N -1.352500 -2.421800 -46.220100
C -1.214500 -3.273600 -45.037500
H -1.177900 -2.473800 -48.217300
C -1.121200 -3.121600 -47.484400
N -0.727400 1.151500 -46.112000
N -0.633600 -1.205700 -46.112000
H -0.319100 -3.668700 -44.917800
H -0.253400 -3.554900 -47.545700
C 0.671100 1.271800 -46.164600
C 0.765900 -1.217100 -46.164600
O 1.244600 2.331800 -46.231800
N 1.361000 0.054200 -46.112000
O 1.397100 -2.243700 -46.231800
H 2.731300 0.216800 -48.217300
N 2.773600 0.039600 -46.220100
H 3.153700 0.184200 -44.246200
H 3.205300 1.558000 -47.545700
C 3.264000 0.589900 -47.484400
H 3.336700 1.558000 -44.917800
C 3.442300 0.585000 -45.037500
H 4.256600 0.289900 -47.545700
H 4.420800 0.428100 -45.180600
