36
Fragment
H -7.710600 -6.017800 -44.917800
H -7.644900 -6.131600 -47.545700
O -7.334700 -8.216600 -46.231800
H -7.274100 -4.514000 -45.180600
H -7.072400 -4.587200 -47.545700
C -6.920800 -5.439900 -45.037500
C -6.835800 -5.596800 -47.484400
H -6.570200 -11.959800 -47.545700
H -6.532700 -12.171100 -45.180600
H -6.429400 -5.489500 -44.246200
H -6.246400 -5.871500 -48.217300
C -6.130000 -8.183200 -46.164600
N -6.114000 -5.746300 -46.220100
H -6.110300 -10.951800 -44.246200
N -6.045500 -10.550300 -46.220100
C -5.907500 -11.402100 -45.037500
H -5.870900 -10.602300 -48.217300
C -5.814200 -11.250100 -47.484400
N -5.420400 -6.977000 -46.112000
N -5.326600 -9.334200 -46.112000
H -5.012100 -11.797200 -44.917800
H -4.946400 -11.683400 -47.545700
C -4.021900 -6.856700 -46.164600
C -3.927100 -9.345600 -46.164600
O -3.448400 -5.796700 -46.231800
N -3.332000 -8.074300 -46.112000
O -3.295900 -10.372300 -46.231800
H -1.961700 -7.911800 -48.217300
N -1.919400 -8.089000 -46.220100
H -1.539300 -7.944300 -44.246200
H -1.487700 -6.570500 -47.545700
C -1.429000 -7.538700 -47.484400
H -1.356300 -6.570500 -44.917800
C -1.250700 -7.543500 -45.037500
H -0.436400 -7.838600 -47.545700
H -0.272200 -7.700400 -45.180600
36
Fragment
H -13.806800 -4.990900 -50.047100
H -13.642600 -5.129100 -52.412200
C -12.828300 -4.834000 -49.904000
H -12.722700 -3.861000 -49.784300
C -12.650000 -4.829200 -52.350900
H -12.591300 -3.861000 -52.412200
H -12.539700 -5.234800 -49.112700
N -12.159600 -5.379500 -51.086600
H -12.117300 -5.202200 -53.083800
O -10.783100 -7.662800 -51.098300
N -10.747000 -5.364800 -50.978500
O -10.630600 -3.087200 -51.098300
C -10.151900 -6.636100 -51.031100
C -10.057100 -4.147200 -51.031100
H -9.132600 -8.973900 -52.412200
H -9.066900 -9.087700 -49.784300
N -8.752400 -6.624700 -50.978500
N -8.658600 -4.267500 -50.978500
C -8.264800 -8.540600 -52.350900
H -8.208100 -7.892800 -53.083800
C -8.171500 -8.692600 -49.904000
N -8.033500 -7.840800 -51.086600
H -7.968700 -8.242300 -49.112700
N -7.965000 -3.036800 -51.086600
C -7.949000 -5.473700 -51.031100
H -7.832600 -3.162000 -53.083800
H -7.649600 -2.780000 -49.112700
H -7.546300 -9.461600 -50.047100
H -7.508800 -9.250200 -52.412200
C -7.243200 -2.887200 -52.350900
C -7.158200 -2.730400 -49.904000
H -7.006600 -1.877700 -52.412200
H -6.804800 -1.804500 -50.047100
O -6.744300 -5.507100 -51.098300
H -6.434100 -3.422100 -52.412200
H -6.368400 -3.308300 -49.784300
72
Fragment
H -7.710600 -6.017800 -44.917800
H -7.644900 -6.131600 -47.545700
O -7.334700 -8.216600 -46.231800
H -7.274100 -4.514000 -45.180600
H -7.072400 -4.587200 -47.545700
C -6.920800 -5.439900 -45.037500
C -6.835800 -5.596800 -47.484400
H -6.570200 -11.959800 -47.545700
H -6.532700 -12.171100 -45.180600
H -6.429400 -5.489500 -44.246200
H -6.246400 -5.871500 -48.217300
C -6.130000 -8.183200 -46.164600
N -6.114000 -5.746300 -46.220100
H -6.110300 -10.951800 -44.246200
N -6.045500 -10.550300 -46.220100
C -5.907500 -11.402100 -45.037500
H -5.870900 -10.602300 -48.217300
C -5.814200 -11.250100 -47.484400
N -5.420400 -6.977000 -46.112000
N -5.326600 -9.334200 -46.112000
H -5.012100 -11.797200 -44.917800
H -4.946400 -11.683400 -47.545700
C -4.021900 -6.856700 -46.164600
C -3.927100 -9.345600 -46.164600
O -3.448400 -5.796700 -46.231800
N -3.332000 -8.074300 -46.112000
O -3.295900 -10.372300 -46.231800
H -1.961700 -7.911800 -48.217300
N -1.919400 -8.089000 -46.220100
H -1.539300 -7.944300 -44.246200
H -1.487700 -6.570500 -47.545700
C -1.429000 -7.538700 -47.484400
H -1.356300 -6.570500 -44.917800
C -1.250700 -7.543500 -45.037500
H -0.436400 -7.838600 -47.545700
H -0.272200 -7.700400 -45.180600
H -13.806800 -4.990900 -50.047100
H -13.642600 -5.129100 -52.412200
C -12.828300 -4.834000 -49.904000
H -12.722700 -3.861000 -49.784300
C -12.650000 -4.829200 -52.350900
H -12.591300 -3.861000 -52.412200
H -12.539700 -5.234800 -49.112700
N -12.159600 -5.379500 -51.086600
H -12.117300 -5.202200 -53.083800
O -10.783100 -7.662800 -51.098300
N -10.747000 -5.364800 -50.978500
O -10.630600 -3.087200 -51.098300
C -10.151900 -6.636100 -51.031100
C -10.057100 -4.147200 -51.031100
H -9.132600 -8.973900 -52.412200
H -9.066900 -9.087700 -49.784300
N -8.752400 -6.624700 -50.978500
N -8.658600 -4.267500 -50.978500
C -8.264800 -8.540600 -52.350900
H -8.208100 -7.892800 -53.083800
C -8.171500 -8.692600 -49.904000
N -8.033500 -7.840800 -51.086600
H -7.968700 -8.242300 -49.112700
N -7.965000 -3.036800 -51.086600
C -7.949000 -5.473700 -51.031100
H -7.832600 -3.162000 -53.083800
H -7.649600 -2.780000 -49.112700
H -7.546300 -9.461600 -50.047100
H -7.508800 -9.250200 -52.412200
C -7.243200 -2.887200 -52.350900
C -7.158200 -2.730400 -49.904000
H -7.006600 -1.877700 -52.412200
H -6.804800 -1.804500 -50.047100
O -6.744300 -5.507100 -51.098300
H -6.434100 -3.422100 -52.412200
H -6.368400 -3.308300 -49.784300
