36
Fragment
H -7.710600 -6.017800 -44.917800
H -7.644900 -6.131600 -47.545700
O -7.334700 -8.216600 -46.231800
H -7.274100 -4.514000 -45.180600
H -7.072400 -4.587200 -47.545700
C -6.920800 -5.439900 -45.037500
C -6.835800 -5.596800 -47.484400
H -6.570200 -11.959800 -47.545700
H -6.532700 -12.171100 -45.180600
H -6.429400 -5.489500 -44.246200
H -6.246400 -5.871500 -48.217300
C -6.130000 -8.183200 -46.164600
N -6.114000 -5.746300 -46.220100
H -6.110300 -10.951800 -44.246200
N -6.045500 -10.550300 -46.220100
C -5.907500 -11.402100 -45.037500
H -5.870900 -10.602300 -48.217300
C -5.814200 -11.250100 -47.484400
N -5.420400 -6.977000 -46.112000
N -5.326600 -9.334200 -46.112000
H -5.012100 -11.797200 -44.917800
H -4.946400 -11.683400 -47.545700
C -4.021900 -6.856700 -46.164600
C -3.927100 -9.345600 -46.164600
O -3.448400 -5.796700 -46.231800
N -3.332000 -8.074300 -46.112000
O -3.295900 -10.372300 -46.231800
H -1.961700 -7.911800 -48.217300
N -1.919400 -8.089000 -46.220100
H -1.539300 -7.944300 -44.246200
H -1.487700 -6.570500 -47.545700
C -1.429000 -7.538700 -47.484400
H -1.356300 -6.570500 -44.917800
C -1.250700 -7.543500 -45.037500
H -0.436400 -7.838600 -47.545700
H -0.272200 -7.700400 -45.180600
36
Fragment
H -12.403600 2.110700 -44.917800
H -12.337900 1.996900 -47.545700
O -12.027700 -0.088100 -46.231800
H -11.967100 3.614500 -45.180600
H -11.765400 3.541300 -47.545700
C -11.613800 2.688600 -45.037500
C -11.528800 2.531800 -47.484400
H -11.263200 -3.831200 -47.545700
H -11.225700 -4.042600 -45.180600
H -11.122400 2.639100 -44.246200
H -10.939400 2.257000 -48.217300
C -10.823000 -0.054700 -46.164600
N -10.807000 2.382200 -46.220100
H -10.803300 -2.823300 -44.246200
N -10.738500 -2.421800 -46.220100
C -10.600500 -3.273600 -45.037500
H -10.563900 -2.473800 -48.217300
C -10.507200 -3.121600 -47.484400
N -10.113400 1.151500 -46.112000
N -10.019600 -1.205700 -46.112000
H -9.705100 -3.668700 -44.917800
H -9.639400 -3.554900 -47.545700
C -8.714900 1.271800 -46.164600
C -8.620100 -1.217100 -46.164600
O -8.141400 2.331800 -46.231800
N -8.025000 0.054200 -46.112000
O -7.988900 -2.243700 -46.231800
H -6.654700 0.216800 -48.217300
N -6.612400 0.039600 -46.220100
H -6.232300 0.184200 -44.246200
H -6.180700 1.558000 -47.545700
C -6.122000 0.589900 -47.484400
H -6.049300 1.558000 -44.917800
C -5.943700 0.585000 -45.037500
H -5.129400 0.289900 -47.545700
H -4.965200 0.428100 -45.180600
72
Fragment
H -7.710600 -6.017800 -44.917800
H -7.644900 -6.131600 -47.545700
O -7.334700 -8.216600 -46.231800
H -7.274100 -4.514000 -45.180600
H -7.072400 -4.587200 -47.545700
C -6.920800 -5.439900 -45.037500
C -6.835800 -5.596800 -47.484400
H -6.570200 -11.959800 -47.545700
H -6.532700 -12.171100 -45.180600
H -6.429400 -5.489500 -44.246200
H -6.246400 -5.871500 -48.217300
C -6.130000 -8.183200 -46.164600
N -6.114000 -5.746300 -46.220100
H -6.110300 -10.951800 -44.246200
N -6.045500 -10.550300 -46.220100
C -5.907500 -11.402100 -45.037500
H -5.870900 -10.602300 -48.217300
C -5.814200 -11.250100 -47.484400
N -5.420400 -6.977000 -46.112000
N -5.326600 -9.334200 -46.112000
H -5.012100 -11.797200 -44.917800
H -4.946400 -11.683400 -47.545700
C -4.021900 -6.856700 -46.164600
C -3.927100 -9.345600 -46.164600
O -3.448400 -5.796700 -46.231800
N -3.332000 -8.074300 -46.112000
O -3.295900 -10.372300 -46.231800
H -1.961700 -7.911800 -48.217300
N -1.919400 -8.089000 -46.220100
H -1.539300 -7.944300 -44.246200
H -1.487700 -6.570500 -47.545700
C -1.429000 -7.538700 -47.484400
H -1.356300 -6.570500 -44.917800
C -1.250700 -7.543500 -45.037500
H -0.436400 -7.838600 -47.545700
H -0.272200 -7.700400 -45.180600
H -12.403600 2.110700 -44.917800
H -12.337900 1.996900 -47.545700
O -12.027700 -0.088100 -46.231800
H -11.967100 3.614500 -45.180600
H -11.765400 3.541300 -47.545700
C -11.613800 2.688600 -45.037500
C -11.528800 2.531800 -47.484400
H -11.263200 -3.831200 -47.545700
H -11.225700 -4.042600 -45.180600
H -11.122400 2.639100 -44.246200
H -10.939400 2.257000 -48.217300
C -10.823000 -0.054700 -46.164600
N -10.807000 2.382200 -46.220100
H -10.803300 -2.823300 -44.246200
N -10.738500 -2.421800 -46.220100
C -10.600500 -3.273600 -45.037500
H -10.563900 -2.473800 -48.217300
C -10.507200 -3.121600 -47.484400
N -10.113400 1.151500 -46.112000
N -10.019600 -1.205700 -46.112000
H -9.705100 -3.668700 -44.917800
H -9.639400 -3.554900 -47.545700
C -8.714900 1.271800 -46.164600
C -8.620100 -1.217100 -46.164600
O -8.141400 2.331800 -46.231800
N -8.025000 0.054200 -46.112000
O -7.988900 -2.243700 -46.231800
H -6.654700 0.216800 -48.217300
N -6.612400 0.039600 -46.220100
H -6.232300 0.184200 -44.246200
H -6.180700 1.558000 -47.545700
C -6.122000 0.589900 -47.484400
H -6.049300 1.558000 -44.917800
C -5.943700 0.585000 -45.037500
H -5.129400 0.289900 -47.545700
H -4.965200 0.428100 -45.180600
