36
Fragment
H -7.710600 -6.017800 -44.917800
H -7.644900 -6.131600 -47.545700
O -7.334700 -8.216600 -46.231800
H -7.274100 -4.514000 -45.180600
H -7.072400 -4.587200 -47.545700
C -6.920800 -5.439900 -45.037500
C -6.835800 -5.596800 -47.484400
H -6.570200 -11.959800 -47.545700
H -6.532700 -12.171100 -45.180600
H -6.429400 -5.489500 -44.246200
H -6.246400 -5.871500 -48.217300
C -6.130000 -8.183200 -46.164600
N -6.114000 -5.746300 -46.220100
H -6.110300 -10.951800 -44.246200
N -6.045500 -10.550300 -46.220100
C -5.907500 -11.402100 -45.037500
H -5.870900 -10.602300 -48.217300
C -5.814200 -11.250100 -47.484400
N -5.420400 -6.977000 -46.112000
N -5.326600 -9.334200 -46.112000
H -5.012100 -11.797200 -44.917800
H -4.946400 -11.683400 -47.545700
C -4.021900 -6.856700 -46.164600
C -3.927100 -9.345600 -46.164600
O -3.448400 -5.796700 -46.231800
N -3.332000 -8.074300 -46.112000
O -3.295900 -10.372300 -46.231800
H -1.961700 -7.911800 -48.217300
N -1.919400 -8.089000 -46.220100
H -1.539300 -7.944300 -44.246200
H -1.487700 -6.570500 -47.545700
C -1.429000 -7.538700 -47.484400
H -1.356300 -6.570500 -44.917800
C -1.250700 -7.543500 -45.037500
H -0.436400 -7.838600 -47.545700
H -0.272200 -7.700400 -45.180600
36
Fragment
H -9.113800 -2.281400 -40.314100
H -8.949600 -2.419600 -42.679200
C -8.135300 -2.124500 -40.171000
H -8.029700 -1.151500 -40.051300
C -7.957000 -2.119600 -42.617900
H -7.898300 -1.151500 -42.679200
H -7.846700 -2.525300 -39.379700
N -7.466600 -2.669900 -41.353600
H -7.424300 -2.492700 -43.350800
O -6.090100 -4.953200 -41.365300
N -6.054000 -2.655300 -41.245500
O -5.937600 -0.377700 -41.365300
C -5.458900 -3.926600 -41.298100
C -5.364100 -1.437700 -41.298100
H -4.439600 -6.264400 -42.679200
H -4.373900 -6.378200 -40.051300
N -4.059400 -3.915200 -41.245500
N -3.965600 -1.558000 -41.245500
C -3.571800 -5.831100 -42.617900
H -3.515100 -5.183300 -43.350800
C -3.478500 -5.983100 -40.171000
N -3.340500 -5.131300 -41.353600
H -3.275700 -5.532800 -39.379700
N -3.272000 -0.327300 -41.353600
C -3.256000 -2.764200 -41.298100
H -3.139600 -0.452500 -43.350800
H -2.956600 -0.070400 -39.379700
H -2.853300 -6.752100 -40.314100
H -2.815800 -6.540700 -42.679200
C -2.550200 -0.177700 -42.617900
C -2.465200 -0.020900 -40.171000
H -2.313600 0.831800 -42.679200
H -2.111800 0.905000 -40.314100
O -2.051300 -2.797600 -41.365300
H -1.741100 -0.712600 -42.679200
H -1.675400 -0.598800 -40.051300
72
Fragment
H -7.710600 -6.017800 -44.917800
H -7.644900 -6.131600 -47.545700
O -7.334700 -8.216600 -46.231800
H -7.274100 -4.514000 -45.180600
H -7.072400 -4.587200 -47.545700
C -6.920800 -5.439900 -45.037500
C -6.835800 -5.596800 -47.484400
H -6.570200 -11.959800 -47.545700
H -6.532700 -12.171100 -45.180600
H -6.429400 -5.489500 -44.246200
H -6.246400 -5.871500 -48.217300
C -6.130000 -8.183200 -46.164600
N -6.114000 -5.746300 -46.220100
H -6.110300 -10.951800 -44.246200
N -6.045500 -10.550300 -46.220100
C -5.907500 -11.402100 -45.037500
H -5.870900 -10.602300 -48.217300
C -5.814200 -11.250100 -47.484400
N -5.420400 -6.977000 -46.112000
N -5.326600 -9.334200 -46.112000
H -5.012100 -11.797200 -44.917800
H -4.946400 -11.683400 -47.545700
C -4.021900 -6.856700 -46.164600
C -3.927100 -9.345600 -46.164600
O -3.448400 -5.796700 -46.231800
N -3.332000 -8.074300 -46.112000
O -3.295900 -10.372300 -46.231800
H -1.961700 -7.911800 -48.217300
N -1.919400 -8.089000 -46.220100
H -1.539300 -7.944300 -44.246200
H -1.487700 -6.570500 -47.545700
C -1.429000 -7.538700 -47.484400
H -1.356300 -6.570500 -44.917800
C -1.250700 -7.543500 -45.037500
H -0.436400 -7.838600 -47.545700
H -0.272200 -7.700400 -45.180600
H -9.113800 -2.281400 -40.314100
H -8.949600 -2.419600 -42.679200
C -8.135300 -2.124500 -40.171000
H -8.029700 -1.151500 -40.051300
C -7.957000 -2.119600 -42.617900
H -7.898300 -1.151500 -42.679200
H -7.846700 -2.525300 -39.379700
N -7.466600 -2.669900 -41.353600
H -7.424300 -2.492700 -43.350800
O -6.090100 -4.953200 -41.365300
N -6.054000 -2.655300 -41.245500
O -5.937600 -0.377700 -41.365300
C -5.458900 -3.926600 -41.298100
C -5.364100 -1.437700 -41.298100
H -4.439600 -6.264400 -42.679200
H -4.373900 -6.378200 -40.051300
N -4.059400 -3.915200 -41.245500
N -3.965600 -1.558000 -41.245500
C -3.571800 -5.831100 -42.617900
H -3.515100 -5.183300 -43.350800
C -3.478500 -5.983100 -40.171000
N -3.340500 -5.131300 -41.353600
H -3.275700 -5.532800 -39.379700
N -3.272000 -0.327300 -41.353600
C -3.256000 -2.764200 -41.298100
H -3.139600 -0.452500 -43.350800
H -2.956600 -0.070400 -39.379700
H -2.853300 -6.752100 -40.314100
H -2.815800 -6.540700 -42.679200
C -2.550200 -0.177700 -42.617900
C -2.465200 -0.020900 -40.171000
H -2.313600 0.831800 -42.679200
H -2.111800 0.905000 -40.314100
O -2.051300 -2.797600 -41.365300
H -1.741100 -0.712600 -42.679200
H -1.675400 -0.598800 -40.051300
