36
Fragment
H -7.710600 -6.017800 -44.917800
H -7.644900 -6.131600 -47.545700
O -7.334700 -8.216600 -46.231800
H -7.274100 -4.514000 -45.180600
H -7.072400 -4.587200 -47.545700
C -6.920800 -5.439900 -45.037500
C -6.835800 -5.596800 -47.484400
H -6.570200 -11.959800 -47.545700
H -6.532700 -12.171100 -45.180600
H -6.429400 -5.489500 -44.246200
H -6.246400 -5.871500 -48.217300
C -6.130000 -8.183200 -46.164600
N -6.114000 -5.746300 -46.220100
H -6.110300 -10.951800 -44.246200
N -6.045500 -10.550300 -46.220100
C -5.907500 -11.402100 -45.037500
H -5.870900 -10.602300 -48.217300
C -5.814200 -11.250100 -47.484400
N -5.420400 -6.977000 -46.112000
N -5.326600 -9.334200 -46.112000
H -5.012100 -11.797200 -44.917800
H -4.946400 -11.683400 -47.545700
C -4.021900 -6.856700 -46.164600
C -3.927100 -9.345600 -46.164600
O -3.448400 -5.796700 -46.231800
N -3.332000 -8.074300 -46.112000
O -3.295900 -10.372300 -46.231800
H -1.961700 -7.911800 -48.217300
N -1.919400 -8.089000 -46.220100
H -1.539300 -7.944300 -44.246200
H -1.487700 -6.570500 -47.545700
C -1.429000 -7.538700 -47.484400
H -1.356300 -6.570500 -44.917800
C -1.250700 -7.543500 -45.037500
H -0.436400 -7.838600 -47.545700
H -0.272200 -7.700400 -45.180600
36
Fragment
H -4.420800 -10.409900 -40.314100
H -4.256600 -10.548100 -42.679200
C -3.442300 -10.253000 -40.171000
H -3.336700 -9.280100 -40.051300
C -3.264000 -10.248200 -42.617900
H -3.205300 -9.280100 -42.679200
H -3.153700 -10.653800 -39.379700
N -2.773600 -10.798500 -41.353600
H -2.731300 -10.621300 -43.350800
O -1.397100 -13.081800 -41.365300
N -1.361000 -10.783800 -41.245500
O -1.244600 -8.506200 -41.365300
C -0.765900 -12.055100 -41.298100
C -0.671100 -9.566200 -41.298100
H 0.253400 -14.392900 -42.679200
H 0.319100 -14.506700 -40.051300
N 0.633600 -12.043700 -41.245500
N 0.727400 -9.686500 -41.245500
C 1.121200 -13.959600 -42.617900
H 1.177900 -13.311800 -43.350800
C 1.214500 -14.111600 -40.171000
N 1.352500 -13.259800 -41.353600
H 1.417300 -13.661300 -39.379700
N 1.421000 -8.455800 -41.353600
C 1.437000 -10.892800 -41.298100
H 1.553400 -8.581000 -43.350800
H 1.736400 -8.199000 -39.379700
H 1.839700 -14.880600 -40.314100
H 1.877200 -14.669300 -42.679200
C 2.142800 -8.306300 -42.617900
C 2.227800 -8.149400 -40.171000
H 2.379400 -7.296700 -42.679200
H 2.581100 -7.223500 -40.314100
O 2.641700 -10.926100 -41.365300
H 2.951900 -8.841100 -42.679200
H 3.017600 -8.727300 -40.051300
72
Fragment
H -7.710600 -6.017800 -44.917800
H -7.644900 -6.131600 -47.545700
O -7.334700 -8.216600 -46.231800
H -7.274100 -4.514000 -45.180600
H -7.072400 -4.587200 -47.545700
C -6.920800 -5.439900 -45.037500
C -6.835800 -5.596800 -47.484400
H -6.570200 -11.959800 -47.545700
H -6.532700 -12.171100 -45.180600
H -6.429400 -5.489500 -44.246200
H -6.246400 -5.871500 -48.217300
C -6.130000 -8.183200 -46.164600
N -6.114000 -5.746300 -46.220100
H -6.110300 -10.951800 -44.246200
N -6.045500 -10.550300 -46.220100
C -5.907500 -11.402100 -45.037500
H -5.870900 -10.602300 -48.217300
C -5.814200 -11.250100 -47.484400
N -5.420400 -6.977000 -46.112000
N -5.326600 -9.334200 -46.112000
H -5.012100 -11.797200 -44.917800
H -4.946400 -11.683400 -47.545700
C -4.021900 -6.856700 -46.164600
C -3.927100 -9.345600 -46.164600
O -3.448400 -5.796700 -46.231800
N -3.332000 -8.074300 -46.112000
O -3.295900 -10.372300 -46.231800
H -1.961700 -7.911800 -48.217300
N -1.919400 -8.089000 -46.220100
H -1.539300 -7.944300 -44.246200
H -1.487700 -6.570500 -47.545700
C -1.429000 -7.538700 -47.484400
H -1.356300 -6.570500 -44.917800
C -1.250700 -7.543500 -45.037500
H -0.436400 -7.838600 -47.545700
H -0.272200 -7.700400 -45.180600
H -4.420800 -10.409900 -40.314100
H -4.256600 -10.548100 -42.679200
C -3.442300 -10.253000 -40.171000
H -3.336700 -9.280100 -40.051300
C -3.264000 -10.248200 -42.617900
H -3.205300 -9.280100 -42.679200
H -3.153700 -10.653800 -39.379700
N -2.773600 -10.798500 -41.353600
H -2.731300 -10.621300 -43.350800
O -1.397100 -13.081800 -41.365300
N -1.361000 -10.783800 -41.245500
O -1.244600 -8.506200 -41.365300
C -0.765900 -12.055100 -41.298100
C -0.671100 -9.566200 -41.298100
H 0.253400 -14.392900 -42.679200
H 0.319100 -14.506700 -40.051300
N 0.633600 -12.043700 -41.245500
N 0.727400 -9.686500 -41.245500
C 1.121200 -13.959600 -42.617900
H 1.177900 -13.311800 -43.350800
C 1.214500 -14.111600 -40.171000
N 1.352500 -13.259800 -41.353600
H 1.417300 -13.661300 -39.379700
N 1.421000 -8.455800 -41.353600
C 1.437000 -10.892800 -41.298100
H 1.553400 -8.581000 -43.350800
H 1.736400 -8.199000 -39.379700
H 1.839700 -14.880600 -40.314100
H 1.877200 -14.669300 -42.679200
C 2.142800 -8.306300 -42.617900
C 2.227800 -8.149400 -40.171000
H 2.379400 -7.296700 -42.679200
H 2.581100 -7.223500 -40.314100
O 2.641700 -10.926100 -41.365300
H 2.951900 -8.841100 -42.679200
H 3.017600 -8.727300 -40.051300
