20
Fragment
H -15.399900 -8.883000 -35.361500
H -14.595200 -9.517900 -37.445300
C -14.487600 -9.133800 -35.452700
H -14.012500 -8.871500 -33.466100
C -14.012400 -9.509800 -36.695000
C -13.653900 -9.112100 -34.312200
C -12.660300 -9.880900 -36.846000
H -12.452700 -10.457500 -38.840200
C -12.339800 -9.434900 -34.423600
C -11.986100 -10.377400 -38.016800
C -11.864200 -9.810200 -35.701200
H -11.222400 -9.358200 -32.589100
C -11.202600 -9.550500 -33.519200
C -10.685700 -10.728200 -37.935200
C -10.508100 -10.170100 -35.614600
H -10.265200 -11.063200 -38.718200
C -10.120500 -9.970600 -34.199800
C -9.897800 -10.626600 -36.737700
H -9.255600 -10.114000 -33.834700
H -8.979400 -10.870500 -36.732800
16
Fragment
O -23.181100 -5.636400 -37.162900
H -22.776900 -5.301800 -34.814100
N -22.042200 -6.064300 -37.173800
C -21.863600 -5.562200 -34.809100
O -21.489100 -6.561400 -38.163200
H -21.482200 -5.034300 -32.947400
C -21.253600 -6.013100 -35.949400
N -21.131000 -5.499200 -33.680300
C -19.915000 -6.368800 -35.958200
C -19.794000 -5.873800 -33.545100
H -19.500900 -6.668000 -36.759300
O -19.276900 -5.855600 -32.422200
C -19.202500 -6.284100 -34.800300
N -17.790200 -6.615300 -34.862800
O -17.387800 -7.207000 -35.863300
O -17.054200 -6.282000 -33.933200
36
Fragment
H -15.399900 -8.883000 -35.361500
H -14.595200 -9.517900 -37.445300
C -14.487600 -9.133800 -35.452700
H -14.012500 -8.871500 -33.466100
C -14.012400 -9.509800 -36.695000
C -13.653900 -9.112100 -34.312200
C -12.660300 -9.880900 -36.846000
H -12.452700 -10.457500 -38.840200
C -12.339800 -9.434900 -34.423600
C -11.986100 -10.377400 -38.016800
C -11.864200 -9.810200 -35.701200
H -11.222400 -9.358200 -32.589100
C -11.202600 -9.550500 -33.519200
C -10.685700 -10.728200 -37.935200
C -10.508100 -10.170100 -35.614600
H -10.265200 -11.063200 -38.718200
C -10.120500 -9.970600 -34.199800
C -9.897800 -10.626600 -36.737700
H -9.255600 -10.114000 -33.834700
H -8.979400 -10.870500 -36.732800
O -23.181100 -5.636400 -37.162900
H -22.776900 -5.301800 -34.814100
N -22.042200 -6.064300 -37.173800
C -21.863600 -5.562200 -34.809100
O -21.489100 -6.561400 -38.163200
H -21.482200 -5.034300 -32.947400
C -21.253600 -6.013100 -35.949400
N -21.131000 -5.499200 -33.680300
C -19.915000 -6.368800 -35.958200
C -19.794000 -5.873800 -33.545100
H -19.500900 -6.668000 -36.759300
O -19.276900 -5.855600 -32.422200
C -19.202500 -6.284100 -34.800300
N -17.790200 -6.615300 -34.862800
O -17.387800 -7.207000 -35.863300
O -17.054200 -6.282000 -33.933200
