18
Fragment
H -9.309700 -16.153500 -16.668200
H -9.229600 -16.363700 -14.325900
C -9.019500 -15.421400 -16.136800
C -8.966600 -15.548300 -14.736200
H -8.699700 -14.164700 -17.681300
C -8.653300 -14.245200 -16.735900
C -8.539200 -14.505000 -13.962500
H -8.505800 -14.602900 -13.018100
C -8.206200 -13.148200 -15.959700
C -8.146700 -13.282600 -14.553300
H -7.850900 -11.829000 -17.494300
C -7.819600 -11.925400 -16.549700
C -7.701000 -12.186300 -13.782000
H -7.648000 -12.268300 -12.837000
C -7.400600 -10.878900 -15.777200
C -7.345000 -11.008400 -14.378600
H -7.146000 -10.060500 -16.187000
H -7.059100 -10.275400 -13.846200
18
Fragment
H -8.364500 -14.151900 -22.785000
H -8.277600 -13.937000 -20.444200
C -8.078700 -14.884900 -22.252600
C -8.023000 -14.755400 -20.854000
H -7.775600 -16.144800 -23.794200
C -7.722600 -16.062800 -22.849200
C -7.604100 -15.801900 -20.081500
H -7.572700 -15.705500 -19.136900
C -7.276900 -17.159100 -22.077900
C -7.217400 -17.024700 -20.671500
H -6.917800 -18.479400 -23.613100
C -6.884400 -18.381500 -22.668700
C -6.770400 -18.121700 -19.895300
H -6.724000 -18.041200 -18.949900
C -6.457000 -19.424800 -21.895000
C -6.404200 -19.297900 -20.494400
H -6.194100 -20.240200 -22.305400
H -6.113900 -20.030000 -19.963000
36
Fragment
H -9.309700 -16.153500 -16.668200
H -9.229600 -16.363700 -14.325900
C -9.019500 -15.421400 -16.136800
C -8.966600 -15.548300 -14.736200
H -8.699700 -14.164700 -17.681300
C -8.653300 -14.245200 -16.735900
C -8.539200 -14.505000 -13.962500
H -8.505800 -14.602900 -13.018100
C -8.206200 -13.148200 -15.959700
C -8.146700 -13.282600 -14.553300
H -7.850900 -11.829000 -17.494300
C -7.819600 -11.925400 -16.549700
C -7.701000 -12.186300 -13.782000
H -7.648000 -12.268300 -12.837000
C -7.400600 -10.878900 -15.777200
C -7.345000 -11.008400 -14.378600
H -7.146000 -10.060500 -16.187000
H -7.059100 -10.275400 -13.846200
H -8.364500 -14.151900 -22.785000
H -8.277600 -13.937000 -20.444200
C -8.078700 -14.884900 -22.252600
C -8.023000 -14.755400 -20.854000
H -7.775600 -16.144800 -23.794200
C -7.722600 -16.062800 -22.849200
C -7.604100 -15.801900 -20.081500
H -7.572700 -15.705500 -19.136900
C -7.276900 -17.159100 -22.077900
C -7.217400 -17.024700 -20.671500
H -6.917800 -18.479400 -23.613100
C -6.884400 -18.381500 -22.668700
C -6.770400 -18.121700 -19.895300
H -6.724000 -18.041200 -18.949900
C -6.457000 -19.424800 -21.895000
C -6.404200 -19.297900 -20.494400
H -6.194100 -20.240200 -22.305400
H -6.113900 -20.030000 -19.963000
