20
Fragment
H -15.399900 -8.883000 -35.361500
H -14.595200 -9.517900 -37.445300
C -14.487600 -9.133800 -35.452700
H -14.012500 -8.871500 -33.466100
C -14.012400 -9.509800 -36.695000
C -13.653900 -9.112100 -34.312200
C -12.660300 -9.880900 -36.846000
H -12.452700 -10.457500 -38.840200
C -12.339800 -9.434900 -34.423600
C -11.986100 -10.377400 -38.016800
C -11.864200 -9.810200 -35.701200
H -11.222400 -9.358200 -32.589100
C -11.202600 -9.550500 -33.519200
C -10.685700 -10.728200 -37.935200
C -10.508100 -10.170100 -35.614600
H -10.265200 -11.063200 -38.718200
C -10.120500 -9.970600 -34.199800
C -9.897800 -10.626600 -36.737700
H -9.255600 -10.114000 -33.834700
H -8.979400 -10.870500 -36.732800
16
Fragment
O -12.317200 -9.782900 -43.791200
O -11.983500 -10.707900 -41.861100
N -11.581100 -10.116200 -42.861700
C -10.168800 -9.785000 -42.924100
O -10.094400 -9.356500 -45.302200
H -9.870400 -10.168900 -40.965200
C -9.577300 -9.374700 -44.179300
C -9.456300 -9.869700 -41.766300
N -8.240300 -9.000100 -44.044100
C -8.117700 -9.514000 -41.775100
H -7.889100 -8.535200 -44.777000
O -7.882200 -10.062300 -39.561200
C -7.507700 -9.063100 -42.915300
N -7.329200 -9.565200 -40.550600
H -6.594400 -8.802700 -42.910400
O -6.190200 -9.137300 -40.561500
36
Fragment
H -15.399900 -8.883000 -35.361500
H -14.595200 -9.517900 -37.445300
C -14.487600 -9.133800 -35.452700
H -14.012500 -8.871500 -33.466100
C -14.012400 -9.509800 -36.695000
C -13.653900 -9.112100 -34.312200
C -12.660300 -9.880900 -36.846000
H -12.452700 -10.457500 -38.840200
C -12.339800 -9.434900 -34.423600
C -11.986100 -10.377400 -38.016800
C -11.864200 -9.810200 -35.701200
H -11.222400 -9.358200 -32.589100
C -11.202600 -9.550500 -33.519200
C -10.685700 -10.728200 -37.935200
C -10.508100 -10.170100 -35.614600
H -10.265200 -11.063200 -38.718200
C -10.120500 -9.970600 -34.199800
C -9.897800 -10.626600 -36.737700
H -9.255600 -10.114000 -33.834700
H -8.979400 -10.870500 -36.732800
O -12.317200 -9.782900 -43.791200
O -11.983500 -10.707900 -41.861100
N -11.581100 -10.116200 -42.861700
C -10.168800 -9.785000 -42.924100
O -10.094400 -9.356500 -45.302200
H -9.870400 -10.168900 -40.965200
C -9.577300 -9.374700 -44.179300
C -9.456300 -9.869700 -41.766300
N -8.240300 -9.000100 -44.044100
C -8.117700 -9.514000 -41.775100
H -7.889100 -8.535200 -44.777000
O -7.882200 -10.062300 -39.561200
C -7.507700 -9.063100 -42.915300
N -7.329200 -9.565200 -40.550600
H -6.594400 -8.802700 -42.910400
O -6.190200 -9.137300 -40.561500
