30
Fragment
H -11.574200 -18.476300 -42.416000
H -11.474000 -16.460700 -41.280300
H -11.460600 -14.701200 -40.350500
H -11.349800 -12.684100 -39.212900
C -11.089400 -17.748100 -42.786000
C -11.031300 -16.548800 -42.116300
C -10.941100 -13.990700 -40.707800
C -10.868500 -12.797600 -40.023800
H -10.462600 -18.728300 -44.453900
C -10.439700 -17.894100 -44.000400
C -10.329600 -15.448000 -42.644800
C -10.261600 -14.177900 -41.922700
C -10.090300 -11.761600 -40.522000
H -10.019900 -10.945100 -40.041400
C -9.760900 -16.830800 -44.549100
C -9.693700 -15.585100 -43.893500
C -9.510900 -13.109700 -42.456300
C -9.423000 -11.919400 -41.708500
H -9.328800 -16.938500 -45.388100
C -9.005600 -14.446000 -44.491500
C -8.896300 -13.235300 -43.770800
H -8.887300 -11.206600 -42.035700
H -8.548500 -15.315300 -46.279600
C -8.465200 -14.509100 -45.784300
C -8.216000 -12.156600 -44.374700
H -8.127000 -11.340000 -43.897600
C -7.819300 -13.439800 -46.355800
C -7.680900 -12.257800 -45.633200
H -7.469800 -13.505900 -47.236700
H -7.215200 -11.521500 -46.011800
30
Fragment
H -11.574200 -27.085500 -42.416000
H -11.474000 -25.069900 -41.280300
H -11.460600 -23.310400 -40.350500
H -11.349800 -21.293300 -39.212900
C -11.089400 -26.357300 -42.786000
C -11.031300 -25.158000 -42.116300
C -10.941100 -22.599900 -40.707800
C -10.868500 -21.406800 -40.023800
H -10.462600 -27.337500 -44.453900
C -10.439700 -26.503300 -44.000400
C -10.329600 -24.057200 -42.644800
C -10.261600 -22.787100 -41.922700
C -10.090300 -20.370800 -40.522000
H -10.019900 -19.554300 -40.041400
C -9.760900 -25.440000 -44.549100
C -9.693700 -24.194300 -43.893500
C -9.510900 -21.718900 -42.456300
C -9.423000 -20.528600 -41.708500
H -9.328800 -25.547700 -45.388100
C -9.005600 -23.055200 -44.491500
C -8.896300 -21.844500 -43.770800
H -8.887300 -19.815800 -42.035700
H -8.548500 -23.924500 -46.279600
C -8.465200 -23.118300 -45.784300
C -8.216000 -20.765800 -44.374700
H -8.127000 -19.949200 -43.897600
C -7.819300 -22.049000 -46.355800
C -7.680900 -20.867000 -45.633200
H -7.469800 -22.115100 -47.236700
H -7.215200 -20.130700 -46.011800
60
Fragment
H -11.574200 -18.476300 -42.416000
H -11.474000 -16.460700 -41.280300
H -11.460600 -14.701200 -40.350500
H -11.349800 -12.684100 -39.212900
C -11.089400 -17.748100 -42.786000
C -11.031300 -16.548800 -42.116300
C -10.941100 -13.990700 -40.707800
C -10.868500 -12.797600 -40.023800
H -10.462600 -18.728300 -44.453900
C -10.439700 -17.894100 -44.000400
C -10.329600 -15.448000 -42.644800
C -10.261600 -14.177900 -41.922700
C -10.090300 -11.761600 -40.522000
H -10.019900 -10.945100 -40.041400
C -9.760900 -16.830800 -44.549100
C -9.693700 -15.585100 -43.893500
C -9.510900 -13.109700 -42.456300
C -9.423000 -11.919400 -41.708500
H -9.328800 -16.938500 -45.388100
C -9.005600 -14.446000 -44.491500
C -8.896300 -13.235300 -43.770800
H -8.887300 -11.206600 -42.035700
H -8.548500 -15.315300 -46.279600
C -8.465200 -14.509100 -45.784300
C -8.216000 -12.156600 -44.374700
H -8.127000 -11.340000 -43.897600
C -7.819300 -13.439800 -46.355800
C -7.680900 -12.257800 -45.633200
H -7.469800 -13.505900 -47.236700
H -7.215200 -11.521500 -46.011800
H -11.574200 -27.085500 -42.416000
H -11.474000 -25.069900 -41.280300
H -11.460600 -23.310400 -40.350500
H -11.349800 -21.293300 -39.212900
C -11.089400 -26.357300 -42.786000
C -11.031300 -25.158000 -42.116300
C -10.941100 -22.599900 -40.707800
C -10.868500 -21.406800 -40.023800
H -10.462600 -27.337500 -44.453900
C -10.439700 -26.503300 -44.000400
C -10.329600 -24.057200 -42.644800
C -10.261600 -22.787100 -41.922700
C -10.090300 -20.370800 -40.522000
H -10.019900 -19.554300 -40.041400
C -9.760900 -25.440000 -44.549100
C -9.693700 -24.194300 -43.893500
C -9.510900 -21.718900 -42.456300
C -9.423000 -20.528600 -41.708500
H -9.328800 -25.547700 -45.388100
C -9.005600 -23.055200 -44.491500
C -8.896300 -21.844500 -43.770800
H -8.887300 -19.815800 -42.035700
H -8.548500 -23.924500 -46.279600
C -8.465200 -23.118300 -45.784300
C -8.216000 -20.765800 -44.374700
H -8.127000 -19.949200 -43.897600
C -7.819300 -22.049000 -46.355800
C -7.680900 -20.867000 -45.633200
H -7.469800 -22.115100 -47.236700
H -7.215200 -20.130700 -46.011800
