16
Fragment
O -30.791200 -7.955200 -24.920500
N -29.674500 -8.188100 -25.368700
H -29.609900 -7.512100 -22.829700
O -29.465500 -8.539400 -26.531200
O -28.983800 -6.696500 -20.680400
C -28.734700 -7.680100 -23.159000
C -28.535000 -8.034800 -24.494700
N -27.919500 -7.251200 -20.937700
C -27.660700 -7.578800 -22.341100
C -27.276500 -8.240700 -24.979900
H -27.145300 -8.487600 -25.887700
O -27.080900 -7.557100 -20.097900
C -26.296300 -7.774900 -22.789600
N -26.230000 -8.090000 -24.160300
H -25.432800 -8.263700 -24.494400
O -25.269100 -7.672800 -22.150700
16
Fragment
O -33.862300 -10.962500 -20.421600
H -33.698500 -11.553400 -18.077900
N -32.901300 -11.379700 -18.412000
C -32.835000 -11.064600 -19.782700
O -32.050400 -10.846800 -22.474400
H -31.986000 -11.777300 -16.684600
C -31.854900 -11.530400 -17.592400
C -31.470700 -10.868500 -20.231200
N -31.211800 -10.540900 -21.634600
C -30.596300 -11.324500 -18.077600
C -30.396600 -10.969800 -19.413300
O -30.147600 -9.986200 -21.891900
O -29.665800 -11.829100 -16.041100
H -29.521500 -10.801800 -19.742700
N -29.456800 -11.477800 -17.203600
O -28.340100 -11.244900 -17.651800
32
Fragment
O -30.791200 -7.955200 -24.920500
N -29.674500 -8.188100 -25.368700
H -29.609900 -7.512100 -22.829700
O -29.465500 -8.539400 -26.531200
O -28.983800 -6.696500 -20.680400
C -28.734700 -7.680100 -23.159000
C -28.535000 -8.034800 -24.494700
N -27.919500 -7.251200 -20.937700
C -27.660700 -7.578800 -22.341100
C -27.276500 -8.240700 -24.979900
H -27.145300 -8.487600 -25.887700
O -27.080900 -7.557100 -20.097900
C -26.296300 -7.774900 -22.789600
N -26.230000 -8.090000 -24.160300
H -25.432800 -8.263700 -24.494400
O -25.269100 -7.672800 -22.150700
O -33.862300 -10.962500 -20.421600
H -33.698500 -11.553400 -18.077900
N -32.901300 -11.379700 -18.412000
C -32.835000 -11.064600 -19.782700
O -32.050400 -10.846800 -22.474400
H -31.986000 -11.777300 -16.684600
C -31.854900 -11.530400 -17.592400
C -31.470700 -10.868500 -20.231200
N -31.211800 -10.540900 -21.634600
C -30.596300 -11.324500 -18.077600
C -30.396600 -10.969800 -19.413300
O -30.147600 -9.986200 -21.891900
O -29.665800 -11.829100 -16.041100
H -29.521500 -10.801800 -19.742700
N -29.456800 -11.477800 -17.203600
O -28.340100 -11.244900 -17.651800
