16
Fragment
O -30.791200 -7.955200 -24.920500
N -29.674500 -8.188100 -25.368700
H -29.609900 -7.512100 -22.829700
O -29.465500 -8.539400 -26.531200
O -28.983800 -6.696500 -20.680400
C -28.734700 -7.680100 -23.159000
C -28.535000 -8.034800 -24.494700
N -27.919500 -7.251200 -20.937700
C -27.660700 -7.578800 -22.341100
C -27.276500 -8.240700 -24.979900
H -27.145300 -8.487600 -25.887700
O -27.080900 -7.557100 -20.097900
C -26.296300 -7.774900 -22.789600
N -26.230000 -8.090000 -24.160300
H -25.432800 -8.263700 -24.494400
O -25.269100 -7.672800 -22.150700
16
Fragment
O -31.131300 -8.493300 -16.406000
N -30.014600 -8.260400 -16.854200
H -29.949900 -8.936400 -14.315200
O -29.805500 -7.909100 -18.016800
O -29.323800 -9.752000 -12.166000
C -29.074800 -8.768400 -14.644500
C -28.875000 -8.413700 -15.980300
N -28.259500 -9.197300 -12.423300
C -28.000700 -8.869700 -13.826600
C -27.616500 -8.207800 -16.465400
H -27.485400 -7.960900 -17.373200
O -27.421000 -8.891400 -11.583400
C -26.636400 -8.673600 -14.275200
N -26.570100 -8.358500 -15.645800
H -25.772800 -8.184800 -15.979900
O -25.609100 -8.775700 -13.636300
32
Fragment
O -30.791200 -7.955200 -24.920500
N -29.674500 -8.188100 -25.368700
H -29.609900 -7.512100 -22.829700
O -29.465500 -8.539400 -26.531200
O -28.983800 -6.696500 -20.680400
C -28.734700 -7.680100 -23.159000
C -28.535000 -8.034800 -24.494700
N -27.919500 -7.251200 -20.937700
C -27.660700 -7.578800 -22.341100
C -27.276500 -8.240700 -24.979900
H -27.145300 -8.487600 -25.887700
O -27.080900 -7.557100 -20.097900
C -26.296300 -7.774900 -22.789600
N -26.230000 -8.090000 -24.160300
H -25.432800 -8.263700 -24.494400
O -25.269100 -7.672800 -22.150700
O -31.131300 -8.493300 -16.406000
N -30.014600 -8.260400 -16.854200
H -29.949900 -8.936400 -14.315200
O -29.805500 -7.909100 -18.016800
O -29.323800 -9.752000 -12.166000
C -29.074800 -8.768400 -14.644500
C -28.875000 -8.413700 -15.980300
N -28.259500 -9.197300 -12.423300
C -28.000700 -8.869700 -13.826600
C -27.616500 -8.207800 -16.465400
H -27.485400 -7.960900 -17.373200
O -27.421000 -8.891400 -11.583400
C -26.636400 -8.673600 -14.275200
N -26.570100 -8.358500 -15.645800
H -25.772800 -8.184800 -15.979900
O -25.609100 -8.775700 -13.636300
