16
Fragment
O -30.791200 -7.955200 -24.920500
N -29.674500 -8.188100 -25.368700
H -29.609900 -7.512100 -22.829700
O -29.465500 -8.539400 -26.531200
O -28.983800 -6.696500 -20.680400
C -28.734700 -7.680100 -23.159000
C -28.535000 -8.034800 -24.494700
N -27.919500 -7.251200 -20.937700
C -27.660700 -7.578800 -22.341100
C -27.276500 -8.240700 -24.979900
H -27.145300 -8.487600 -25.887700
O -27.080900 -7.557100 -20.097900
C -26.296300 -7.774900 -22.789600
N -26.230000 -8.090000 -24.160300
H -25.432800 -8.263700 -24.494400
O -25.269100 -7.672800 -22.150700
24
Fragment
H -39.053800 -7.627300 -25.225300
H -38.649100 -7.608600 -22.965700
C -38.159200 -7.578200 -24.909200
C -37.918600 -7.582800 -23.572500
H -37.281300 -7.480400 -26.765700
C -37.096700 -7.501800 -25.834100
H -37.012100 -7.589300 -21.073000
C -36.587300 -7.547900 -23.066400
C -36.298800 -7.580100 -21.700300
C -35.814400 -7.459100 -25.399700
C -35.498900 -7.504500 -24.003500
H -35.367300 -7.698100 -19.215400
H -35.110000 -7.397600 -26.034200
C -34.983900 -7.597900 -21.241200
C -34.664800 -7.681400 -19.854400
C -34.190100 -7.510400 -23.545400
C -33.895500 -7.561000 -22.183100
H -33.478200 -7.478500 -24.173600
C -33.375600 -7.738000 -19.427600
H -33.190000 -7.819900 -18.499500
C -32.563600 -7.586000 -21.678000
C -32.309600 -7.676200 -20.351600
H -31.836100 -7.538300 -22.286900
H -31.411900 -7.697400 -20.041300
40
Fragment
O -30.791200 -7.955200 -24.920500
N -29.674500 -8.188100 -25.368700
H -29.609900 -7.512100 -22.829700
O -29.465500 -8.539400 -26.531200
O -28.983800 -6.696500 -20.680400
C -28.734700 -7.680100 -23.159000
C -28.535000 -8.034800 -24.494700
N -27.919500 -7.251200 -20.937700
C -27.660700 -7.578800 -22.341100
C -27.276500 -8.240700 -24.979900
H -27.145300 -8.487600 -25.887700
O -27.080900 -7.557100 -20.097900
C -26.296300 -7.774900 -22.789600
N -26.230000 -8.090000 -24.160300
H -25.432800 -8.263700 -24.494400
O -25.269100 -7.672800 -22.150700
H -39.053800 -7.627300 -25.225300
H -38.649100 -7.608600 -22.965700
C -38.159200 -7.578200 -24.909200
C -37.918600 -7.582800 -23.572500
H -37.281300 -7.480400 -26.765700
C -37.096700 -7.501800 -25.834100
H -37.012100 -7.589300 -21.073000
C -36.587300 -7.547900 -23.066400
C -36.298800 -7.580100 -21.700300
C -35.814400 -7.459100 -25.399700
C -35.498900 -7.504500 -24.003500
H -35.367300 -7.698100 -19.215400
H -35.110000 -7.397600 -26.034200
C -34.983900 -7.597900 -21.241200
C -34.664800 -7.681400 -19.854400
C -34.190100 -7.510400 -23.545400
C -33.895500 -7.561000 -22.183100
H -33.478200 -7.478500 -24.173600
C -33.375600 -7.738000 -19.427600
H -33.190000 -7.819900 -18.499500
C -32.563600 -7.586000 -21.678000
C -32.309600 -7.676200 -20.351600
H -31.836100 -7.538300 -22.286900
H -31.411900 -7.697400 -20.041300
