18
Fragment
H -9.309700 -16.153500 -16.668200
H -9.229600 -16.363700 -14.325900
C -9.019500 -15.421400 -16.136800
C -8.966600 -15.548300 -14.736200
H -8.699700 -14.164700 -17.681300
C -8.653300 -14.245200 -16.735900
C -8.539200 -14.505000 -13.962500
H -8.505800 -14.602900 -13.018100
C -8.206200 -13.148200 -15.959700
C -8.146700 -13.282600 -14.553300
H -7.850900 -11.829000 -17.494300
C -7.819600 -11.925400 -16.549700
C -7.701000 -12.186300 -13.782000
H -7.648000 -12.268300 -12.837000
C -7.400600 -10.878900 -15.777200
C -7.345000 -11.008400 -14.378600
H -7.146000 -10.060500 -16.187000
H -7.059100 -10.275400 -13.846200
16
Fragment
H -12.670400 -16.031000 -15.013900
O -12.645700 -16.085100 -17.391600
H -12.444600 -15.095100 -13.024800
C -12.396800 -15.128000 -14.903600
N -12.332200 -14.904700 -17.306500
N -12.244100 -14.613100 -13.682400
O -12.172600 -14.162400 -18.257000
C -12.156000 -14.344600 -15.988900
C -11.836000 -13.318300 -13.399300
O -11.771000 -12.962200 -12.229300
C -11.725200 -13.021300 -15.838000
H -11.557000 -12.474000 -16.596000
C -11.554400 -12.540800 -14.580600
O -11.228800 -10.422600 -15.399100
N -11.095200 -11.165600 -14.440000
O -10.601300 -10.826300 -13.378300
34
Fragment
H -9.309700 -16.153500 -16.668200
H -9.229600 -16.363700 -14.325900
C -9.019500 -15.421400 -16.136800
C -8.966600 -15.548300 -14.736200
H -8.699700 -14.164700 -17.681300
C -8.653300 -14.245200 -16.735900
C -8.539200 -14.505000 -13.962500
H -8.505800 -14.602900 -13.018100
C -8.206200 -13.148200 -15.959700
C -8.146700 -13.282600 -14.553300
H -7.850900 -11.829000 -17.494300
C -7.819600 -11.925400 -16.549700
C -7.701000 -12.186300 -13.782000
H -7.648000 -12.268300 -12.837000
C -7.400600 -10.878900 -15.777200
C -7.345000 -11.008400 -14.378600
H -7.146000 -10.060500 -16.187000
H -7.059100 -10.275400 -13.846200
H -12.670400 -16.031000 -15.013900
O -12.645700 -16.085100 -17.391600
H -12.444600 -15.095100 -13.024800
C -12.396800 -15.128000 -14.903600
N -12.332200 -14.904700 -17.306500
N -12.244100 -14.613100 -13.682400
O -12.172600 -14.162400 -18.257000
C -12.156000 -14.344600 -15.988900
C -11.836000 -13.318300 -13.399300
O -11.771000 -12.962200 -12.229300
C -11.725200 -13.021300 -15.838000
H -11.557000 -12.474000 -16.596000
C -11.554400 -12.540800 -14.580600
O -11.228800 -10.422600 -15.399100
N -11.095200 -11.165600 -14.440000
O -10.601300 -10.826300 -13.378300
