30
Fragment
H -11.574200 -18.476300 -42.416000
H -11.474000 -16.460700 -41.280300
H -11.460600 -14.701200 -40.350500
H -11.349800 -12.684100 -39.212900
C -11.089400 -17.748100 -42.786000
C -11.031300 -16.548800 -42.116300
C -10.941100 -13.990700 -40.707800
C -10.868500 -12.797600 -40.023800
H -10.462600 -18.728300 -44.453900
C -10.439700 -17.894100 -44.000400
C -10.329600 -15.448000 -42.644800
C -10.261600 -14.177900 -41.922700
C -10.090300 -11.761600 -40.522000
H -10.019900 -10.945100 -40.041400
C -9.760900 -16.830800 -44.549100
C -9.693700 -15.585100 -43.893500
C -9.510900 -13.109700 -42.456300
C -9.423000 -11.919400 -41.708500
H -9.328800 -16.938500 -45.388100
C -9.005600 -14.446000 -44.491500
C -8.896300 -13.235300 -43.770800
H -8.887300 -11.206600 -42.035700
H -8.548500 -15.315300 -46.279600
C -8.465200 -14.509100 -45.784300
C -8.216000 -12.156600 -44.374700
H -8.127000 -11.340000 -43.897600
C -7.819300 -13.439800 -46.355800
C -7.680900 -12.257800 -45.633200
H -7.469800 -13.505900 -47.236700
H -7.215200 -11.521500 -46.011800
30
Fragment
H -8.073200 -7.216900 -48.649900
H -7.818600 -9.201300 -47.425000
C -7.607500 -7.953200 -49.028500
C -7.469100 -9.135200 -48.305900
H -7.161400 -7.035400 -50.764100
C -7.072400 -7.852000 -50.287000
C -6.823200 -10.204500 -48.877400
H -6.739900 -11.010700 -48.382100
H -6.401100 -6.902000 -52.626000
C -6.392100 -8.930700 -50.890900
C -6.282800 -10.141400 -50.170200
H -5.959600 -12.633900 -49.273600
C -5.865400 -7.614800 -52.953200
C -5.777500 -8.805100 -52.205400
C -5.594700 -11.280500 -50.768200
C -5.527500 -12.526200 -50.112600
H -5.268500 -6.640500 -54.620300
C -5.198100 -7.457000 -54.139700
C -5.026800 -9.873300 -52.739000
C -4.958800 -11.143400 -52.016900
C -4.848700 -13.589500 -50.661300
H -4.825800 -14.423700 -50.207800
C -4.419900 -8.493000 -54.637900
C -4.347300 -9.686100 -53.953900
C -4.257100 -12.244200 -52.545400
C -4.199000 -13.443500 -51.875700
H -3.938600 -8.379500 -55.448800
H -3.827800 -10.396600 -54.311200
H -3.814400 -12.156100 -53.381400
H -3.714200 -14.171700 -52.245700
60
Fragment
H -11.574200 -18.476300 -42.416000
H -11.474000 -16.460700 -41.280300
H -11.460600 -14.701200 -40.350500
H -11.349800 -12.684100 -39.212900
C -11.089400 -17.748100 -42.786000
C -11.031300 -16.548800 -42.116300
C -10.941100 -13.990700 -40.707800
C -10.868500 -12.797600 -40.023800
H -10.462600 -18.728300 -44.453900
C -10.439700 -17.894100 -44.000400
C -10.329600 -15.448000 -42.644800
C -10.261600 -14.177900 -41.922700
C -10.090300 -11.761600 -40.522000
H -10.019900 -10.945100 -40.041400
C -9.760900 -16.830800 -44.549100
C -9.693700 -15.585100 -43.893500
C -9.510900 -13.109700 -42.456300
C -9.423000 -11.919400 -41.708500
H -9.328800 -16.938500 -45.388100
C -9.005600 -14.446000 -44.491500
C -8.896300 -13.235300 -43.770800
H -8.887300 -11.206600 -42.035700
H -8.548500 -15.315300 -46.279600
C -8.465200 -14.509100 -45.784300
C -8.216000 -12.156600 -44.374700
H -8.127000 -11.340000 -43.897600
C -7.819300 -13.439800 -46.355800
C -7.680900 -12.257800 -45.633200
H -7.469800 -13.505900 -47.236700
H -7.215200 -11.521500 -46.011800
H -8.073200 -7.216900 -48.649900
H -7.818600 -9.201300 -47.425000
C -7.607500 -7.953200 -49.028500
C -7.469100 -9.135200 -48.305900
H -7.161400 -7.035400 -50.764100
C -7.072400 -7.852000 -50.287000
C -6.823200 -10.204500 -48.877400
H -6.739900 -11.010700 -48.382100
H -6.401100 -6.902000 -52.626000
C -6.392100 -8.930700 -50.890900
C -6.282800 -10.141400 -50.170200
H -5.959600 -12.633900 -49.273600
C -5.865400 -7.614800 -52.953200
C -5.777500 -8.805100 -52.205400
C -5.594700 -11.280500 -50.768200
C -5.527500 -12.526200 -50.112600
H -5.268500 -6.640500 -54.620300
C -5.198100 -7.457000 -54.139700
C -5.026800 -9.873300 -52.739000
C -4.958800 -11.143400 -52.016900
C -4.848700 -13.589500 -50.661300
H -4.825800 -14.423700 -50.207800
C -4.419900 -8.493000 -54.637900
C -4.347300 -9.686100 -53.953900
C -4.257100 -12.244200 -52.545400
C -4.199000 -13.443500 -51.875700
H -3.938600 -8.379500 -55.448800
H -3.827800 -10.396600 -54.311200
H -3.814400 -12.156100 -53.381400
H -3.714200 -14.171700 -52.245700
