16
Fragment
O -30.791200 -7.955200 -24.920500
N -29.674500 -8.188100 -25.368700
H -29.609900 -7.512100 -22.829700
O -29.465500 -8.539400 -26.531200
O -28.983800 -6.696500 -20.680400
C -28.734700 -7.680100 -23.159000
C -28.535000 -8.034800 -24.494700
N -27.919500 -7.251200 -20.937700
C -27.660700 -7.578800 -22.341100
C -27.276500 -8.240700 -24.979900
H -27.145300 -8.487600 -25.887700
O -27.080900 -7.557100 -20.097900
C -26.296300 -7.774900 -22.789600
N -26.230000 -8.090000 -24.160300
H -25.432800 -8.263700 -24.494400
O -25.269100 -7.672800 -22.150700
16
Fragment
O -33.522200 -5.486000 -28.936100
H -33.358500 -4.895100 -26.592400
N -32.561200 -5.068800 -26.926500
C -32.494900 -5.383900 -28.297100
O -31.710400 -5.601700 -30.988900
H -31.646000 -4.671200 -25.199100
C -31.514800 -4.918100 -26.106900
C -31.130600 -5.580000 -28.745700
N -30.871800 -5.907600 -30.149000
C -30.256300 -5.124000 -26.592000
C -30.056500 -5.478700 -27.927800
O -29.807500 -6.462300 -30.406300
O -29.325800 -4.619400 -24.555500
H -29.181400 -5.646700 -28.257100
N -29.116700 -4.970700 -25.718100
O -28.000000 -5.203600 -26.166300
32
Fragment
O -30.791200 -7.955200 -24.920500
N -29.674500 -8.188100 -25.368700
H -29.609900 -7.512100 -22.829700
O -29.465500 -8.539400 -26.531200
O -28.983800 -6.696500 -20.680400
C -28.734700 -7.680100 -23.159000
C -28.535000 -8.034800 -24.494700
N -27.919500 -7.251200 -20.937700
C -27.660700 -7.578800 -22.341100
C -27.276500 -8.240700 -24.979900
H -27.145300 -8.487600 -25.887700
O -27.080900 -7.557100 -20.097900
C -26.296300 -7.774900 -22.789600
N -26.230000 -8.090000 -24.160300
H -25.432800 -8.263700 -24.494400
O -25.269100 -7.672800 -22.150700
O -33.522200 -5.486000 -28.936100
H -33.358500 -4.895100 -26.592400
N -32.561200 -5.068800 -26.926500
C -32.494900 -5.383900 -28.297100
O -31.710400 -5.601700 -30.988900
H -31.646000 -4.671200 -25.199100
C -31.514800 -4.918100 -26.106900
C -31.130600 -5.580000 -28.745700
N -30.871800 -5.907600 -30.149000
C -30.256300 -5.124000 -26.592000
C -30.056500 -5.478700 -27.927800
O -29.807500 -6.462300 -30.406300
O -29.325800 -4.619400 -24.555500
H -29.181400 -5.646700 -28.257100
N -29.116700 -4.970700 -25.718100
O -28.000000 -5.203600 -26.166300
