16
Fragment
O -30.791200 -7.955200 -24.920500
N -29.674500 -8.188100 -25.368700
H -29.609900 -7.512100 -22.829700
O -29.465500 -8.539400 -26.531200
O -28.983800 -6.696500 -20.680400
C -28.734700 -7.680100 -23.159000
C -28.535000 -8.034800 -24.494700
N -27.919500 -7.251200 -20.937700
C -27.660700 -7.578800 -22.341100
C -27.276500 -8.240700 -24.979900
H -27.145300 -8.487600 -25.887700
O -27.080900 -7.557100 -20.097900
C -26.296300 -7.774900 -22.789600
N -26.230000 -8.090000 -24.160300
H -25.432800 -8.263700 -24.494400
O -25.269100 -7.672800 -22.150700
24
Fragment
H -38.713700 -8.821200 -33.739700
H -38.309000 -8.839900 -31.480200
C -37.819200 -8.870300 -33.423700
C -37.578500 -8.865700 -32.086900
H -36.941200 -8.968100 -35.280200
C -36.756600 -8.946700 -34.348500
H -36.672000 -8.859200 -29.587400
C -36.247300 -8.900600 -31.580800
C -35.958700 -8.868400 -30.214800
C -35.474400 -8.989400 -33.914100
C -35.158900 -8.944000 -32.517900
H -35.027300 -8.750400 -27.729900
H -34.770000 -9.050900 -34.548600
C -34.643800 -8.850600 -29.755700
C -34.324700 -8.767100 -28.368800
C -33.850000 -8.938100 -32.059800
C -33.555500 -8.887500 -30.697500
H -33.138100 -8.970000 -32.688000
C -33.035500 -8.710500 -27.942100
H -32.849900 -8.628600 -27.014000
C -32.223600 -8.862500 -30.192500
C -31.969500 -8.772300 -28.866100
H -31.496000 -8.910200 -30.801400
H -31.071900 -8.751100 -28.555800
40
Fragment
O -30.791200 -7.955200 -24.920500
N -29.674500 -8.188100 -25.368700
H -29.609900 -7.512100 -22.829700
O -29.465500 -8.539400 -26.531200
O -28.983800 -6.696500 -20.680400
C -28.734700 -7.680100 -23.159000
C -28.535000 -8.034800 -24.494700
N -27.919500 -7.251200 -20.937700
C -27.660700 -7.578800 -22.341100
C -27.276500 -8.240700 -24.979900
H -27.145300 -8.487600 -25.887700
O -27.080900 -7.557100 -20.097900
C -26.296300 -7.774900 -22.789600
N -26.230000 -8.090000 -24.160300
H -25.432800 -8.263700 -24.494400
O -25.269100 -7.672800 -22.150700
H -38.713700 -8.821200 -33.739700
H -38.309000 -8.839900 -31.480200
C -37.819200 -8.870300 -33.423700
C -37.578500 -8.865700 -32.086900
H -36.941200 -8.968100 -35.280200
C -36.756600 -8.946700 -34.348500
H -36.672000 -8.859200 -29.587400
C -36.247300 -8.900600 -31.580800
C -35.958700 -8.868400 -30.214800
C -35.474400 -8.989400 -33.914100
C -35.158900 -8.944000 -32.517900
H -35.027300 -8.750400 -27.729900
H -34.770000 -9.050900 -34.548600
C -34.643800 -8.850600 -29.755700
C -34.324700 -8.767100 -28.368800
C -33.850000 -8.938100 -32.059800
C -33.555500 -8.887500 -30.697500
H -33.138100 -8.970000 -32.688000
C -33.035500 -8.710500 -27.942100
H -32.849900 -8.628600 -27.014000
C -32.223600 -8.862500 -30.192500
C -31.969500 -8.772300 -28.866100
H -31.496000 -8.910200 -30.801400
H -31.071900 -8.751100 -28.555800
