18
Fragment
H -9.309700 -16.153500 -16.668200
H -9.229600 -16.363700 -14.325900
C -9.019500 -15.421400 -16.136800
C -8.966600 -15.548300 -14.736200
H -8.699700 -14.164700 -17.681300
C -8.653300 -14.245200 -16.735900
C -8.539200 -14.505000 -13.962500
H -8.505800 -14.602900 -13.018100
C -8.206200 -13.148200 -15.959700
C -8.146700 -13.282600 -14.553300
H -7.850900 -11.829000 -17.494300
C -7.819600 -11.925400 -16.549700
C -7.701000 -12.186300 -13.782000
H -7.648000 -12.268300 -12.837000
C -7.400600 -10.878900 -15.777200
C -7.345000 -11.008400 -14.378600
H -7.146000 -10.060500 -16.187000
H -7.059100 -10.275400 -13.846200
16
Fragment
O -6.817900 -6.949800 -11.042500
N -6.324000 -7.289100 -9.980800
O -6.190400 -6.546100 -9.021700
C -5.864800 -8.664300 -9.840200
H -5.862200 -8.597500 -7.824800
C -5.694000 -9.144800 -8.582800
O -5.648200 -9.085700 -12.191500
C -5.583200 -9.441800 -11.021500
C -5.263200 -10.468100 -8.431900
O -5.246600 -10.285900 -6.163800
N -5.175100 -10.736600 -10.738400
N -5.087100 -11.028200 -7.114300
C -5.022400 -11.251500 -9.517200
H -4.974600 -11.218600 -11.396000
O -4.773500 -12.208600 -7.029200
H -4.748800 -12.154500 -9.406900
34
Fragment
H -9.309700 -16.153500 -16.668200
H -9.229600 -16.363700 -14.325900
C -9.019500 -15.421400 -16.136800
C -8.966600 -15.548300 -14.736200
H -8.699700 -14.164700 -17.681300
C -8.653300 -14.245200 -16.735900
C -8.539200 -14.505000 -13.962500
H -8.505800 -14.602900 -13.018100
C -8.206200 -13.148200 -15.959700
C -8.146700 -13.282600 -14.553300
H -7.850900 -11.829000 -17.494300
C -7.819600 -11.925400 -16.549700
C -7.701000 -12.186300 -13.782000
H -7.648000 -12.268300 -12.837000
C -7.400600 -10.878900 -15.777200
C -7.345000 -11.008400 -14.378600
H -7.146000 -10.060500 -16.187000
H -7.059100 -10.275400 -13.846200
O -6.817900 -6.949800 -11.042500
N -6.324000 -7.289100 -9.980800
O -6.190400 -6.546100 -9.021700
C -5.864800 -8.664300 -9.840200
H -5.862200 -8.597500 -7.824800
C -5.694000 -9.144800 -8.582800
O -5.648200 -9.085700 -12.191500
C -5.583200 -9.441800 -11.021500
C -5.263200 -10.468100 -8.431900
O -5.246600 -10.285900 -6.163800
N -5.175100 -10.736600 -10.738400
N -5.087100 -11.028200 -7.114300
C -5.022400 -11.251500 -9.517200
H -4.974600 -11.218600 -11.396000
O -4.773500 -12.208600 -7.029200
H -4.748800 -12.154500 -9.406900
