30
Fragment
H -11.574200 -18.476300 -42.416000
H -11.474000 -16.460700 -41.280300
H -11.460600 -14.701200 -40.350500
H -11.349800 -12.684100 -39.212900
C -11.089400 -17.748100 -42.786000
C -11.031300 -16.548800 -42.116300
C -10.941100 -13.990700 -40.707800
C -10.868500 -12.797600 -40.023800
H -10.462600 -18.728300 -44.453900
C -10.439700 -17.894100 -44.000400
C -10.329600 -15.448000 -42.644800
C -10.261600 -14.177900 -41.922700
C -10.090300 -11.761600 -40.522000
H -10.019900 -10.945100 -40.041400
C -9.760900 -16.830800 -44.549100
C -9.693700 -15.585100 -43.893500
C -9.510900 -13.109700 -42.456300
C -9.423000 -11.919400 -41.708500
H -9.328800 -16.938500 -45.388100
C -9.005600 -14.446000 -44.491500
C -8.896300 -13.235300 -43.770800
H -8.887300 -11.206600 -42.035700
H -8.548500 -15.315300 -46.279600
C -8.465200 -14.509100 -45.784300
C -8.216000 -12.156600 -44.374700
H -8.127000 -11.340000 -43.897600
C -7.819300 -13.439800 -46.355800
C -7.680900 -12.257800 -45.633200
H -7.469800 -13.505900 -47.236700
H -7.215200 -11.521500 -46.011800
30
Fragment
H -15.396300 -3.046700 -38.722600
H -15.296100 -5.062300 -39.858300
H -15.282700 -6.821800 -40.788100
H -15.171900 -8.838900 -41.925700
C -14.911500 -3.774900 -38.352600
C -14.853400 -4.974200 -39.022300
C -14.763200 -7.532300 -40.430800
C -14.690600 -8.725400 -41.114800
H -14.284700 -2.794700 -36.684700
C -14.261800 -3.628900 -37.138200
C -14.151700 -6.075000 -38.493800
C -14.083700 -7.345100 -39.215900
C -13.912400 -9.761400 -40.616600
H -13.842000 -10.577900 -41.097200
C -13.583000 -4.692200 -36.589500
C -13.515800 -5.937900 -37.245100
C -13.333000 -8.413300 -38.682300
C -13.245100 -9.603600 -39.430100
H -13.150900 -4.584500 -35.750500
C -12.827700 -7.077000 -36.647100
C -12.718400 -8.287700 -37.367800
H -12.709400 -10.316400 -39.102900
H -12.370600 -6.207700 -34.859000
C -12.287300 -7.013900 -35.354300
C -12.038100 -9.366400 -36.763900
H -11.949100 -10.183000 -37.241000
C -11.641400 -8.083200 -34.782800
C -11.503000 -9.265200 -35.505400
H -11.291900 -8.017100 -33.901900
H -11.037300 -10.001500 -35.126800
60
Fragment
H -11.574200 -18.476300 -42.416000
H -11.474000 -16.460700 -41.280300
H -11.460600 -14.701200 -40.350500
H -11.349800 -12.684100 -39.212900
C -11.089400 -17.748100 -42.786000
C -11.031300 -16.548800 -42.116300
C -10.941100 -13.990700 -40.707800
C -10.868500 -12.797600 -40.023800
H -10.462600 -18.728300 -44.453900
C -10.439700 -17.894100 -44.000400
C -10.329600 -15.448000 -42.644800
C -10.261600 -14.177900 -41.922700
C -10.090300 -11.761600 -40.522000
H -10.019900 -10.945100 -40.041400
C -9.760900 -16.830800 -44.549100
C -9.693700 -15.585100 -43.893500
C -9.510900 -13.109700 -42.456300
C -9.423000 -11.919400 -41.708500
H -9.328800 -16.938500 -45.388100
C -9.005600 -14.446000 -44.491500
C -8.896300 -13.235300 -43.770800
H -8.887300 -11.206600 -42.035700
H -8.548500 -15.315300 -46.279600
C -8.465200 -14.509100 -45.784300
C -8.216000 -12.156600 -44.374700
H -8.127000 -11.340000 -43.897600
C -7.819300 -13.439800 -46.355800
C -7.680900 -12.257800 -45.633200
H -7.469800 -13.505900 -47.236700
H -7.215200 -11.521500 -46.011800
H -15.396300 -3.046700 -38.722600
H -15.296100 -5.062300 -39.858300
H -15.282700 -6.821800 -40.788100
H -15.171900 -8.838900 -41.925700
C -14.911500 -3.774900 -38.352600
C -14.853400 -4.974200 -39.022300
C -14.763200 -7.532300 -40.430800
C -14.690600 -8.725400 -41.114800
H -14.284700 -2.794700 -36.684700
C -14.261800 -3.628900 -37.138200
C -14.151700 -6.075000 -38.493800
C -14.083700 -7.345100 -39.215900
C -13.912400 -9.761400 -40.616600
H -13.842000 -10.577900 -41.097200
C -13.583000 -4.692200 -36.589500
C -13.515800 -5.937900 -37.245100
C -13.333000 -8.413300 -38.682300
C -13.245100 -9.603600 -39.430100
H -13.150900 -4.584500 -35.750500
C -12.827700 -7.077000 -36.647100
C -12.718400 -8.287700 -37.367800
H -12.709400 -10.316400 -39.102900
H -12.370600 -6.207700 -34.859000
C -12.287300 -7.013900 -35.354300
C -12.038100 -9.366400 -36.763900
H -11.949100 -10.183000 -37.241000
C -11.641400 -8.083200 -34.782800
C -11.503000 -9.265200 -35.505400
H -11.291900 -8.017100 -33.901900
H -11.037300 -10.001500 -35.126800
