20
Fragment
H -15.399900 -8.883000 -35.361500
H -14.595200 -9.517900 -37.445300
C -14.487600 -9.133800 -35.452700
H -14.012500 -8.871500 -33.466100
C -14.012400 -9.509800 -36.695000
C -13.653900 -9.112100 -34.312200
C -12.660300 -9.880900 -36.846000
H -12.452700 -10.457500 -38.840200
C -12.339800 -9.434900 -34.423600
C -11.986100 -10.377400 -38.016800
C -11.864200 -9.810200 -35.701200
H -11.222400 -9.358200 -32.589100
C -11.202600 -9.550500 -33.519200
C -10.685700 -10.728200 -37.935200
C -10.508100 -10.170100 -35.614600
H -10.265200 -11.063200 -38.718200
C -10.120500 -9.970600 -34.199800
C -9.897800 -10.626600 -36.737700
H -9.255600 -10.114000 -33.834700
H -8.979400 -10.870500 -36.732800
16
Fragment
O -7.201500 -12.638200 -37.162900
H -6.797300 -12.303600 -34.814100
N -6.062600 -13.066100 -37.173800
C -5.884000 -12.564000 -34.809100
O -5.509500 -13.563200 -38.163200
H -5.502600 -12.036100 -32.947400
C -5.274000 -13.014900 -35.949400
N -5.151400 -12.501000 -33.680300
C -3.935400 -13.370600 -35.958200
C -3.814400 -12.875600 -33.545100
H -3.521300 -13.669800 -36.759300
O -3.297300 -12.857400 -32.422200
C -3.222900 -13.285900 -34.800300
N -1.810600 -13.617100 -34.862800
O -1.408200 -14.208800 -35.863300
O -1.074600 -13.283800 -33.933200
36
Fragment
H -15.399900 -8.883000 -35.361500
H -14.595200 -9.517900 -37.445300
C -14.487600 -9.133800 -35.452700
H -14.012500 -8.871500 -33.466100
C -14.012400 -9.509800 -36.695000
C -13.653900 -9.112100 -34.312200
C -12.660300 -9.880900 -36.846000
H -12.452700 -10.457500 -38.840200
C -12.339800 -9.434900 -34.423600
C -11.986100 -10.377400 -38.016800
C -11.864200 -9.810200 -35.701200
H -11.222400 -9.358200 -32.589100
C -11.202600 -9.550500 -33.519200
C -10.685700 -10.728200 -37.935200
C -10.508100 -10.170100 -35.614600
H -10.265200 -11.063200 -38.718200
C -10.120500 -9.970600 -34.199800
C -9.897800 -10.626600 -36.737700
H -9.255600 -10.114000 -33.834700
H -8.979400 -10.870500 -36.732800
O -7.201500 -12.638200 -37.162900
H -6.797300 -12.303600 -34.814100
N -6.062600 -13.066100 -37.173800
C -5.884000 -12.564000 -34.809100
O -5.509500 -13.563200 -38.163200
H -5.502600 -12.036100 -32.947400
C -5.274000 -13.014900 -35.949400
N -5.151400 -12.501000 -33.680300
C -3.935400 -13.370600 -35.958200
C -3.814400 -12.875600 -33.545100
H -3.521300 -13.669800 -36.759300
O -3.297300 -12.857400 -32.422200
C -3.222900 -13.285900 -34.800300
N -1.810600 -13.617100 -34.862800
O -1.408200 -14.208800 -35.863300
O -1.074600 -13.283800 -33.933200
