16
Fragment
O -30.791200 -7.955200 -24.920500
N -29.674500 -8.188100 -25.368700
H -29.609900 -7.512100 -22.829700
O -29.465500 -8.539400 -26.531200
O -28.983800 -6.696500 -20.680400
C -28.734700 -7.680100 -23.159000
C -28.535000 -8.034800 -24.494700
N -27.919500 -7.251200 -20.937700
C -27.660700 -7.578800 -22.341100
C -27.276500 -8.240700 -24.979900
H -27.145300 -8.487600 -25.887700
O -27.080900 -7.557100 -20.097900
C -26.296300 -7.774900 -22.789600
N -26.230000 -8.090000 -24.160300
H -25.432800 -8.263700 -24.494400
O -25.269100 -7.672800 -22.150700
24
Fragment
H -27.719400 -4.407700 -22.531000
H -27.295200 -4.248600 -20.285400
C -26.821700 -4.386500 -22.220700
C -26.567700 -4.296300 -20.894300
H -25.941300 -4.530200 -24.072800
C -25.755800 -4.448300 -23.144700
H -25.653100 -4.188800 -18.398700
C -25.235800 -4.271300 -20.389200
C -24.941200 -4.220700 -19.026900
C -24.466600 -4.391700 -22.717900
C -24.147400 -4.308200 -21.331100
H -24.021300 -4.107900 -16.538200
H -23.764000 -4.408400 -23.356900
C -23.632400 -4.214800 -18.568800
C -23.316900 -4.169400 -17.172600
C -22.832500 -4.290400 -20.872000
C -22.544000 -4.258200 -19.506000
H -22.119300 -4.299600 -21.499400
C -22.034700 -4.212100 -16.738200
H -21.850000 -4.190700 -15.806600
C -21.212700 -4.293100 -18.999900
C -20.972100 -4.288500 -17.663100
H -20.482200 -4.318900 -19.606600
H -20.077500 -4.337600 -17.347000
40
Fragment
O -30.791200 -7.955200 -24.920500
N -29.674500 -8.188100 -25.368700
H -29.609900 -7.512100 -22.829700
O -29.465500 -8.539400 -26.531200
O -28.983800 -6.696500 -20.680400
C -28.734700 -7.680100 -23.159000
C -28.535000 -8.034800 -24.494700
N -27.919500 -7.251200 -20.937700
C -27.660700 -7.578800 -22.341100
C -27.276500 -8.240700 -24.979900
H -27.145300 -8.487600 -25.887700
O -27.080900 -7.557100 -20.097900
C -26.296300 -7.774900 -22.789600
N -26.230000 -8.090000 -24.160300
H -25.432800 -8.263700 -24.494400
O -25.269100 -7.672800 -22.150700
H -27.719400 -4.407700 -22.531000
H -27.295200 -4.248600 -20.285400
C -26.821700 -4.386500 -22.220700
C -26.567700 -4.296300 -20.894300
H -25.941300 -4.530200 -24.072800
C -25.755800 -4.448300 -23.144700
H -25.653100 -4.188800 -18.398700
C -25.235800 -4.271300 -20.389200
C -24.941200 -4.220700 -19.026900
C -24.466600 -4.391700 -22.717900
C -24.147400 -4.308200 -21.331100
H -24.021300 -4.107900 -16.538200
H -23.764000 -4.408400 -23.356900
C -23.632400 -4.214800 -18.568800
C -23.316900 -4.169400 -17.172600
C -22.832500 -4.290400 -20.872000
C -22.544000 -4.258200 -19.506000
H -22.119300 -4.299600 -21.499400
C -22.034700 -4.212100 -16.738200
H -21.850000 -4.190700 -15.806600
C -21.212700 -4.293100 -18.999900
C -20.972100 -4.288500 -17.663100
H -20.482200 -4.318900 -19.606600
H -20.077500 -4.337600 -17.347000
