18
Fragment
H -9.309700 -16.153500 -16.668200
H -9.229600 -16.363700 -14.325900
C -9.019500 -15.421400 -16.136800
C -8.966600 -15.548300 -14.736200
H -8.699700 -14.164700 -17.681300
C -8.653300 -14.245200 -16.735900
C -8.539200 -14.505000 -13.962500
H -8.505800 -14.602900 -13.018100
C -8.206200 -13.148200 -15.959700
C -8.146700 -13.282600 -14.553300
H -7.850900 -11.829000 -17.494300
C -7.819600 -11.925400 -16.549700
C -7.701000 -12.186300 -13.782000
H -7.648000 -12.268300 -12.837000
C -7.400600 -10.878900 -15.777200
C -7.345000 -11.008400 -14.378600
H -7.146000 -10.060500 -16.187000
H -7.059100 -10.275400 -13.846200
18
Fragment
H -10.360100 -6.398900 -10.574600
H -10.273200 -6.184000 -8.233800
C -10.074300 -7.131900 -10.042200
C -10.018600 -7.002400 -8.643600
H -9.771200 -8.391800 -11.583800
C -9.718200 -8.309800 -10.638800
C -9.599600 -8.048900 -7.871100
H -9.568300 -7.952500 -6.926500
C -9.272500 -9.406100 -9.867500
C -9.213000 -9.271700 -8.461100
H -8.913400 -10.726400 -11.402700
C -8.880000 -10.628500 -10.458300
C -8.766000 -10.368700 -7.684900
H -8.719600 -10.288200 -6.739500
C -8.452600 -11.671800 -9.684600
C -8.399800 -11.544900 -8.284000
H -8.189700 -12.487200 -10.094900
H -8.109500 -12.277000 -7.752600
36
Fragment
H -9.309700 -16.153500 -16.668200
H -9.229600 -16.363700 -14.325900
C -9.019500 -15.421400 -16.136800
C -8.966600 -15.548300 -14.736200
H -8.699700 -14.164700 -17.681300
C -8.653300 -14.245200 -16.735900
C -8.539200 -14.505000 -13.962500
H -8.505800 -14.602900 -13.018100
C -8.206200 -13.148200 -15.959700
C -8.146700 -13.282600 -14.553300
H -7.850900 -11.829000 -17.494300
C -7.819600 -11.925400 -16.549700
C -7.701000 -12.186300 -13.782000
H -7.648000 -12.268300 -12.837000
C -7.400600 -10.878900 -15.777200
C -7.345000 -11.008400 -14.378600
H -7.146000 -10.060500 -16.187000
H -7.059100 -10.275400 -13.846200
H -10.360100 -6.398900 -10.574600
H -10.273200 -6.184000 -8.233800
C -10.074300 -7.131900 -10.042200
C -10.018600 -7.002400 -8.643600
H -9.771200 -8.391800 -11.583800
C -9.718200 -8.309800 -10.638800
C -9.599600 -8.048900 -7.871100
H -9.568300 -7.952500 -6.926500
C -9.272500 -9.406100 -9.867500
C -9.213000 -9.271700 -8.461100
H -8.913400 -10.726400 -11.402700
C -8.880000 -10.628500 -10.458300
C -8.766000 -10.368700 -7.684900
H -8.719600 -10.288200 -6.739500
C -8.452600 -11.671800 -9.684600
C -8.399800 -11.544900 -8.284000
H -8.189700 -12.487200 -10.094900
H -8.109500 -12.277000 -7.752600
