18
Fragment
H -9.309700 -16.153500 -16.668200
H -9.229600 -16.363700 -14.325900
C -9.019500 -15.421400 -16.136800
C -8.966600 -15.548300 -14.736200
H -8.699700 -14.164700 -17.681300
C -8.653300 -14.245200 -16.735900
C -8.539200 -14.505000 -13.962500
H -8.505800 -14.602900 -13.018100
C -8.206200 -13.148200 -15.959700
C -8.146700 -13.282600 -14.553300
H -7.850900 -11.829000 -17.494300
C -7.819600 -11.925400 -16.549700
C -7.701000 -12.186300 -13.782000
H -7.648000 -12.268300 -12.837000
C -7.400600 -10.878900 -15.777200
C -7.345000 -11.008400 -14.378600
H -7.146000 -10.060500 -16.187000
H -7.059100 -10.275400 -13.846200
18
Fragment
H -9.309700 -8.400500 -16.668200
H -9.229600 -8.610700 -14.325900
C -9.019500 -7.668400 -16.136800
C -8.966600 -7.795300 -14.736200
H -8.699700 -6.411700 -17.681300
C -8.653300 -6.492200 -16.735900
C -8.539200 -6.752000 -13.962500
H -8.505800 -6.849900 -13.018100
C -8.206200 -5.395200 -15.959700
C -8.146700 -5.529600 -14.553300
H -7.850900 -4.076000 -17.494300
C -7.819600 -4.172400 -16.549700
C -7.701000 -4.433300 -13.782000
H -7.648000 -4.515300 -12.837000
C -7.400600 -3.125900 -15.777200
C -7.345000 -3.255400 -14.378600
H -7.146000 -2.307500 -16.187000
H -7.059100 -2.522400 -13.846200
36
Fragment
H -9.309700 -16.153500 -16.668200
H -9.229600 -16.363700 -14.325900
C -9.019500 -15.421400 -16.136800
C -8.966600 -15.548300 -14.736200
H -8.699700 -14.164700 -17.681300
C -8.653300 -14.245200 -16.735900
C -8.539200 -14.505000 -13.962500
H -8.505800 -14.602900 -13.018100
C -8.206200 -13.148200 -15.959700
C -8.146700 -13.282600 -14.553300
H -7.850900 -11.829000 -17.494300
C -7.819600 -11.925400 -16.549700
C -7.701000 -12.186300 -13.782000
H -7.648000 -12.268300 -12.837000
C -7.400600 -10.878900 -15.777200
C -7.345000 -11.008400 -14.378600
H -7.146000 -10.060500 -16.187000
H -7.059100 -10.275400 -13.846200
H -9.309700 -8.400500 -16.668200
H -9.229600 -8.610700 -14.325900
C -9.019500 -7.668400 -16.136800
C -8.966600 -7.795300 -14.736200
H -8.699700 -6.411700 -17.681300
C -8.653300 -6.492200 -16.735900
C -8.539200 -6.752000 -13.962500
H -8.505800 -6.849900 -13.018100
C -8.206200 -5.395200 -15.959700
C -8.146700 -5.529600 -14.553300
H -7.850900 -4.076000 -17.494300
C -7.819600 -4.172400 -16.549700
C -7.701000 -4.433300 -13.782000
H -7.648000 -4.515300 -12.837000
C -7.400600 -3.125900 -15.777200
C -7.345000 -3.255400 -14.378600
H -7.146000 -2.307500 -16.187000
H -7.059100 -2.522400 -13.846200
