30
Fragment
H -11.574200 -18.476300 -42.416000
H -11.474000 -16.460700 -41.280300
H -11.460600 -14.701200 -40.350500
H -11.349800 -12.684100 -39.212900
C -11.089400 -17.748100 -42.786000
C -11.031300 -16.548800 -42.116300
C -10.941100 -13.990700 -40.707800
C -10.868500 -12.797600 -40.023800
H -10.462600 -18.728300 -44.453900
C -10.439700 -17.894100 -44.000400
C -10.329600 -15.448000 -42.644800
C -10.261600 -14.177900 -41.922700
C -10.090300 -11.761600 -40.522000
H -10.019900 -10.945100 -40.041400
C -9.760900 -16.830800 -44.549100
C -9.693700 -15.585100 -43.893500
C -9.510900 -13.109700 -42.456300
C -9.423000 -11.919400 -41.708500
H -9.328800 -16.938500 -45.388100
C -9.005600 -14.446000 -44.491500
C -8.896300 -13.235300 -43.770800
H -8.887300 -11.206600 -42.035700
H -8.548500 -15.315300 -46.279600
C -8.465200 -14.509100 -45.784300
C -8.216000 -12.156600 -44.374700
H -8.127000 -11.340000 -43.897600
C -7.819300 -13.439800 -46.355800
C -7.680900 -12.257800 -45.633200
H -7.469800 -13.505900 -47.236700
H -7.215200 -11.521500 -46.011800
16
Fragment
O -14.324300 -17.688100 -44.524300
O -13.820300 -13.581300 -42.081200
H -13.748800 -15.633900 -43.425900
N -13.397200 -17.392100 -45.262900
C -13.262200 -15.258400 -44.150200
N -13.174900 -13.085500 -42.993200
C -12.946400 -16.007500 -45.242600
C -12.852200 -13.924800 -44.122600
O -12.839300 -18.190200 -46.005300
O -12.792200 -11.921700 -43.022400
C -12.220800 -15.486600 -46.381000
C -12.181800 -13.379800 -45.170700
H -11.916800 -12.467800 -45.147100
O -11.911400 -16.064700 -47.407400
N -11.898300 -14.135200 -46.234400
H -11.504500 -13.740300 -46.919700
46
Fragment
H -11.574200 -18.476300 -42.416000
H -11.474000 -16.460700 -41.280300
H -11.460600 -14.701200 -40.350500
H -11.349800 -12.684100 -39.212900
C -11.089400 -17.748100 -42.786000
C -11.031300 -16.548800 -42.116300
C -10.941100 -13.990700 -40.707800
C -10.868500 -12.797600 -40.023800
H -10.462600 -18.728300 -44.453900
C -10.439700 -17.894100 -44.000400
C -10.329600 -15.448000 -42.644800
C -10.261600 -14.177900 -41.922700
C -10.090300 -11.761600 -40.522000
H -10.019900 -10.945100 -40.041400
C -9.760900 -16.830800 -44.549100
C -9.693700 -15.585100 -43.893500
C -9.510900 -13.109700 -42.456300
C -9.423000 -11.919400 -41.708500
H -9.328800 -16.938500 -45.388100
C -9.005600 -14.446000 -44.491500
C -8.896300 -13.235300 -43.770800
H -8.887300 -11.206600 -42.035700
H -8.548500 -15.315300 -46.279600
C -8.465200 -14.509100 -45.784300
C -8.216000 -12.156600 -44.374700
H -8.127000 -11.340000 -43.897600
C -7.819300 -13.439800 -46.355800
C -7.680900 -12.257800 -45.633200
H -7.469800 -13.505900 -47.236700
H -7.215200 -11.521500 -46.011800
O -14.324300 -17.688100 -44.524300
O -13.820300 -13.581300 -42.081200
H -13.748800 -15.633900 -43.425900
N -13.397200 -17.392100 -45.262900
C -13.262200 -15.258400 -44.150200
N -13.174900 -13.085500 -42.993200
C -12.946400 -16.007500 -45.242600
C -12.852200 -13.924800 -44.122600
O -12.839300 -18.190200 -46.005300
O -12.792200 -11.921700 -43.022400
C -12.220800 -15.486600 -46.381000
C -12.181800 -13.379800 -45.170700
H -11.916800 -12.467800 -45.147100
O -11.911400 -16.064700 -47.407400
N -11.898300 -14.135200 -46.234400
H -11.504500 -13.740300 -46.919700
