18
Fragment
H -9.309700 -16.153500 -16.668200
H -9.229600 -16.363700 -14.325900
C -9.019500 -15.421400 -16.136800
C -8.966600 -15.548300 -14.736200
H -8.699700 -14.164700 -17.681300
C -8.653300 -14.245200 -16.735900
C -8.539200 -14.505000 -13.962500
H -8.505800 -14.602900 -13.018100
C -8.206200 -13.148200 -15.959700
C -8.146700 -13.282600 -14.553300
H -7.850900 -11.829000 -17.494300
C -7.819600 -11.925400 -16.549700
C -7.701000 -12.186300 -13.782000
H -7.648000 -12.268300 -12.837000
C -7.400600 -10.878900 -15.777200
C -7.345000 -11.008400 -14.378600
H -7.146000 -10.060500 -16.187000
H -7.059100 -10.275400 -13.846200
16
Fragment
O -11.959100 -6.949800 -23.252900
N -11.465200 -7.289100 -22.191200
O -11.331600 -6.546100 -21.232100
C -11.006000 -8.664300 -22.050600
H -11.003500 -8.597500 -20.035200
C -10.835200 -9.144800 -20.793200
O -10.789400 -9.085700 -24.401900
C -10.724400 -9.441800 -23.231900
C -10.404400 -10.468100 -20.642300
O -10.387800 -10.285900 -18.374200
N -10.316300 -10.736600 -22.948800
N -10.228300 -11.028200 -19.324700
C -10.163600 -11.251500 -21.727600
H -10.115800 -11.218600 -23.606400
O -9.914700 -12.208600 -19.239600
H -9.890000 -12.154500 -21.617300
34
Fragment
H -9.309700 -16.153500 -16.668200
H -9.229600 -16.363700 -14.325900
C -9.019500 -15.421400 -16.136800
C -8.966600 -15.548300 -14.736200
H -8.699700 -14.164700 -17.681300
C -8.653300 -14.245200 -16.735900
C -8.539200 -14.505000 -13.962500
H -8.505800 -14.602900 -13.018100
C -8.206200 -13.148200 -15.959700
C -8.146700 -13.282600 -14.553300
H -7.850900 -11.829000 -17.494300
C -7.819600 -11.925400 -16.549700
C -7.701000 -12.186300 -13.782000
H -7.648000 -12.268300 -12.837000
C -7.400600 -10.878900 -15.777200
C -7.345000 -11.008400 -14.378600
H -7.146000 -10.060500 -16.187000
H -7.059100 -10.275400 -13.846200
O -11.959100 -6.949800 -23.252900
N -11.465200 -7.289100 -22.191200
O -11.331600 -6.546100 -21.232100
C -11.006000 -8.664300 -22.050600
H -11.003500 -8.597500 -20.035200
C -10.835200 -9.144800 -20.793200
O -10.789400 -9.085700 -24.401900
C -10.724400 -9.441800 -23.231900
C -10.404400 -10.468100 -20.642300
O -10.387800 -10.285900 -18.374200
N -10.316300 -10.736600 -22.948800
N -10.228300 -11.028200 -19.324700
C -10.163600 -11.251500 -21.727600
H -10.115800 -11.218600 -23.606400
O -9.914700 -12.208600 -19.239600
H -9.890000 -12.154500 -21.617300
