16
Fragment
O -20.454400 -10.337700 -37.650900
C -19.978500 -9.747600 -36.687400
H -19.894900 -8.060600 -37.573300
O -19.893800 -12.485000 -36.067700
N -19.799400 -11.716700 -35.111300
O -19.793500 -12.075500 -33.945100
N -19.718900 -8.372900 -36.781500
C -19.653100 -10.278400 -35.375500
C -19.271900 -7.590100 -35.800600
C -19.217100 -9.500700 -34.349400
H -19.126300 -6.663700 -35.954500
H -19.046100 -9.880200 -33.495400
C -19.024700 -8.132900 -34.569200
N -18.557800 -7.291600 -33.493800
O -18.452200 -7.800000 -32.377700
O -18.289000 -6.119000 -33.745300
32
Fragment
H -24.935200 -2.281700 -41.516600
H -24.933000 -4.419500 -42.401600
C -24.688100 -3.020400 -40.973200
C -24.670300 -4.281500 -41.499000
H -24.393600 -6.819500 -42.172300
H -24.361000 -1.937100 -39.275700
C -24.340200 -2.819100 -39.627500
C -24.264000 -5.384400 -40.710200
C -24.156800 -6.678200 -41.263200
H -24.030000 -1.662100 -37.275200
C -23.968000 -3.861700 -38.795600
C -23.912500 -5.183100 -39.338100
C -23.719500 -2.403600 -36.768900
C -23.717400 -7.731200 -40.511000
H -23.640300 -8.593900 -40.900800
C -23.618900 -3.645800 -37.377300
C -23.478200 -6.296200 -38.560400
H -23.440200 -1.352700 -35.035000
C -23.380700 -7.537600 -39.165000
C -23.373000 -2.217800 -35.422200
C -23.190100 -4.758100 -36.595000
C -23.133400 -6.082000 -37.144300
H -23.077300 -8.277900 -38.653200
C -22.940200 -3.265500 -34.662000
C -22.855300 -4.565400 -35.221900
C -22.777500 -7.133300 -36.302000
H -22.756700 -8.016400 -36.650500
H -22.695200 -3.123300 -33.755300
C -22.469700 -5.670800 -34.430500
C -22.450700 -6.926000 -34.960700
H -22.222200 -5.537900 -33.522900
H -22.213000 -7.665200 -34.413600
48
Fragment
O -20.454400 -10.337700 -37.650900
C -19.978500 -9.747600 -36.687400
H -19.894900 -8.060600 -37.573300
O -19.893800 -12.485000 -36.067700
N -19.799400 -11.716700 -35.111300
O -19.793500 -12.075500 -33.945100
N -19.718900 -8.372900 -36.781500
C -19.653100 -10.278400 -35.375500
C -19.271900 -7.590100 -35.800600
C -19.217100 -9.500700 -34.349400
H -19.126300 -6.663700 -35.954500
H -19.046100 -9.880200 -33.495400
C -19.024700 -8.132900 -34.569200
N -18.557800 -7.291600 -33.493800
O -18.452200 -7.800000 -32.377700
O -18.289000 -6.119000 -33.745300
H -24.935200 -2.281700 -41.516600
H -24.933000 -4.419500 -42.401600
C -24.688100 -3.020400 -40.973200
C -24.670300 -4.281500 -41.499000
H -24.393600 -6.819500 -42.172300
H -24.361000 -1.937100 -39.275700
C -24.340200 -2.819100 -39.627500
C -24.264000 -5.384400 -40.710200
C -24.156800 -6.678200 -41.263200
H -24.030000 -1.662100 -37.275200
C -23.968000 -3.861700 -38.795600
C -23.912500 -5.183100 -39.338100
C -23.719500 -2.403600 -36.768900
C -23.717400 -7.731200 -40.511000
H -23.640300 -8.593900 -40.900800
C -23.618900 -3.645800 -37.377300
C -23.478200 -6.296200 -38.560400
H -23.440200 -1.352700 -35.035000
C -23.380700 -7.537600 -39.165000
C -23.373000 -2.217800 -35.422200
C -23.190100 -4.758100 -36.595000
C -23.133400 -6.082000 -37.144300
H -23.077300 -8.277900 -38.653200
C -22.940200 -3.265500 -34.662000
C -22.855300 -4.565400 -35.221900
C -22.777500 -7.133300 -36.302000
H -22.756700 -8.016400 -36.650500
H -22.695200 -3.123300 -33.755300
C -22.469700 -5.670800 -34.430500
C -22.450700 -6.926000 -34.960700
H -22.222200 -5.537900 -33.522900
H -22.213000 -7.665200 -34.413600
