10
Fragment
H -24.765400 -9.001400 -21.830100
H -24.404800 -9.900500 -23.040600
H -24.246600 -11.150400 -20.367800
C -23.997300 -9.320500 -22.441800
H -23.880200 -11.824700 -21.565800
H -23.599000 -8.530000 -22.852800
C -23.503000 -11.328000 -20.969300
C -23.045300 -10.034300 -21.546600
H -22.827200 -11.797300 -20.480500
O -21.951000 -9.552400 -21.288400
24
Fragment
O -22.286300 -6.713300 -24.538900
N -21.234800 -7.325000 -24.663900
O -21.015300 -3.335200 -18.411100
O -20.774700 -7.725800 -25.724200
H -20.757600 -4.977700 -20.278800
N -20.570200 -6.694600 -22.431200
C -20.471600 -7.570600 -23.449100
N -20.120900 -5.409100 -19.831600
N -20.052700 -3.925700 -17.932200
O -19.824300 -10.160300 -24.769500
C -19.727900 -7.163900 -21.513600
C -19.646700 -5.135000 -18.588500
C -19.575400 -8.570000 -23.151800
C -19.494200 -6.541100 -20.226600
O -19.397800 -3.544700 -16.970700
N -19.169400 -9.779300 -23.808100
N -19.101200 -8.295900 -21.908600
C -18.750500 -6.134400 -18.291100
N -18.651800 -7.010400 -19.309000
H -18.464400 -8.727300 -21.461400
O -18.447400 -5.979200 -16.016000
O -18.206800 -10.369800 -23.329200
N -17.987300 -6.380000 -17.076300
O -16.935800 -6.991700 -17.201300
34
Fragment
H -24.765400 -9.001400 -21.830100
H -24.404800 -9.900500 -23.040600
H -24.246600 -11.150400 -20.367800
C -23.997300 -9.320500 -22.441800
H -23.880200 -11.824700 -21.565800
H -23.599000 -8.530000 -22.852800
C -23.503000 -11.328000 -20.969300
C -23.045300 -10.034300 -21.546600
H -22.827200 -11.797300 -20.480500
O -21.951000 -9.552400 -21.288400
O -22.286300 -6.713300 -24.538900
N -21.234800 -7.325000 -24.663900
O -21.015300 -3.335200 -18.411100
O -20.774700 -7.725800 -25.724200
H -20.757600 -4.977700 -20.278800
N -20.570200 -6.694600 -22.431200
C -20.471600 -7.570600 -23.449100
N -20.120900 -5.409100 -19.831600
N -20.052700 -3.925700 -17.932200
O -19.824300 -10.160300 -24.769500
C -19.727900 -7.163900 -21.513600
C -19.646700 -5.135000 -18.588500
C -19.575400 -8.570000 -23.151800
C -19.494200 -6.541100 -20.226600
O -19.397800 -3.544700 -16.970700
N -19.169400 -9.779300 -23.808100
N -19.101200 -8.295900 -21.908600
C -18.750500 -6.134400 -18.291100
N -18.651800 -7.010400 -19.309000
H -18.464400 -8.727300 -21.461400
O -18.447400 -5.979200 -16.016000
O -18.206800 -10.369800 -23.329200
N -17.987300 -6.380000 -17.076300
O -16.935800 -6.991700 -17.201300
