10
Fragment
H -24.765400 -9.001400 -21.830100
H -24.404800 -9.900500 -23.040600
H -24.246600 -11.150400 -20.367800
C -23.997300 -9.320500 -22.441800
H -23.880200 -11.824700 -21.565800
H -23.599000 -8.530000 -22.852800
C -23.503000 -11.328000 -20.969300
C -23.045300 -10.034300 -21.546600
H -22.827200 -11.797300 -20.480500
O -21.951000 -9.552400 -21.288400
10
Fragment
H -24.765400 -14.483400 -21.830100
H -24.404800 -15.382500 -23.040600
H -24.246600 -16.632400 -20.367800
C -23.997300 -14.802500 -22.441800
H -23.880200 -17.306700 -21.565800
H -23.599000 -14.012000 -22.852800
C -23.503000 -16.810000 -20.969300
C -23.045300 -15.516300 -21.546600
H -22.827200 -17.279300 -20.480500
O -21.951000 -15.034400 -21.288400
20
Fragment
H -24.765400 -9.001400 -21.830100
H -24.404800 -9.900500 -23.040600
H -24.246600 -11.150400 -20.367800
C -23.997300 -9.320500 -22.441800
H -23.880200 -11.824700 -21.565800
H -23.599000 -8.530000 -22.852800
C -23.503000 -11.328000 -20.969300
C -23.045300 -10.034300 -21.546600
H -22.827200 -11.797300 -20.480500
O -21.951000 -9.552400 -21.288400
H -24.765400 -14.483400 -21.830100
H -24.404800 -15.382500 -23.040600
H -24.246600 -16.632400 -20.367800
C -23.997300 -14.802500 -22.441800
H -23.880200 -17.306700 -21.565800
H -23.599000 -14.012000 -22.852800
C -23.503000 -16.810000 -20.969300
C -23.045300 -15.516300 -21.546600
H -22.827200 -17.279300 -20.480500
O -21.951000 -15.034400 -21.288400
