8
Fragment
O -7.925000 -25.370200 -27.069800
H -7.595600 -26.431100 -29.158400
C -7.165800 -26.336000 -27.384300
N -7.134700 -26.808900 -28.612300
H -6.680000 -27.437600 -28.870300
H -6.580400 -26.726100 -25.515700
N -6.397900 -26.908700 -26.469600
H -5.927800 -27.576500 -26.701700
25
Fragment
O -11.223800 -25.475700 -33.045400
O -10.570500 -20.999200 -34.623100
H -10.566800 -23.321100 -30.801800
H -10.263000 -26.833700 -31.460900
C -10.260700 -25.310100 -32.353400
H -10.208200 -21.268100 -31.486300
O -9.804800 -26.169500 -31.468700
O -9.684600 -23.211400 -33.407800
C -9.645700 -23.233000 -31.049000
C -9.594800 -20.887300 -33.943200
O -9.437100 -24.157600 -28.894600
C -9.389700 -24.076200 -32.323600
C -9.373900 -21.777900 -31.565200
H -9.213800 -19.142100 -34.444500
C -9.048100 -21.988100 -33.054700
H -8.900700 -24.516800 -28.272300
O -8.865400 -19.797800 -33.850600
C -8.760900 -23.697200 -29.909800
O -8.664100 -20.853500 -29.556900
H -8.430100 -24.313800 -32.331700
C -8.314700 -21.019700 -30.799600
H -8.049000 -22.049000 -33.143300
H -7.959500 -20.426400 -29.022800
O -7.562900 -23.667300 -29.957600
O -7.290000 -20.589000 -31.288400
33
Fragment
O -7.925000 -25.370200 -27.069800
H -7.595600 -26.431100 -29.158400
C -7.165800 -26.336000 -27.384300
N -7.134700 -26.808900 -28.612300
H -6.680000 -27.437600 -28.870300
H -6.580400 -26.726100 -25.515700
N -6.397900 -26.908700 -26.469600
H -5.927800 -27.576500 -26.701700
O -11.223800 -25.475700 -33.045400
O -10.570500 -20.999200 -34.623100
H -10.566800 -23.321100 -30.801800
H -10.263000 -26.833700 -31.460900
C -10.260700 -25.310100 -32.353400
H -10.208200 -21.268100 -31.486300
O -9.804800 -26.169500 -31.468700
O -9.684600 -23.211400 -33.407800
C -9.645700 -23.233000 -31.049000
C -9.594800 -20.887300 -33.943200
O -9.437100 -24.157600 -28.894600
C -9.389700 -24.076200 -32.323600
C -9.373900 -21.777900 -31.565200
H -9.213800 -19.142100 -34.444500
C -9.048100 -21.988100 -33.054700
H -8.900700 -24.516800 -28.272300
O -8.865400 -19.797800 -33.850600
C -8.760900 -23.697200 -29.909800
O -8.664100 -20.853500 -29.556900
H -8.430100 -24.313800 -32.331700
C -8.314700 -21.019700 -30.799600
H -8.049000 -22.049000 -33.143300
H -7.959500 -20.426400 -29.022800
O -7.562900 -23.667300 -29.957600
O -7.290000 -20.589000 -31.288400
