8
Fragment
O -7.925000 -25.370200 -27.069800
H -7.595600 -26.431100 -29.158400
C -7.165800 -26.336000 -27.384300
N -7.134700 -26.808900 -28.612300
H -6.680000 -27.437600 -28.870300
H -6.580400 -26.726100 -25.515700
N -6.397900 -26.908700 -26.469600
H -5.927800 -27.576500 -26.701700
25
Fragment
O -9.411200 -17.910800 -24.574000
O -8.758000 -22.387300 -26.151700
H -8.754200 -20.065400 -22.330500
H -8.450500 -16.552800 -22.989500
C -8.448200 -18.076400 -23.882100
H -8.395600 -22.118400 -23.014900
O -7.992300 -17.217000 -22.997300
O -7.872100 -20.175100 -24.936400
C -7.833200 -20.153500 -22.577700
C -7.782300 -22.499200 -25.471800
O -7.624600 -19.228900 -20.423200
C -7.577200 -19.310300 -23.852300
C -7.561400 -21.608600 -23.093900
H -7.401300 -24.244400 -25.973100
C -7.235600 -21.398400 -24.583300
H -7.088200 -18.869700 -19.800900
O -7.052900 -23.588700 -25.379300
C -6.948400 -19.689300 -21.438400
O -6.851600 -22.533000 -21.085500
H -6.617600 -19.072700 -23.860400
C -6.502200 -22.366800 -22.328300
H -6.236500 -21.337500 -24.671900
H -6.147000 -22.960100 -20.551500
O -5.750400 -19.719200 -21.486200
O -5.477500 -22.797500 -22.817100
33
Fragment
O -7.925000 -25.370200 -27.069800
H -7.595600 -26.431100 -29.158400
C -7.165800 -26.336000 -27.384300
N -7.134700 -26.808900 -28.612300
H -6.680000 -27.437600 -28.870300
H -6.580400 -26.726100 -25.515700
N -6.397900 -26.908700 -26.469600
H -5.927800 -27.576500 -26.701700
O -9.411200 -17.910800 -24.574000
O -8.758000 -22.387300 -26.151700
H -8.754200 -20.065400 -22.330500
H -8.450500 -16.552800 -22.989500
C -8.448200 -18.076400 -23.882100
H -8.395600 -22.118400 -23.014900
O -7.992300 -17.217000 -22.997300
O -7.872100 -20.175100 -24.936400
C -7.833200 -20.153500 -22.577700
C -7.782300 -22.499200 -25.471800
O -7.624600 -19.228900 -20.423200
C -7.577200 -19.310300 -23.852300
C -7.561400 -21.608600 -23.093900
H -7.401300 -24.244400 -25.973100
C -7.235600 -21.398400 -24.583300
H -7.088200 -18.869700 -19.800900
O -7.052900 -23.588700 -25.379300
C -6.948400 -19.689300 -21.438400
O -6.851600 -22.533000 -21.085500
H -6.617600 -19.072700 -23.860400
C -6.502200 -22.366800 -22.328300
H -6.236500 -21.337500 -24.671900
H -6.147000 -22.960100 -20.551500
O -5.750400 -19.719200 -21.486200
O -5.477500 -22.797500 -22.817100
