27
Fragment
H -16.315100 -12.988500 -24.202000
H -15.438200 -12.082900 -25.187900
C -15.425100 -12.860000 -24.591100
H -15.173300 -13.658700 -25.101000
H -14.729400 -11.875300 -22.914600
H -14.647500 -16.366000 -22.372500
H -14.619400 -18.353200 -21.109800
C -14.454800 -17.517300 -20.689200
C -14.453700 -16.355000 -21.442200
C -14.426800 -12.631700 -23.494600
O -14.415100 -13.884500 -22.713100
H -14.266800 -18.282000 -18.848000
C -14.219300 -17.469200 -19.336800
C -14.153300 -15.160100 -20.770500
C -14.121700 -13.853800 -21.435700
N -13.925500 -16.346600 -18.663900
C -13.907700 -15.239900 -19.419500
N -13.805200 -12.742800 -20.813200
N -13.587400 -14.022900 -18.795700
C -13.551200 -12.857800 -19.494400
N -13.277300 -13.793100 -17.496300
N -13.213600 -11.897000 -18.640700
N -13.049100 -12.507200 -17.431700
C -13.023400 -12.371700 -23.980200
H -13.000600 -11.525700 -24.474100
H -12.741600 -13.102100 -24.569800
H -12.416700 -12.318700 -23.212600
27
Fragment
H -17.713700 -21.726500 -24.202000
H -16.836900 -20.820800 -25.187900
C -16.823800 -21.598000 -24.591100
H -16.571900 -22.396700 -25.101000
H -16.128000 -20.613300 -22.914600
H -16.046200 -25.103900 -22.372500
H -16.018100 -27.091100 -21.109800
C -15.853400 -26.255300 -20.689200
C -15.852300 -25.093000 -21.442200
C -15.825500 -21.369600 -23.494600
O -15.813800 -22.622500 -22.713100
H -15.665500 -27.019900 -18.848000
C -15.617900 -26.207200 -19.336800
C -15.551900 -23.898100 -20.770500
C -15.520400 -22.591800 -21.435700
N -15.324200 -25.084600 -18.663900
C -15.306400 -23.977800 -19.419500
N -15.203900 -21.480800 -20.813200
N -14.986100 -22.760900 -18.795700
C -14.949800 -21.595800 -19.494400
N -14.675900 -22.531000 -17.496300
N -14.612200 -20.635000 -18.640700
N -14.447700 -21.245200 -17.431700
C -14.422000 -21.109700 -23.980200
H -14.399300 -20.263700 -24.474100
H -14.140200 -21.840000 -24.569800
H -13.815300 -21.056700 -23.212600
54
Fragment
H -16.315100 -12.988500 -24.202000
H -15.438200 -12.082900 -25.187900
C -15.425100 -12.860000 -24.591100
H -15.173300 -13.658700 -25.101000
H -14.729400 -11.875300 -22.914600
H -14.647500 -16.366000 -22.372500
H -14.619400 -18.353200 -21.109800
C -14.454800 -17.517300 -20.689200
C -14.453700 -16.355000 -21.442200
C -14.426800 -12.631700 -23.494600
O -14.415100 -13.884500 -22.713100
H -14.266800 -18.282000 -18.848000
C -14.219300 -17.469200 -19.336800
C -14.153300 -15.160100 -20.770500
C -14.121700 -13.853800 -21.435700
N -13.925500 -16.346600 -18.663900
C -13.907700 -15.239900 -19.419500
N -13.805200 -12.742800 -20.813200
N -13.587400 -14.022900 -18.795700
C -13.551200 -12.857800 -19.494400
N -13.277300 -13.793100 -17.496300
N -13.213600 -11.897000 -18.640700
N -13.049100 -12.507200 -17.431700
C -13.023400 -12.371700 -23.980200
H -13.000600 -11.525700 -24.474100
H -12.741600 -13.102100 -24.569800
H -12.416700 -12.318700 -23.212600
H -17.713700 -21.726500 -24.202000
H -16.836900 -20.820800 -25.187900
C -16.823800 -21.598000 -24.591100
H -16.571900 -22.396700 -25.101000
H -16.128000 -20.613300 -22.914600
H -16.046200 -25.103900 -22.372500
H -16.018100 -27.091100 -21.109800
C -15.853400 -26.255300 -20.689200
C -15.852300 -25.093000 -21.442200
C -15.825500 -21.369600 -23.494600
O -15.813800 -22.622500 -22.713100
H -15.665500 -27.019900 -18.848000
C -15.617900 -26.207200 -19.336800
C -15.551900 -23.898100 -20.770500
C -15.520400 -22.591800 -21.435700
N -15.324200 -25.084600 -18.663900
C -15.306400 -23.977800 -19.419500
N -15.203900 -21.480800 -20.813200
N -14.986100 -22.760900 -18.795700
C -14.949800 -21.595800 -19.494400
N -14.675900 -22.531000 -17.496300
N -14.612200 -20.635000 -18.640700
N -14.447700 -21.245200 -17.431700
C -14.422000 -21.109700 -23.980200
H -14.399300 -20.263700 -24.474100
H -14.140200 -21.840000 -24.569800
H -13.815300 -21.056700 -23.212600
