27
Fragment
H -16.315100 -12.988500 -24.202000
H -15.438200 -12.082900 -25.187900
C -15.425100 -12.860000 -24.591100
H -15.173300 -13.658700 -25.101000
H -14.729400 -11.875300 -22.914600
H -14.647500 -16.366000 -22.372500
H -14.619400 -18.353200 -21.109800
C -14.454800 -17.517300 -20.689200
C -14.453700 -16.355000 -21.442200
C -14.426800 -12.631700 -23.494600
O -14.415100 -13.884500 -22.713100
H -14.266800 -18.282000 -18.848000
C -14.219300 -17.469200 -19.336800
C -14.153300 -15.160100 -20.770500
C -14.121700 -13.853800 -21.435700
N -13.925500 -16.346600 -18.663900
C -13.907700 -15.239900 -19.419500
N -13.805200 -12.742800 -20.813200
N -13.587400 -14.022900 -18.795700
C -13.551200 -12.857800 -19.494400
N -13.277300 -13.793100 -17.496300
N -13.213600 -11.897000 -18.640700
N -13.049100 -12.507200 -17.431700
C -13.023400 -12.371700 -23.980200
H -13.000600 -11.525700 -24.474100
H -12.741600 -13.102100 -24.569800
H -12.416700 -12.318700 -23.212600
27
Fragment
H -13.655300 -15.339400 -28.452200
H -13.330400 -14.556000 -27.095000
H -13.071300 -16.132300 -27.190700
C -13.048600 -15.286300 -27.684600
N -13.022900 -15.150800 -34.233100
N -12.858400 -15.761000 -33.024100
N -12.794700 -13.865000 -34.168500
C -12.520800 -14.800200 -32.170400
N -12.484500 -13.635100 -32.869100
N -12.266700 -14.915200 -30.851600
C -12.164200 -12.418200 -32.245300
N -12.146400 -11.311500 -33.000900
C -11.950300 -13.804200 -30.229100
C -11.918700 -12.497900 -30.894300
C -11.852700 -10.188800 -32.328000
H -11.805200 -9.376100 -32.816800
O -11.656800 -13.773600 -28.951700
C -11.645100 -15.026400 -28.170200
C -11.618300 -11.303000 -30.222600
C -11.617200 -10.140800 -30.975600
H -11.452500 -9.304900 -30.554900
H -11.424400 -11.292100 -29.292300
H -11.342600 -15.782700 -28.750200
H -10.898700 -13.999300 -26.563800
C -10.646900 -14.798000 -27.073600
H -10.633700 -15.575200 -26.476900
H -9.756900 -14.669600 -27.462800
54
Fragment
H -16.315100 -12.988500 -24.202000
H -15.438200 -12.082900 -25.187900
C -15.425100 -12.860000 -24.591100
H -15.173300 -13.658700 -25.101000
H -14.729400 -11.875300 -22.914600
H -14.647500 -16.366000 -22.372500
H -14.619400 -18.353200 -21.109800
C -14.454800 -17.517300 -20.689200
C -14.453700 -16.355000 -21.442200
C -14.426800 -12.631700 -23.494600
O -14.415100 -13.884500 -22.713100
H -14.266800 -18.282000 -18.848000
C -14.219300 -17.469200 -19.336800
C -14.153300 -15.160100 -20.770500
C -14.121700 -13.853800 -21.435700
N -13.925500 -16.346600 -18.663900
C -13.907700 -15.239900 -19.419500
N -13.805200 -12.742800 -20.813200
N -13.587400 -14.022900 -18.795700
C -13.551200 -12.857800 -19.494400
N -13.277300 -13.793100 -17.496300
N -13.213600 -11.897000 -18.640700
N -13.049100 -12.507200 -17.431700
C -13.023400 -12.371700 -23.980200
H -13.000600 -11.525700 -24.474100
H -12.741600 -13.102100 -24.569800
H -12.416700 -12.318700 -23.212600
H -13.655300 -15.339400 -28.452200
H -13.330400 -14.556000 -27.095000
H -13.071300 -16.132300 -27.190700
C -13.048600 -15.286300 -27.684600
N -13.022900 -15.150800 -34.233100
N -12.858400 -15.761000 -33.024100
N -12.794700 -13.865000 -34.168500
C -12.520800 -14.800200 -32.170400
N -12.484500 -13.635100 -32.869100
N -12.266700 -14.915200 -30.851600
C -12.164200 -12.418200 -32.245300
N -12.146400 -11.311500 -33.000900
C -11.950300 -13.804200 -30.229100
C -11.918700 -12.497900 -30.894300
C -11.852700 -10.188800 -32.328000
H -11.805200 -9.376100 -32.816800
O -11.656800 -13.773600 -28.951700
C -11.645100 -15.026400 -28.170200
C -11.618300 -11.303000 -30.222600
C -11.617200 -10.140800 -30.975600
H -11.452500 -9.304900 -30.554900
H -11.424400 -11.292100 -29.292300
H -11.342600 -15.782700 -28.750200
H -10.898700 -13.999300 -26.563800
C -10.646900 -14.798000 -27.073600
H -10.633700 -15.575200 -26.476900
H -9.756900 -14.669600 -27.462800
