27
Fragment
H -16.315100 -12.988500 -24.202000
H -15.438200 -12.082900 -25.187900
C -15.425100 -12.860000 -24.591100
H -15.173300 -13.658700 -25.101000
H -14.729400 -11.875300 -22.914600
H -14.647500 -16.366000 -22.372500
H -14.619400 -18.353200 -21.109800
C -14.454800 -17.517300 -20.689200
C -14.453700 -16.355000 -21.442200
C -14.426800 -12.631700 -23.494600
O -14.415100 -13.884500 -22.713100
H -14.266800 -18.282000 -18.848000
C -14.219300 -17.469200 -19.336800
C -14.153300 -15.160100 -20.770500
C -14.121700 -13.853800 -21.435700
N -13.925500 -16.346600 -18.663900
C -13.907700 -15.239900 -19.419500
N -13.805200 -12.742800 -20.813200
N -13.587400 -14.022900 -18.795700
C -13.551200 -12.857800 -19.494400
N -13.277300 -13.793100 -17.496300
N -13.213600 -11.897000 -18.640700
N -13.049100 -12.507200 -17.431700
C -13.023400 -12.371700 -23.980200
H -13.000600 -11.525700 -24.474100
H -12.741600 -13.102100 -24.569800
H -12.416700 -12.318700 -23.212600
5
Fragment
Cl -19.374100 -17.522500 -24.386700
H -18.143400 -17.719100 -22.460600
C -17.995200 -17.227300 -23.318900
Cl -17.839500 -15.511000 -22.966800
Cl -16.520300 -17.827800 -24.065200
32
Fragment
H -16.315100 -12.988500 -24.202000
H -15.438200 -12.082900 -25.187900
C -15.425100 -12.860000 -24.591100
H -15.173300 -13.658700 -25.101000
H -14.729400 -11.875300 -22.914600
H -14.647500 -16.366000 -22.372500
H -14.619400 -18.353200 -21.109800
C -14.454800 -17.517300 -20.689200
C -14.453700 -16.355000 -21.442200
C -14.426800 -12.631700 -23.494600
O -14.415100 -13.884500 -22.713100
H -14.266800 -18.282000 -18.848000
C -14.219300 -17.469200 -19.336800
C -14.153300 -15.160100 -20.770500
C -14.121700 -13.853800 -21.435700
N -13.925500 -16.346600 -18.663900
C -13.907700 -15.239900 -19.419500
N -13.805200 -12.742800 -20.813200
N -13.587400 -14.022900 -18.795700
C -13.551200 -12.857800 -19.494400
N -13.277300 -13.793100 -17.496300
N -13.213600 -11.897000 -18.640700
N -13.049100 -12.507200 -17.431700
C -13.023400 -12.371700 -23.980200
H -13.000600 -11.525700 -24.474100
H -12.741600 -13.102100 -24.569800
H -12.416700 -12.318700 -23.212600
Cl -19.374100 -17.522500 -24.386700
H -18.143400 -17.719100 -22.460600
C -17.995200 -17.227300 -23.318900
Cl -17.839500 -15.511000 -22.966800
Cl -16.520300 -17.827800 -24.065200
