40
Fragment
H -7.641200 -8.322300 -15.273100
H -7.524100 -10.038900 -16.746200
C -6.896000 -8.878400 -15.266500
C -6.824700 -9.887700 -16.153200
H -6.632500 -6.993500 -13.473400
C -5.899100 -7.564000 -13.444900
C -5.854500 -8.637800 -14.313000
C -5.684800 -10.712700 -16.176200
H -5.656100 -5.626800 -11.670500
H -5.622200 -11.385300 -16.815200
C -4.931100 -6.209200 -11.638700
C -4.882400 -7.308800 -12.529800
C -4.725200 -9.525500 -14.291100
C -4.679300 -10.546100 -15.285200
N -4.629000 -12.856600 -12.766500
H -3.987900 -5.248800 -10.183200
C -3.948900 -5.990400 -10.744300
H -3.941300 -11.111600 -15.323500
C -3.767400 -8.208400 -12.462900
C -3.701400 -9.311300 -13.343000
C -3.680800 -12.242300 -12.914500
C -2.867700 -6.877800 -10.656600
C -2.779100 -7.949700 -11.462200
C -2.511400 -10.188200 -13.267400
C -2.458100 -11.507200 -13.109500
H -2.199100 -6.722200 -10.029700
H -2.061500 -8.534200 -11.368000
H -2.002600 -13.949100 -12.203100
H -1.689700 -9.757300 -13.338600
C -1.218000 -12.314900 -13.076700
C -1.205900 -13.585500 -12.515500
H -0.061700 -15.169200 -12.027800
C -0.046400 -14.321400 -12.409200
C -0.022900 -11.822500 -13.585200
H -0.008400 -10.988300 -13.995100
C 1.135100 -13.787000 -12.872800
C 1.141900 -12.553400 -13.488800
H 1.933400 -12.214700 -13.839500
O 2.261200 -14.523300 -12.697400
H 3.001100 -14.210800 -12.976900
40
Fragment
H -6.900000 -18.464300 -15.273100
H -6.782900 -20.180800 -16.746200
C -6.154800 -19.020300 -15.266500
C -6.083500 -20.029600 -16.153200
H -5.891300 -17.135500 -13.473400
C -5.157900 -17.706000 -13.444900
C -5.113300 -18.779800 -14.313000
C -4.943600 -20.854700 -16.176200
H -4.914800 -15.768800 -11.670500
H -4.881000 -21.527300 -16.815200
C -4.189900 -16.351100 -11.638700
C -4.141200 -17.450800 -12.529800
C -3.984000 -19.667500 -14.291100
C -3.938100 -20.688100 -15.285200
N -3.887700 -22.998600 -12.766500
H -3.246700 -15.390800 -10.183200
C -3.207700 -16.132400 -10.744300
H -3.200100 -21.253500 -15.323500
C -3.026200 -18.350300 -12.462900
C -2.960200 -19.453200 -13.343000
C -2.939600 -22.384300 -12.914500
C -2.126500 -17.019800 -10.656600
C -2.037800 -18.091700 -11.462200
C -1.770100 -20.330100 -13.267400
C -1.716900 -21.649200 -13.109500
H -1.457800 -16.864100 -10.029700
H -1.320200 -18.676100 -11.368000
H -1.261400 -24.091000 -12.203100
H -0.948500 -19.899300 -13.338600
C -0.476800 -22.456900 -13.076700
C -0.464700 -23.727400 -12.515500
H 0.679500 -25.311100 -12.027800
C 0.694800 -24.463300 -12.409200
C 0.718300 -21.964400 -13.585200
H 0.732900 -21.130300 -13.995100
C 1.876300 -23.929000 -12.872800
C 1.883100 -22.695300 -13.488800
H 2.674600 -22.356600 -13.839500
O 3.002400 -24.665300 -12.697400
H 3.742400 -24.352700 -12.976900
80
Fragment
H -7.641200 -8.322300 -15.273100
H -7.524100 -10.038900 -16.746200
C -6.896000 -8.878400 -15.266500
C -6.824700 -9.887700 -16.153200
H -6.632500 -6.993500 -13.473400
C -5.899100 -7.564000 -13.444900
C -5.854500 -8.637800 -14.313000
C -5.684800 -10.712700 -16.176200
H -5.656100 -5.626800 -11.670500
H -5.622200 -11.385300 -16.815200
C -4.931100 -6.209200 -11.638700
C -4.882400 -7.308800 -12.529800
C -4.725200 -9.525500 -14.291100
C -4.679300 -10.546100 -15.285200
N -4.629000 -12.856600 -12.766500
H -3.987900 -5.248800 -10.183200
C -3.948900 -5.990400 -10.744300
H -3.941300 -11.111600 -15.323500
C -3.767400 -8.208400 -12.462900
C -3.701400 -9.311300 -13.343000
C -3.680800 -12.242300 -12.914500
C -2.867700 -6.877800 -10.656600
C -2.779100 -7.949700 -11.462200
C -2.511400 -10.188200 -13.267400
C -2.458100 -11.507200 -13.109500
H -2.199100 -6.722200 -10.029700
H -2.061500 -8.534200 -11.368000
H -2.002600 -13.949100 -12.203100
H -1.689700 -9.757300 -13.338600
C -1.218000 -12.314900 -13.076700
C -1.205900 -13.585500 -12.515500
H -0.061700 -15.169200 -12.027800
C -0.046400 -14.321400 -12.409200
C -0.022900 -11.822500 -13.585200
H -0.008400 -10.988300 -13.995100
C 1.135100 -13.787000 -12.872800
C 1.141900 -12.553400 -13.488800
H 1.933400 -12.214700 -13.839500
O 2.261200 -14.523300 -12.697400
H 3.001100 -14.210800 -12.976900
H -6.900000 -18.464300 -15.273100
H -6.782900 -20.180800 -16.746200
C -6.154800 -19.020300 -15.266500
C -6.083500 -20.029600 -16.153200
H -5.891300 -17.135500 -13.473400
C -5.157900 -17.706000 -13.444900
C -5.113300 -18.779800 -14.313000
C -4.943600 -20.854700 -16.176200
H -4.914800 -15.768800 -11.670500
H -4.881000 -21.527300 -16.815200
C -4.189900 -16.351100 -11.638700
C -4.141200 -17.450800 -12.529800
C -3.984000 -19.667500 -14.291100
C -3.938100 -20.688100 -15.285200
N -3.887700 -22.998600 -12.766500
H -3.246700 -15.390800 -10.183200
C -3.207700 -16.132400 -10.744300
H -3.200100 -21.253500 -15.323500
C -3.026200 -18.350300 -12.462900
C -2.960200 -19.453200 -13.343000
C -2.939600 -22.384300 -12.914500
C -2.126500 -17.019800 -10.656600
C -2.037800 -18.091700 -11.462200
C -1.770100 -20.330100 -13.267400
C -1.716900 -21.649200 -13.109500
H -1.457800 -16.864100 -10.029700
H -1.320200 -18.676100 -11.368000
H -1.261400 -24.091000 -12.203100
H -0.948500 -19.899300 -13.338600
C -0.476800 -22.456900 -13.076700
C -0.464700 -23.727400 -12.515500
H 0.679500 -25.311100 -12.027800
C 0.694800 -24.463300 -12.409200
C 0.718300 -21.964400 -13.585200
H 0.732900 -21.130300 -13.995100
C 1.876300 -23.929000 -12.872800
C 1.883100 -22.695300 -13.488800
H 2.674600 -22.356600 -13.839500
O 3.002400 -24.665300 -12.697400
H 3.742400 -24.352700 -12.976900
