40
Fragment
H -7.641200 -8.322300 -15.273100
H -7.524100 -10.038900 -16.746200
C -6.896000 -8.878400 -15.266500
C -6.824700 -9.887700 -16.153200
H -6.632500 -6.993500 -13.473400
C -5.899100 -7.564000 -13.444900
C -5.854500 -8.637800 -14.313000
C -5.684800 -10.712700 -16.176200
H -5.656100 -5.626800 -11.670500
H -5.622200 -11.385300 -16.815200
C -4.931100 -6.209200 -11.638700
C -4.882400 -7.308800 -12.529800
C -4.725200 -9.525500 -14.291100
C -4.679300 -10.546100 -15.285200
N -4.629000 -12.856600 -12.766500
H -3.987900 -5.248800 -10.183200
C -3.948900 -5.990400 -10.744300
H -3.941300 -11.111600 -15.323500
C -3.767400 -8.208400 -12.462900
C -3.701400 -9.311300 -13.343000
C -3.680800 -12.242300 -12.914500
C -2.867700 -6.877800 -10.656600
C -2.779100 -7.949700 -11.462200
C -2.511400 -10.188200 -13.267400
C -2.458100 -11.507200 -13.109500
H -2.199100 -6.722200 -10.029700
H -2.061500 -8.534200 -11.368000
H -2.002600 -13.949100 -12.203100
H -1.689700 -9.757300 -13.338600
C -1.218000 -12.314900 -13.076700
C -1.205900 -13.585500 -12.515500
H -0.061700 -15.169200 -12.027800
C -0.046400 -14.321400 -12.409200
C -0.022900 -11.822500 -13.585200
H -0.008400 -10.988300 -13.995100
C 1.135100 -13.787000 -12.872800
C 1.141900 -12.553400 -13.488800
H 1.933400 -12.214700 -13.839500
O 2.261200 -14.523300 -12.697400
H 3.001100 -14.210800 -12.976900
40
Fragment
H -17.606500 1.819600 -15.273100
H -17.489300 0.103100 -16.746200
C -16.861200 1.263600 -15.266500
C -16.789900 0.254300 -16.153200
H -16.597700 3.148400 -13.473400
C -15.864400 2.577900 -13.444900
C -15.819700 1.504100 -14.313000
C -15.650000 -0.570800 -16.176200
H -15.621300 4.515100 -11.670500
H -15.587400 -1.243400 -16.815200
C -14.896400 3.932800 -11.638700
C -14.847600 2.833100 -12.529800
C -14.690400 0.616400 -14.291100
C -14.644600 -0.404200 -15.285200
N -14.594200 -2.714700 -12.766500
H -13.953100 4.893100 -10.183200
C -13.914100 4.151500 -10.744300
H -13.906500 -0.969600 -15.323500
C -13.732600 1.933600 -12.462900
C -13.666600 0.830700 -13.343000
C -13.646000 -2.100400 -12.914500
C -12.833000 3.264100 -10.656600
C -12.744300 2.192200 -11.462200
C -12.476600 -0.046200 -13.267400
C -12.423300 -1.365300 -13.109500
H -12.164300 3.419800 -10.029700
H -12.026700 1.607800 -11.368000
H -11.967800 -3.807100 -12.203100
H -11.654900 0.384600 -13.338600
C -11.183200 -2.173000 -13.076700
C -11.171200 -3.443500 -12.515500
H -10.026900 -5.027200 -12.027800
C -10.011600 -4.179400 -12.409200
C -9.988200 -1.680500 -13.585200
H -9.973600 -0.846400 -13.995100
C -8.830200 -3.645100 -12.872800
C -8.823300 -2.411400 -13.488800
H -8.031900 -2.072700 -13.839500
O -7.704000 -4.381400 -12.697400
H -6.964100 -4.068800 -12.976900
80
Fragment
H -7.641200 -8.322300 -15.273100
H -7.524100 -10.038900 -16.746200
C -6.896000 -8.878400 -15.266500
C -6.824700 -9.887700 -16.153200
H -6.632500 -6.993500 -13.473400
C -5.899100 -7.564000 -13.444900
C -5.854500 -8.637800 -14.313000
C -5.684800 -10.712700 -16.176200
H -5.656100 -5.626800 -11.670500
H -5.622200 -11.385300 -16.815200
C -4.931100 -6.209200 -11.638700
C -4.882400 -7.308800 -12.529800
C -4.725200 -9.525500 -14.291100
C -4.679300 -10.546100 -15.285200
N -4.629000 -12.856600 -12.766500
H -3.987900 -5.248800 -10.183200
C -3.948900 -5.990400 -10.744300
H -3.941300 -11.111600 -15.323500
C -3.767400 -8.208400 -12.462900
C -3.701400 -9.311300 -13.343000
C -3.680800 -12.242300 -12.914500
C -2.867700 -6.877800 -10.656600
C -2.779100 -7.949700 -11.462200
C -2.511400 -10.188200 -13.267400
C -2.458100 -11.507200 -13.109500
H -2.199100 -6.722200 -10.029700
H -2.061500 -8.534200 -11.368000
H -2.002600 -13.949100 -12.203100
H -1.689700 -9.757300 -13.338600
C -1.218000 -12.314900 -13.076700
C -1.205900 -13.585500 -12.515500
H -0.061700 -15.169200 -12.027800
C -0.046400 -14.321400 -12.409200
C -0.022900 -11.822500 -13.585200
H -0.008400 -10.988300 -13.995100
C 1.135100 -13.787000 -12.872800
C 1.141900 -12.553400 -13.488800
H 1.933400 -12.214700 -13.839500
O 2.261200 -14.523300 -12.697400
H 3.001100 -14.210800 -12.976900
H -17.606500 1.819600 -15.273100
H -17.489300 0.103100 -16.746200
C -16.861200 1.263600 -15.266500
C -16.789900 0.254300 -16.153200
H -16.597700 3.148400 -13.473400
C -15.864400 2.577900 -13.444900
C -15.819700 1.504100 -14.313000
C -15.650000 -0.570800 -16.176200
H -15.621300 4.515100 -11.670500
H -15.587400 -1.243400 -16.815200
C -14.896400 3.932800 -11.638700
C -14.847600 2.833100 -12.529800
C -14.690400 0.616400 -14.291100
C -14.644600 -0.404200 -15.285200
N -14.594200 -2.714700 -12.766500
H -13.953100 4.893100 -10.183200
C -13.914100 4.151500 -10.744300
H -13.906500 -0.969600 -15.323500
C -13.732600 1.933600 -12.462900
C -13.666600 0.830700 -13.343000
C -13.646000 -2.100400 -12.914500
C -12.833000 3.264100 -10.656600
C -12.744300 2.192200 -11.462200
C -12.476600 -0.046200 -13.267400
C -12.423300 -1.365300 -13.109500
H -12.164300 3.419800 -10.029700
H -12.026700 1.607800 -11.368000
H -11.967800 -3.807100 -12.203100
H -11.654900 0.384600 -13.338600
C -11.183200 -2.173000 -13.076700
C -11.171200 -3.443500 -12.515500
H -10.026900 -5.027200 -12.027800
C -10.011600 -4.179400 -12.409200
C -9.988200 -1.680500 -13.585200
H -9.973600 -0.846400 -13.995100
C -8.830200 -3.645100 -12.872800
C -8.823300 -2.411400 -13.488800
H -8.031900 -2.072700 -13.839500
O -7.704000 -4.381400 -12.697400
H -6.964100 -4.068800 -12.976900
