40
Fragment
H -7.641200 -8.322300 -15.273100
H -7.524100 -10.038900 -16.746200
C -6.896000 -8.878400 -15.266500
C -6.824700 -9.887700 -16.153200
H -6.632500 -6.993500 -13.473400
C -5.899100 -7.564000 -13.444900
C -5.854500 -8.637800 -14.313000
C -5.684800 -10.712700 -16.176200
H -5.656100 -5.626800 -11.670500
H -5.622200 -11.385300 -16.815200
C -4.931100 -6.209200 -11.638700
C -4.882400 -7.308800 -12.529800
C -4.725200 -9.525500 -14.291100
C -4.679300 -10.546100 -15.285200
N -4.629000 -12.856600 -12.766500
H -3.987900 -5.248800 -10.183200
C -3.948900 -5.990400 -10.744300
H -3.941300 -11.111600 -15.323500
C -3.767400 -8.208400 -12.462900
C -3.701400 -9.311300 -13.343000
C -3.680800 -12.242300 -12.914500
C -2.867700 -6.877800 -10.656600
C -2.779100 -7.949700 -11.462200
C -2.511400 -10.188200 -13.267400
C -2.458100 -11.507200 -13.109500
H -2.199100 -6.722200 -10.029700
H -2.061500 -8.534200 -11.368000
H -2.002600 -13.949100 -12.203100
H -1.689700 -9.757300 -13.338600
C -1.218000 -12.314900 -13.076700
C -1.205900 -13.585500 -12.515500
H -0.061700 -15.169200 -12.027800
C -0.046400 -14.321400 -12.409200
C -0.022900 -11.822500 -13.585200
H -0.008400 -10.988300 -13.995100
C 1.135100 -13.787000 -12.872800
C 1.141900 -12.553400 -13.488800
H 1.933400 -12.214700 -13.839500
O 2.261200 -14.523300 -12.697400
H 3.001100 -14.210800 -12.976900
40
Fragment
H -13.775500 -1.764300 -8.943600
O -13.035600 -1.451800 -9.223000
H -12.707700 -3.760400 -8.081000
C -11.916300 -3.421700 -8.431700
C -11.909400 -2.188000 -9.047700
H -10.766000 -4.986700 -7.925400
C -10.751400 -4.152600 -8.335300
C -10.727900 -1.653700 -9.511300
H -10.712700 -0.805900 -9.892700
C -9.568400 -2.389600 -9.405000
C -9.556300 -3.660200 -8.843800
H -9.084600 -6.217700 -8.581900
H -8.771700 -2.026000 -9.717400
H -8.712900 -7.440900 -10.552500
H -8.575300 -9.252900 -11.890800
C -8.316200 -4.467800 -8.810900
C -8.263000 -5.786900 -8.653100
C -7.995300 -8.025400 -10.458300
C -7.906600 -9.097200 -11.263800
C -7.093600 -3.732700 -9.006000
C -7.072900 -6.663800 -8.577500
C -7.006900 -7.766700 -9.457600
H -6.833100 -4.863500 -6.597000
C -6.825500 -9.984600 -11.176200
H -6.786400 -10.726300 -11.737300
N -6.145400 -3.118500 -9.154000
C -6.095000 -5.429000 -6.635300
C -6.049100 -6.449600 -7.629400
C -5.892000 -8.666200 -9.390700
C -5.843200 -9.765900 -10.281800
H -5.152100 -4.589800 -5.105300
H -5.118300 -10.348200 -10.250000
C -5.089500 -5.262300 -5.744300
C -4.919800 -7.337200 -7.607500
C -4.875200 -8.411000 -8.475600
H -4.141900 -8.981500 -8.447100
C -3.949600 -6.087400 -5.767300
C -3.878300 -7.096700 -6.654000
H -3.250200 -5.936200 -5.174300
H -3.133100 -7.652700 -6.647400
80
Fragment
H -7.641200 -8.322300 -15.273100
H -7.524100 -10.038900 -16.746200
C -6.896000 -8.878400 -15.266500
C -6.824700 -9.887700 -16.153200
H -6.632500 -6.993500 -13.473400
C -5.899100 -7.564000 -13.444900
C -5.854500 -8.637800 -14.313000
C -5.684800 -10.712700 -16.176200
H -5.656100 -5.626800 -11.670500
H -5.622200 -11.385300 -16.815200
C -4.931100 -6.209200 -11.638700
C -4.882400 -7.308800 -12.529800
C -4.725200 -9.525500 -14.291100
C -4.679300 -10.546100 -15.285200
N -4.629000 -12.856600 -12.766500
H -3.987900 -5.248800 -10.183200
C -3.948900 -5.990400 -10.744300
H -3.941300 -11.111600 -15.323500
C -3.767400 -8.208400 -12.462900
C -3.701400 -9.311300 -13.343000
C -3.680800 -12.242300 -12.914500
C -2.867700 -6.877800 -10.656600
C -2.779100 -7.949700 -11.462200
C -2.511400 -10.188200 -13.267400
C -2.458100 -11.507200 -13.109500
H -2.199100 -6.722200 -10.029700
H -2.061500 -8.534200 -11.368000
H -2.002600 -13.949100 -12.203100
H -1.689700 -9.757300 -13.338600
C -1.218000 -12.314900 -13.076700
C -1.205900 -13.585500 -12.515500
H -0.061700 -15.169200 -12.027800
C -0.046400 -14.321400 -12.409200
C -0.022900 -11.822500 -13.585200
H -0.008400 -10.988300 -13.995100
C 1.135100 -13.787000 -12.872800
C 1.141900 -12.553400 -13.488800
H 1.933400 -12.214700 -13.839500
O 2.261200 -14.523300 -12.697400
H 3.001100 -14.210800 -12.976900
H -13.775500 -1.764300 -8.943600
O -13.035600 -1.451800 -9.223000
H -12.707700 -3.760400 -8.081000
C -11.916300 -3.421700 -8.431700
C -11.909400 -2.188000 -9.047700
H -10.766000 -4.986700 -7.925400
C -10.751400 -4.152600 -8.335300
C -10.727900 -1.653700 -9.511300
H -10.712700 -0.805900 -9.892700
C -9.568400 -2.389600 -9.405000
C -9.556300 -3.660200 -8.843800
H -9.084600 -6.217700 -8.581900
H -8.771700 -2.026000 -9.717400
H -8.712900 -7.440900 -10.552500
H -8.575300 -9.252900 -11.890800
C -8.316200 -4.467800 -8.810900
C -8.263000 -5.786900 -8.653100
C -7.995300 -8.025400 -10.458300
C -7.906600 -9.097200 -11.263800
C -7.093600 -3.732700 -9.006000
C -7.072900 -6.663800 -8.577500
C -7.006900 -7.766700 -9.457600
H -6.833100 -4.863500 -6.597000
C -6.825500 -9.984600 -11.176200
H -6.786400 -10.726300 -11.737300
N -6.145400 -3.118500 -9.154000
C -6.095000 -5.429000 -6.635300
C -6.049100 -6.449600 -7.629400
C -5.892000 -8.666200 -9.390700
C -5.843200 -9.765900 -10.281800
H -5.152100 -4.589800 -5.105300
H -5.118300 -10.348200 -10.250000
C -5.089500 -5.262300 -5.744300
C -4.919800 -7.337200 -7.607500
C -4.875200 -8.411000 -8.475600
H -4.141900 -8.981500 -8.447100
C -3.949600 -6.087400 -5.767300
C -3.878300 -7.096700 -6.654000
H -3.250200 -5.936200 -5.174300
H -3.133100 -7.652700 -6.647400
