32
Fragment
H -9.907900 -19.108800 -25.629000
H -9.700000 -13.955500 -29.613200
N -9.688500 -16.592500 -28.706800
N -9.420100 -17.523500 -27.842500
C -9.267800 -14.112000 -28.781800
C -9.197500 -15.389000 -28.222400
C -8.929600 -19.147100 -25.661100
N -8.749800 -16.966500 -26.784600
H -8.708400 -12.211900 -28.421800
C -8.683600 -13.095900 -28.074200
H -8.646900 -19.610700 -26.477200
H -8.595600 -19.631100 -24.877300
C -8.583600 -15.614700 -26.992300
C -8.378900 -17.764000 -25.660800
C -8.048200 -13.335500 -26.842100
C -7.989600 -14.580000 -26.261200
H -7.953600 -18.363300 -23.237800
N -7.643200 -17.169100 -24.826700
H -7.641200 -12.604800 -26.391700
H -7.573800 -14.727600 -25.419800
C -7.198800 -17.859800 -23.633400
H -6.756800 -17.894000 -18.983100
C -6.675300 -16.858200 -22.635700
H -6.662100 -15.853500 -20.242400
H -6.484100 -18.504500 -23.866400
O -6.467500 -15.698200 -22.840600
O -6.459700 -17.460400 -21.452700
C -6.013900 -16.589500 -20.377300
C -5.910600 -17.424100 -19.132500
H -5.718000 -16.844800 -18.365700
H -5.188400 -18.077700 -19.237600
H -5.133600 -16.195300 -20.599200
32
Fragment
H -13.659600 -20.384000 -37.652500
H -13.355900 -22.101000 -36.117000
C -13.288800 -20.193600 -36.799000
C -13.120400 -21.206000 -35.902300
H -13.045500 -18.198700 -37.142500
C -12.923600 -18.873700 -36.485000
C -12.588000 -20.874300 -34.655600
C -12.398200 -18.519000 -35.264600
N -12.325100 -21.676800 -33.553400
C -12.242900 -19.560300 -34.345200
H -12.156300 -17.623500 -35.059500
N -11.846700 -20.929400 -32.604700
N -11.776000 -19.636200 -33.049600
H -11.488900 -19.669900 -30.475400
H -11.410700 -12.585300 -33.004700
C -11.258300 -18.605900 -32.205400
N -11.193600 -17.471000 -32.745900
O -11.182200 -14.997000 -33.907100
H -11.155300 -16.258600 -31.135500
C -10.835200 -19.033700 -30.835500
H -10.786900 -18.249800 -30.249200
C -10.785800 -15.089700 -32.784500
C -10.659600 -16.351400 -31.987200
H -10.631700 -11.756100 -30.922800
C -10.475800 -12.742000 -32.719000
O -10.358800 -14.032300 -32.074400
H -10.137300 -10.807200 -32.113600
C -10.055200 -11.698800 -31.713300
H -9.955200 -19.461400 -30.883700
H -9.892700 -12.703500 -33.517800
H -9.707300 -16.517100 -31.773500
H -9.123900 -11.854800 -31.450000
64
Fragment
H -9.907900 -19.108800 -25.629000
H -9.700000 -13.955500 -29.613200
N -9.688500 -16.592500 -28.706800
N -9.420100 -17.523500 -27.842500
C -9.267800 -14.112000 -28.781800
C -9.197500 -15.389000 -28.222400
C -8.929600 -19.147100 -25.661100
N -8.749800 -16.966500 -26.784600
H -8.708400 -12.211900 -28.421800
C -8.683600 -13.095900 -28.074200
H -8.646900 -19.610700 -26.477200
H -8.595600 -19.631100 -24.877300
C -8.583600 -15.614700 -26.992300
C -8.378900 -17.764000 -25.660800
C -8.048200 -13.335500 -26.842100
C -7.989600 -14.580000 -26.261200
H -7.953600 -18.363300 -23.237800
N -7.643200 -17.169100 -24.826700
H -7.641200 -12.604800 -26.391700
H -7.573800 -14.727600 -25.419800
C -7.198800 -17.859800 -23.633400
H -6.756800 -17.894000 -18.983100
C -6.675300 -16.858200 -22.635700
H -6.662100 -15.853500 -20.242400
H -6.484100 -18.504500 -23.866400
O -6.467500 -15.698200 -22.840600
O -6.459700 -17.460400 -21.452700
C -6.013900 -16.589500 -20.377300
C -5.910600 -17.424100 -19.132500
H -5.718000 -16.844800 -18.365700
H -5.188400 -18.077700 -19.237600
H -5.133600 -16.195300 -20.599200
H -13.659600 -20.384000 -37.652500
H -13.355900 -22.101000 -36.117000
C -13.288800 -20.193600 -36.799000
C -13.120400 -21.206000 -35.902300
H -13.045500 -18.198700 -37.142500
C -12.923600 -18.873700 -36.485000
C -12.588000 -20.874300 -34.655600
C -12.398200 -18.519000 -35.264600
N -12.325100 -21.676800 -33.553400
C -12.242900 -19.560300 -34.345200
H -12.156300 -17.623500 -35.059500
N -11.846700 -20.929400 -32.604700
N -11.776000 -19.636200 -33.049600
H -11.488900 -19.669900 -30.475400
H -11.410700 -12.585300 -33.004700
C -11.258300 -18.605900 -32.205400
N -11.193600 -17.471000 -32.745900
O -11.182200 -14.997000 -33.907100
H -11.155300 -16.258600 -31.135500
C -10.835200 -19.033700 -30.835500
H -10.786900 -18.249800 -30.249200
C -10.785800 -15.089700 -32.784500
C -10.659600 -16.351400 -31.987200
H -10.631700 -11.756100 -30.922800
C -10.475800 -12.742000 -32.719000
O -10.358800 -14.032300 -32.074400
H -10.137300 -10.807200 -32.113600
C -10.055200 -11.698800 -31.713300
H -9.955200 -19.461400 -30.883700
H -9.892700 -12.703500 -33.517800
H -9.707300 -16.517100 -31.773500
H -9.123900 -11.854800 -31.450000
