32
Fragment
H -9.907900 -19.108800 -25.629000
H -9.700000 -13.955500 -29.613200
N -9.688500 -16.592500 -28.706800
N -9.420100 -17.523500 -27.842500
C -9.267800 -14.112000 -28.781800
C -9.197500 -15.389000 -28.222400
C -8.929600 -19.147100 -25.661100
N -8.749800 -16.966500 -26.784600
H -8.708400 -12.211900 -28.421800
C -8.683600 -13.095900 -28.074200
H -8.646900 -19.610700 -26.477200
H -8.595600 -19.631100 -24.877300
C -8.583600 -15.614700 -26.992300
C -8.378900 -17.764000 -25.660800
C -8.048200 -13.335500 -26.842100
C -7.989600 -14.580000 -26.261200
H -7.953600 -18.363300 -23.237800
N -7.643200 -17.169100 -24.826700
H -7.641200 -12.604800 -26.391700
H -7.573800 -14.727600 -25.419800
C -7.198800 -17.859800 -23.633400
H -6.756800 -17.894000 -18.983100
C -6.675300 -16.858200 -22.635700
H -6.662100 -15.853500 -20.242400
H -6.484100 -18.504500 -23.866400
O -6.467500 -15.698200 -22.840600
O -6.459700 -17.460400 -21.452700
C -6.013900 -16.589500 -20.377300
C -5.910600 -17.424100 -19.132500
H -5.718000 -16.844800 -18.365700
H -5.188400 -18.077700 -19.237600
H -5.133600 -16.195300 -20.599200
32
Fragment
H -7.365300 -26.747700 -21.021100
H -7.061600 -28.464600 -19.485500
C -6.994500 -26.557200 -20.167600
C -6.826000 -27.569700 -19.270800
H -6.751100 -24.562400 -20.511000
C -6.629300 -25.237400 -19.853600
C -6.293700 -27.237900 -18.024100
C -6.103800 -24.882700 -18.633200
N -6.030800 -28.040500 -16.922000
C -5.948500 -25.924000 -17.713800
H -5.862000 -23.987200 -18.428100
N -5.552400 -27.293100 -15.973300
N -5.481600 -25.999900 -16.418200
H -5.194500 -26.033600 -13.844000
H -5.116300 -18.949000 -16.373300
C -4.963900 -24.969600 -15.574000
N -4.899200 -23.834700 -16.114500
O -4.887800 -21.360700 -17.275700
H -4.860900 -22.622200 -14.504100
C -4.540900 -25.397300 -14.204100
H -4.492500 -24.613500 -13.617800
C -4.491400 -21.453300 -16.153100
C -4.365200 -22.715000 -15.355800
H -4.337400 -18.119800 -14.291400
C -4.181500 -19.105700 -16.087600
O -4.064500 -20.396000 -15.442900
H -3.842900 -17.170900 -15.482200
C -3.760900 -18.062500 -15.081900
H -3.660900 -25.825000 -14.252300
H -3.598300 -19.067200 -16.886400
H -3.413000 -22.880800 -15.142100
H -2.829500 -18.218500 -14.818600
64
Fragment
H -9.907900 -19.108800 -25.629000
H -9.700000 -13.955500 -29.613200
N -9.688500 -16.592500 -28.706800
N -9.420100 -17.523500 -27.842500
C -9.267800 -14.112000 -28.781800
C -9.197500 -15.389000 -28.222400
C -8.929600 -19.147100 -25.661100
N -8.749800 -16.966500 -26.784600
H -8.708400 -12.211900 -28.421800
C -8.683600 -13.095900 -28.074200
H -8.646900 -19.610700 -26.477200
H -8.595600 -19.631100 -24.877300
C -8.583600 -15.614700 -26.992300
C -8.378900 -17.764000 -25.660800
C -8.048200 -13.335500 -26.842100
C -7.989600 -14.580000 -26.261200
H -7.953600 -18.363300 -23.237800
N -7.643200 -17.169100 -24.826700
H -7.641200 -12.604800 -26.391700
H -7.573800 -14.727600 -25.419800
C -7.198800 -17.859800 -23.633400
H -6.756800 -17.894000 -18.983100
C -6.675300 -16.858200 -22.635700
H -6.662100 -15.853500 -20.242400
H -6.484100 -18.504500 -23.866400
O -6.467500 -15.698200 -22.840600
O -6.459700 -17.460400 -21.452700
C -6.013900 -16.589500 -20.377300
C -5.910600 -17.424100 -19.132500
H -5.718000 -16.844800 -18.365700
H -5.188400 -18.077700 -19.237600
H -5.133600 -16.195300 -20.599200
H -7.365300 -26.747700 -21.021100
H -7.061600 -28.464600 -19.485500
C -6.994500 -26.557200 -20.167600
C -6.826000 -27.569700 -19.270800
H -6.751100 -24.562400 -20.511000
C -6.629300 -25.237400 -19.853600
C -6.293700 -27.237900 -18.024100
C -6.103800 -24.882700 -18.633200
N -6.030800 -28.040500 -16.922000
C -5.948500 -25.924000 -17.713800
H -5.862000 -23.987200 -18.428100
N -5.552400 -27.293100 -15.973300
N -5.481600 -25.999900 -16.418200
H -5.194500 -26.033600 -13.844000
H -5.116300 -18.949000 -16.373300
C -4.963900 -24.969600 -15.574000
N -4.899200 -23.834700 -16.114500
O -4.887800 -21.360700 -17.275700
H -4.860900 -22.622200 -14.504100
C -4.540900 -25.397300 -14.204100
H -4.492500 -24.613500 -13.617800
C -4.491400 -21.453300 -16.153100
C -4.365200 -22.715000 -15.355800
H -4.337400 -18.119800 -14.291400
C -4.181500 -19.105700 -16.087600
O -4.064500 -20.396000 -15.442900
H -3.842900 -17.170900 -15.482200
C -3.760900 -18.062500 -15.081900
H -3.660900 -25.825000 -14.252300
H -3.598300 -19.067200 -16.886400
H -3.413000 -22.880800 -15.142100
H -2.829500 -18.218500 -14.818600
