32
Fragment
H -9.907900 -19.108800 -25.629000
H -9.700000 -13.955500 -29.613200
N -9.688500 -16.592500 -28.706800
N -9.420100 -17.523500 -27.842500
C -9.267800 -14.112000 -28.781800
C -9.197500 -15.389000 -28.222400
C -8.929600 -19.147100 -25.661100
N -8.749800 -16.966500 -26.784600
H -8.708400 -12.211900 -28.421800
C -8.683600 -13.095900 -28.074200
H -8.646900 -19.610700 -26.477200
H -8.595600 -19.631100 -24.877300
C -8.583600 -15.614700 -26.992300
C -8.378900 -17.764000 -25.660800
C -8.048200 -13.335500 -26.842100
C -7.989600 -14.580000 -26.261200
H -7.953600 -18.363300 -23.237800
N -7.643200 -17.169100 -24.826700
H -7.641200 -12.604800 -26.391700
H -7.573800 -14.727600 -25.419800
C -7.198800 -17.859800 -23.633400
H -6.756800 -17.894000 -18.983100
C -6.675300 -16.858200 -22.635700
H -6.662100 -15.853500 -20.242400
H -6.484100 -18.504500 -23.866400
O -6.467500 -15.698200 -22.840600
O -6.459700 -17.460400 -21.452700
C -6.013900 -16.589500 -20.377300
C -5.910600 -17.424100 -19.132500
H -5.718000 -16.844800 -18.365700
H -5.188400 -18.077700 -19.237600
H -5.133600 -16.195300 -20.599200
32
Fragment
H -12.619500 -9.469700 -30.227800
H -12.230600 -7.171900 -30.276000
C -12.228300 -9.025300 -29.484900
C -11.994700 -7.674400 -29.505100
N -11.970600 -11.070900 -28.043600
C -11.869200 -9.722100 -28.330100
N -11.477400 -11.281300 -26.864700
C -11.412500 -7.019500 -28.406600
C -11.277800 -9.069900 -27.250300
H -11.273800 -6.080800 -28.452900
N -11.044300 -10.082000 -26.343700
C -11.034300 -7.694100 -27.261600
H -10.891800 -11.671800 -23.959200
H -10.631900 -7.248600 -26.525100
C -10.391500 -10.043700 -25.085200
N -10.126200 -8.883000 -24.648800
C -10.103800 -11.367600 -24.455300
H -9.994900 -9.162200 -22.663300
H -9.884200 -12.020800 -25.152700
C -9.423400 -8.795900 -23.383900
H -9.345500 -11.279000 -23.841100
O -9.236400 -6.427300 -23.773300
C -9.068700 -7.377200 -23.066000
H -8.843600 -5.416300 -21.262900
H -8.598200 -9.340500 -23.427200
O -8.487900 -7.309600 -21.867500
C -8.060600 -6.003600 -21.413600
H -7.916900 -6.638400 -19.468700
H -7.471100 -5.579200 -22.085700
C -7.316200 -6.228500 -20.127000
H -6.992200 -5.370200 -19.783100
H -6.555100 -6.823200 -20.290300
64
Fragment
H -9.907900 -19.108800 -25.629000
H -9.700000 -13.955500 -29.613200
N -9.688500 -16.592500 -28.706800
N -9.420100 -17.523500 -27.842500
C -9.267800 -14.112000 -28.781800
C -9.197500 -15.389000 -28.222400
C -8.929600 -19.147100 -25.661100
N -8.749800 -16.966500 -26.784600
H -8.708400 -12.211900 -28.421800
C -8.683600 -13.095900 -28.074200
H -8.646900 -19.610700 -26.477200
H -8.595600 -19.631100 -24.877300
C -8.583600 -15.614700 -26.992300
C -8.378900 -17.764000 -25.660800
C -8.048200 -13.335500 -26.842100
C -7.989600 -14.580000 -26.261200
H -7.953600 -18.363300 -23.237800
N -7.643200 -17.169100 -24.826700
H -7.641200 -12.604800 -26.391700
H -7.573800 -14.727600 -25.419800
C -7.198800 -17.859800 -23.633400
H -6.756800 -17.894000 -18.983100
C -6.675300 -16.858200 -22.635700
H -6.662100 -15.853500 -20.242400
H -6.484100 -18.504500 -23.866400
O -6.467500 -15.698200 -22.840600
O -6.459700 -17.460400 -21.452700
C -6.013900 -16.589500 -20.377300
C -5.910600 -17.424100 -19.132500
H -5.718000 -16.844800 -18.365700
H -5.188400 -18.077700 -19.237600
H -5.133600 -16.195300 -20.599200
H -12.619500 -9.469700 -30.227800
H -12.230600 -7.171900 -30.276000
C -12.228300 -9.025300 -29.484900
C -11.994700 -7.674400 -29.505100
N -11.970600 -11.070900 -28.043600
C -11.869200 -9.722100 -28.330100
N -11.477400 -11.281300 -26.864700
C -11.412500 -7.019500 -28.406600
C -11.277800 -9.069900 -27.250300
H -11.273800 -6.080800 -28.452900
N -11.044300 -10.082000 -26.343700
C -11.034300 -7.694100 -27.261600
H -10.891800 -11.671800 -23.959200
H -10.631900 -7.248600 -26.525100
C -10.391500 -10.043700 -25.085200
N -10.126200 -8.883000 -24.648800
C -10.103800 -11.367600 -24.455300
H -9.994900 -9.162200 -22.663300
H -9.884200 -12.020800 -25.152700
C -9.423400 -8.795900 -23.383900
H -9.345500 -11.279000 -23.841100
O -9.236400 -6.427300 -23.773300
C -9.068700 -7.377200 -23.066000
H -8.843600 -5.416300 -21.262900
H -8.598200 -9.340500 -23.427200
O -8.487900 -7.309600 -21.867500
C -8.060600 -6.003600 -21.413600
H -7.916900 -6.638400 -19.468700
H -7.471100 -5.579200 -22.085700
C -7.316200 -6.228500 -20.127000
H -6.992200 -5.370200 -19.783100
H -6.555100 -6.823200 -20.290300
