32
Fragment
H -9.907900 -19.108800 -25.629000
H -9.700000 -13.955500 -29.613200
N -9.688500 -16.592500 -28.706800
N -9.420100 -17.523500 -27.842500
C -9.267800 -14.112000 -28.781800
C -9.197500 -15.389000 -28.222400
C -8.929600 -19.147100 -25.661100
N -8.749800 -16.966500 -26.784600
H -8.708400 -12.211900 -28.421800
C -8.683600 -13.095900 -28.074200
H -8.646900 -19.610700 -26.477200
H -8.595600 -19.631100 -24.877300
C -8.583600 -15.614700 -26.992300
C -8.378900 -17.764000 -25.660800
C -8.048200 -13.335500 -26.842100
C -7.989600 -14.580000 -26.261200
H -7.953600 -18.363300 -23.237800
N -7.643200 -17.169100 -24.826700
H -7.641200 -12.604800 -26.391700
H -7.573800 -14.727600 -25.419800
C -7.198800 -17.859800 -23.633400
H -6.756800 -17.894000 -18.983100
C -6.675300 -16.858200 -22.635700
H -6.662100 -15.853500 -20.242400
H -6.484100 -18.504500 -23.866400
O -6.467500 -15.698200 -22.840600
O -6.459700 -17.460400 -21.452700
C -6.013900 -16.589500 -20.377300
C -5.910600 -17.424100 -19.132500
H -5.718000 -16.844800 -18.365700
H -5.188400 -18.077700 -19.237600
H -5.133600 -16.195300 -20.599200
32
Fragment
H -7.739100 -18.927200 -29.603900
H -7.302000 -20.380300 -30.111200
C -6.978000 -19.521900 -29.767300
H -6.823200 -20.171200 -27.808600
H -6.377300 -19.112100 -30.425500
C -6.233700 -19.746800 -28.480600
O -5.806400 -18.440900 -28.026800
H -5.696100 -16.409900 -26.467100
H -5.450700 -20.334100 -28.631300
C -5.225500 -18.373300 -26.828300
O -5.057800 -19.323100 -26.121000
H -4.948700 -14.471400 -26.053100
C -4.870900 -16.954500 -26.510300
H -4.410000 -13.729600 -24.741600
H -4.299300 -16.588200 -27.231000
C -4.190500 -14.382800 -25.438900
N -4.168100 -16.867500 -25.245500
C -3.902800 -15.706700 -24.809100
H -3.662300 -18.501800 -23.369100
H -3.402400 -14.078600 -25.935000
C -3.260000 -18.056300 -22.632700
N -3.249900 -15.668400 -23.550600
H -3.020500 -19.669600 -21.441400
C -3.016400 -16.680600 -22.644000
C -2.881800 -18.730900 -21.487600
N -2.816800 -14.469200 -23.029500
C -2.425000 -16.028300 -21.564100
N -2.323700 -14.679600 -21.850700
C -2.299500 -18.076100 -20.389100
C -2.066000 -16.725200 -20.409400
H -2.063700 -18.578500 -19.618300
H -1.674800 -16.280700 -19.666500
64
Fragment
H -9.907900 -19.108800 -25.629000
H -9.700000 -13.955500 -29.613200
N -9.688500 -16.592500 -28.706800
N -9.420100 -17.523500 -27.842500
C -9.267800 -14.112000 -28.781800
C -9.197500 -15.389000 -28.222400
C -8.929600 -19.147100 -25.661100
N -8.749800 -16.966500 -26.784600
H -8.708400 -12.211900 -28.421800
C -8.683600 -13.095900 -28.074200
H -8.646900 -19.610700 -26.477200
H -8.595600 -19.631100 -24.877300
C -8.583600 -15.614700 -26.992300
C -8.378900 -17.764000 -25.660800
C -8.048200 -13.335500 -26.842100
C -7.989600 -14.580000 -26.261200
H -7.953600 -18.363300 -23.237800
N -7.643200 -17.169100 -24.826700
H -7.641200 -12.604800 -26.391700
H -7.573800 -14.727600 -25.419800
C -7.198800 -17.859800 -23.633400
H -6.756800 -17.894000 -18.983100
C -6.675300 -16.858200 -22.635700
H -6.662100 -15.853500 -20.242400
H -6.484100 -18.504500 -23.866400
O -6.467500 -15.698200 -22.840600
O -6.459700 -17.460400 -21.452700
C -6.013900 -16.589500 -20.377300
C -5.910600 -17.424100 -19.132500
H -5.718000 -16.844800 -18.365700
H -5.188400 -18.077700 -19.237600
H -5.133600 -16.195300 -20.599200
H -7.739100 -18.927200 -29.603900
H -7.302000 -20.380300 -30.111200
C -6.978000 -19.521900 -29.767300
H -6.823200 -20.171200 -27.808600
H -6.377300 -19.112100 -30.425500
C -6.233700 -19.746800 -28.480600
O -5.806400 -18.440900 -28.026800
H -5.696100 -16.409900 -26.467100
H -5.450700 -20.334100 -28.631300
C -5.225500 -18.373300 -26.828300
O -5.057800 -19.323100 -26.121000
H -4.948700 -14.471400 -26.053100
C -4.870900 -16.954500 -26.510300
H -4.410000 -13.729600 -24.741600
H -4.299300 -16.588200 -27.231000
C -4.190500 -14.382800 -25.438900
N -4.168100 -16.867500 -25.245500
C -3.902800 -15.706700 -24.809100
H -3.662300 -18.501800 -23.369100
H -3.402400 -14.078600 -25.935000
C -3.260000 -18.056300 -22.632700
N -3.249900 -15.668400 -23.550600
H -3.020500 -19.669600 -21.441400
C -3.016400 -16.680600 -22.644000
C -2.881800 -18.730900 -21.487600
N -2.816800 -14.469200 -23.029500
C -2.425000 -16.028300 -21.564100
N -2.323700 -14.679600 -21.850700
C -2.299500 -18.076100 -20.389100
C -2.066000 -16.725200 -20.409400
H -2.063700 -18.578500 -19.618300
H -1.674800 -16.280700 -19.666500
