13
Fragment
H -9.414000 -15.893500 -32.669400
C -8.647500 -16.105800 -32.099700
F -8.617300 -18.394800 -32.610400
H -8.408900 -14.244400 -31.509100
C -8.109700 -17.308600 -31.965800
N -8.095200 -15.070100 -31.421500
C -7.005200 -15.229700 -30.595100
C -6.987500 -17.510200 -31.128600
H -6.717500 -19.359400 -31.463700
O -6.533000 -14.247200 -30.009800
N -6.473200 -16.479400 -30.458600
N -6.442100 -18.704800 -30.992800
H -5.751200 -18.740500 -30.396200
13
Fragment
H -4.245800 -15.893500 -32.669400
C -3.479300 -16.105800 -32.099700
F -3.449100 -18.394800 -32.610400
H -3.240700 -14.244400 -31.509100
C -2.941500 -17.308600 -31.965800
N -2.927000 -15.070100 -31.421500
C -1.837000 -15.229700 -30.595100
C -1.819300 -17.510200 -31.128600
H -1.549300 -19.359400 -31.463700
O -1.364800 -14.247200 -30.009800
N -1.305000 -16.479400 -30.458600
N -1.273900 -18.704800 -30.992800
H -0.583000 -18.740500 -30.396200
26
Fragment
H -9.414000 -15.893500 -32.669400
C -8.647500 -16.105800 -32.099700
F -8.617300 -18.394800 -32.610400
H -8.408900 -14.244400 -31.509100
C -8.109700 -17.308600 -31.965800
N -8.095200 -15.070100 -31.421500
C -7.005200 -15.229700 -30.595100
C -6.987500 -17.510200 -31.128600
H -6.717500 -19.359400 -31.463700
O -6.533000 -14.247200 -30.009800
N -6.473200 -16.479400 -30.458600
N -6.442100 -18.704800 -30.992800
H -5.751200 -18.740500 -30.396200
H -4.245800 -15.893500 -32.669400
C -3.479300 -16.105800 -32.099700
F -3.449100 -18.394800 -32.610400
H -3.240700 -14.244400 -31.509100
C -2.941500 -17.308600 -31.965800
N -2.927000 -15.070100 -31.421500
C -1.837000 -15.229700 -30.595100
C -1.819300 -17.510200 -31.128600
H -1.549300 -19.359400 -31.463700
O -1.364800 -14.247200 -30.009800
N -1.305000 -16.479400 -30.458600
N -1.273900 -18.704800 -30.992800
H -0.583000 -18.740500 -30.396200
