13
Fragment
H -9.414000 -15.893500 -32.669400
C -8.647500 -16.105800 -32.099700
F -8.617300 -18.394800 -32.610400
H -8.408900 -14.244400 -31.509100
C -8.109700 -17.308600 -31.965800
N -8.095200 -15.070100 -31.421500
C -7.005200 -15.229700 -30.595100
C -6.987500 -17.510200 -31.128600
H -6.717500 -19.359400 -31.463700
O -6.533000 -14.247200 -30.009800
N -6.473200 -16.479400 -30.458600
N -6.442100 -18.704800 -30.992800
H -5.751200 -18.740500 -30.396200
24
Fragment
H -10.360800 -16.584300 -29.336900
O -9.622300 -16.590200 -28.721900
O -9.445300 -18.777100 -29.094500
C -9.089700 -17.771000 -28.506800
C -8.031300 -17.750500 -27.491200
H -7.978300 -19.684200 -27.205900
H -7.732400 -16.910400 -27.243000
C -7.585600 -18.837200 -26.910800
H -6.924100 -20.949900 -25.450000
C -6.592800 -18.947700 -25.845900
C -6.365700 -20.166800 -25.227700
H -5.966200 -17.002200 -25.786000
C -5.852300 -17.842700 -25.418300
C -5.421200 -20.292600 -24.222400
H -5.333200 -15.399700 -24.374300
H -5.281600 -21.144300 -23.809600
C -4.911100 -17.968900 -24.423100
C -4.683100 -19.209800 -23.822300
C -4.356700 -15.656600 -24.484100
H -4.187600 -15.652600 -25.481000
O -4.137100 -16.945800 -23.938000
O -3.749000 -19.239300 -22.841400
H -3.722000 -15.066900 -23.982700
H -3.515200 -20.031600 -22.606000
37
Fragment
H -9.414000 -15.893500 -32.669400
C -8.647500 -16.105800 -32.099700
F -8.617300 -18.394800 -32.610400
H -8.408900 -14.244400 -31.509100
C -8.109700 -17.308600 -31.965800
N -8.095200 -15.070100 -31.421500
C -7.005200 -15.229700 -30.595100
C -6.987500 -17.510200 -31.128600
H -6.717500 -19.359400 -31.463700
O -6.533000 -14.247200 -30.009800
N -6.473200 -16.479400 -30.458600
N -6.442100 -18.704800 -30.992800
H -5.751200 -18.740500 -30.396200
H -10.360800 -16.584300 -29.336900
O -9.622300 -16.590200 -28.721900
O -9.445300 -18.777100 -29.094500
C -9.089700 -17.771000 -28.506800
C -8.031300 -17.750500 -27.491200
H -7.978300 -19.684200 -27.205900
H -7.732400 -16.910400 -27.243000
C -7.585600 -18.837200 -26.910800
H -6.924100 -20.949900 -25.450000
C -6.592800 -18.947700 -25.845900
C -6.365700 -20.166800 -25.227700
H -5.966200 -17.002200 -25.786000
C -5.852300 -17.842700 -25.418300
C -5.421200 -20.292600 -24.222400
H -5.333200 -15.399700 -24.374300
H -5.281600 -21.144300 -23.809600
C -4.911100 -17.968900 -24.423100
C -4.683100 -19.209800 -23.822300
C -4.356700 -15.656600 -24.484100
H -4.187600 -15.652600 -25.481000
O -4.137100 -16.945800 -23.938000
O -3.749000 -19.239300 -22.841400
H -3.722000 -15.066900 -23.982700
H -3.515200 -20.031600 -22.606000
