13
Fragment
H -9.414000 -15.893500 -32.669400
C -8.647500 -16.105800 -32.099700
F -8.617300 -18.394800 -32.610400
H -8.408900 -14.244400 -31.509100
C -8.109700 -17.308600 -31.965800
N -8.095200 -15.070100 -31.421500
C -7.005200 -15.229700 -30.595100
C -6.987500 -17.510200 -31.128600
H -6.717500 -19.359400 -31.463700
O -6.533000 -14.247200 -30.009800
N -6.473200 -16.479400 -30.458600
N -6.442100 -18.704800 -30.992800
H -5.751200 -18.740500 -30.396200
24
Fragment
H -5.154900 -13.376500 -28.916500
H -4.948000 -8.411900 -27.539800
O -4.921100 -12.584300 -28.681100
O -4.533000 -10.290800 -27.584500
H -4.482500 -8.997600 -26.041500
C -4.313400 -9.001600 -27.038400
C -3.987000 -12.554800 -27.700100
C -3.759000 -11.313900 -27.099400
H -3.388500 -14.489300 -27.712900
H -3.336900 -8.744700 -27.148200
C -3.248900 -13.637600 -27.300100
C -2.817800 -11.187700 -26.104200
H -2.703900 -10.347200 -25.736500
C -2.304400 -13.511800 -26.294800
C -2.077300 -12.292700 -25.676500
H -1.745900 -14.294900 -26.072400
C -1.084500 -12.182200 -24.611700
H -0.937700 -10.255400 -24.279500
H -0.691800 -13.029200 -24.316500
C -0.638800 -11.095500 -24.031300
C 0.419600 -11.116000 -23.015700
O 0.775200 -12.122100 -22.427900
O 0.952200 -9.935200 -22.800600
H 1.690700 -9.929300 -22.185600
37
Fragment
H -9.414000 -15.893500 -32.669400
C -8.647500 -16.105800 -32.099700
F -8.617300 -18.394800 -32.610400
H -8.408900 -14.244400 -31.509100
C -8.109700 -17.308600 -31.965800
N -8.095200 -15.070100 -31.421500
C -7.005200 -15.229700 -30.595100
C -6.987500 -17.510200 -31.128600
H -6.717500 -19.359400 -31.463700
O -6.533000 -14.247200 -30.009800
N -6.473200 -16.479400 -30.458600
N -6.442100 -18.704800 -30.992800
H -5.751200 -18.740500 -30.396200
H -5.154900 -13.376500 -28.916500
H -4.948000 -8.411900 -27.539800
O -4.921100 -12.584300 -28.681100
O -4.533000 -10.290800 -27.584500
H -4.482500 -8.997600 -26.041500
C -4.313400 -9.001600 -27.038400
C -3.987000 -12.554800 -27.700100
C -3.759000 -11.313900 -27.099400
H -3.388500 -14.489300 -27.712900
H -3.336900 -8.744700 -27.148200
C -3.248900 -13.637600 -27.300100
C -2.817800 -11.187700 -26.104200
H -2.703900 -10.347200 -25.736500
C -2.304400 -13.511800 -26.294800
C -2.077300 -12.292700 -25.676500
H -1.745900 -14.294900 -26.072400
C -1.084500 -12.182200 -24.611700
H -0.937700 -10.255400 -24.279500
H -0.691800 -13.029200 -24.316500
C -0.638800 -11.095500 -24.031300
C 0.419600 -11.116000 -23.015700
O 0.775200 -12.122100 -22.427900
O 0.952200 -9.935200 -22.800600
H 1.690700 -9.929300 -22.185600
