22
Fragment
H -16.180900 -10.299100 -18.654400
H -16.174100 -11.864600 -18.738900
H -15.801800 -11.070400 -16.558200
H -15.788600 -11.010400 -19.995000
C -15.741400 -11.061600 -19.037600
N -14.977000 -11.069000 -16.367000
H -14.706600 -11.056900 -15.577000
N -14.328500 -11.079100 -18.615700
C -14.016900 -11.073700 -17.280300
O -13.721300 -11.106100 -20.822000
C -13.379300 -11.087200 -19.656400
C -12.658800 -11.079800 -16.959800
N -12.055000 -11.070400 -19.284300
N -12.014700 -11.096700 -15.736300
C -11.708300 -11.073700 -17.956600
H -11.442400 -10.864100 -21.172000
C -11.032900 -11.047400 -20.323000
C -10.738900 -11.096000 -16.093900
H -10.592600 -11.900300 -20.357200
N -10.475900 -11.077100 -17.440500
H -10.389100 -10.363800 -20.123200
H -10.004900 -11.083800 -15.374000
22
Fragment
H -20.795300 -9.142200 -26.916500
H -20.411100 -9.862200 -22.167300
N -20.324300 -9.148900 -24.850100
H -20.207600 -8.325700 -21.933300
C -20.061300 -9.130000 -26.196600
C -19.767300 -9.178600 -21.967500
H -19.357800 -9.361900 -21.118500
C -19.091900 -9.152300 -24.334000
N -18.785500 -9.129300 -26.554200
N -18.745300 -9.155600 -23.006200
C -18.141400 -9.146200 -25.330800
C -17.420900 -9.138800 -22.634200
O -17.079000 -9.119900 -21.468500
C -16.783400 -9.152300 -25.010200
N -16.471800 -9.146900 -23.674800
H -16.093700 -9.169100 -26.713500
N -15.823300 -9.157000 -25.923500
C -15.058900 -9.164400 -23.252900
H -15.011700 -9.215600 -22.295600
H -14.998500 -9.155600 -25.732400
H -14.626200 -8.361400 -23.551600
H -14.619400 -9.926900 -23.636200
44
Fragment
H -16.180900 -10.299100 -18.654400
H -16.174100 -11.864600 -18.738900
H -15.801800 -11.070400 -16.558200
H -15.788600 -11.010400 -19.995000
C -15.741400 -11.061600 -19.037600
N -14.977000 -11.069000 -16.367000
H -14.706600 -11.056900 -15.577000
N -14.328500 -11.079100 -18.615700
C -14.016900 -11.073700 -17.280300
O -13.721300 -11.106100 -20.822000
C -13.379300 -11.087200 -19.656400
C -12.658800 -11.079800 -16.959800
N -12.055000 -11.070400 -19.284300
N -12.014700 -11.096700 -15.736300
C -11.708300 -11.073700 -17.956600
H -11.442400 -10.864100 -21.172000
C -11.032900 -11.047400 -20.323000
C -10.738900 -11.096000 -16.093900
H -10.592600 -11.900300 -20.357200
N -10.475900 -11.077100 -17.440500
H -10.389100 -10.363800 -20.123200
H -10.004900 -11.083800 -15.374000
H -20.795300 -9.142200 -26.916500
H -20.411100 -9.862200 -22.167300
N -20.324300 -9.148900 -24.850100
H -20.207600 -8.325700 -21.933300
C -20.061300 -9.130000 -26.196600
C -19.767300 -9.178600 -21.967500
H -19.357800 -9.361900 -21.118500
C -19.091900 -9.152300 -24.334000
N -18.785500 -9.129300 -26.554200
N -18.745300 -9.155600 -23.006200
C -18.141400 -9.146200 -25.330800
C -17.420900 -9.138800 -22.634200
O -17.079000 -9.119900 -21.468500
C -16.783400 -9.152300 -25.010200
N -16.471800 -9.146900 -23.674800
H -16.093700 -9.169100 -26.713500
N -15.823300 -9.157000 -25.923500
C -15.058900 -9.164400 -23.252900
H -15.011700 -9.215600 -22.295600
H -14.998500 -9.155600 -25.732400
H -14.626200 -8.361400 -23.551600
H -14.619400 -9.926900 -23.636200
