22
Fragment
H -16.180900 -10.299100 -18.654400
H -16.174100 -11.864600 -18.738900
H -15.801800 -11.070400 -16.558200
H -15.788600 -11.010400 -19.995000
C -15.741400 -11.061600 -19.037600
N -14.977000 -11.069000 -16.367000
H -14.706600 -11.056900 -15.577000
N -14.328500 -11.079100 -18.615700
C -14.016900 -11.073700 -17.280300
O -13.721300 -11.106100 -20.822000
C -13.379300 -11.087200 -19.656400
C -12.658800 -11.079800 -16.959800
N -12.055000 -11.070400 -19.284300
N -12.014700 -11.096700 -15.736300
C -11.708300 -11.073700 -17.956600
H -11.442400 -10.864100 -21.172000
C -11.032900 -11.047400 -20.323000
C -10.738900 -11.096000 -16.093900
H -10.592600 -11.900300 -20.357200
N -10.475900 -11.077100 -17.440500
H -10.389100 -10.363800 -20.123200
H -10.004900 -11.083800 -15.374000
22
Fragment
H -21.314200 -13.297900 -25.702800
H -21.307500 -11.732400 -25.787400
H -20.935100 -12.526600 -23.606600
H -20.921900 -12.586600 -27.043400
C -20.874800 -12.535400 -26.086100
N -20.110300 -12.528000 -23.415400
H -19.839900 -12.540100 -22.625400
N -19.461800 -12.517900 -25.664100
C -19.150200 -12.523300 -24.328800
O -18.854700 -12.490900 -27.870400
C -18.512700 -12.509800 -26.704800
C -17.792200 -12.517200 -24.008200
N -17.188300 -12.526600 -26.332800
N -17.148100 -12.500300 -22.784700
C -16.841700 -12.523300 -25.005000
H -16.575800 -12.732900 -28.220500
C -16.166300 -12.549600 -27.371400
C -15.872300 -12.501000 -23.142400
H -15.726000 -11.696700 -27.405700
N -15.609300 -12.519900 -24.488900
H -15.522500 -13.233200 -27.171700
H -15.138300 -12.513200 -22.422400
44
Fragment
H -16.180900 -10.299100 -18.654400
H -16.174100 -11.864600 -18.738900
H -15.801800 -11.070400 -16.558200
H -15.788600 -11.010400 -19.995000
C -15.741400 -11.061600 -19.037600
N -14.977000 -11.069000 -16.367000
H -14.706600 -11.056900 -15.577000
N -14.328500 -11.079100 -18.615700
C -14.016900 -11.073700 -17.280300
O -13.721300 -11.106100 -20.822000
C -13.379300 -11.087200 -19.656400
C -12.658800 -11.079800 -16.959800
N -12.055000 -11.070400 -19.284300
N -12.014700 -11.096700 -15.736300
C -11.708300 -11.073700 -17.956600
H -11.442400 -10.864100 -21.172000
C -11.032900 -11.047400 -20.323000
C -10.738900 -11.096000 -16.093900
H -10.592600 -11.900300 -20.357200
N -10.475900 -11.077100 -17.440500
H -10.389100 -10.363800 -20.123200
H -10.004900 -11.083800 -15.374000
H -21.314200 -13.297900 -25.702800
H -21.307500 -11.732400 -25.787400
H -20.935100 -12.526600 -23.606600
H -20.921900 -12.586600 -27.043400
C -20.874800 -12.535400 -26.086100
N -20.110300 -12.528000 -23.415400
H -19.839900 -12.540100 -22.625400
N -19.461800 -12.517900 -25.664100
C -19.150200 -12.523300 -24.328800
O -18.854700 -12.490900 -27.870400
C -18.512700 -12.509800 -26.704800
C -17.792200 -12.517200 -24.008200
N -17.188300 -12.526600 -26.332800
N -17.148100 -12.500300 -22.784700
C -16.841700 -12.523300 -25.005000
H -16.575800 -12.732900 -28.220500
C -16.166300 -12.549600 -27.371400
C -15.872300 -12.501000 -23.142400
H -15.726000 -11.696700 -27.405700
N -15.609300 -12.519900 -24.488900
H -15.522500 -13.233200 -27.171700
H -15.138300 -12.513200 -22.422400
