20
Fragment
H -12.440000 -17.204100 -21.374800
H -12.317700 -17.279400 -22.921300
O -11.919600 -17.152900 -19.509600
N -11.865200 -17.239100 -22.122100
H -11.155900 -19.613500 -26.544500
H -11.142300 -18.070000 -26.612700
N -11.032300 -18.801700 -26.114500
N -10.719700 -16.849600 -19.531900
C -10.600800 -18.817900 -24.844500
C -10.559400 -17.293100 -21.977000
O -10.437200 -19.846100 -24.184800
N -10.425500 -17.553400 -24.305300
H -10.279500 -16.940600 -24.854400
O -10.185000 -16.249900 -18.592800
C -9.952700 -17.171600 -20.673200
N -9.794400 -17.453100 -23.071600
H -8.900300 -17.442600 -22.958100
N -8.568700 -17.320500 -20.451900
O -8.124400 -17.537300 -19.326800
O -7.816000 -17.289800 -21.443900
20
Fragment
H -8.995400 -14.255200 -22.902900
H -8.689700 -14.343000 -24.559900
O -8.551400 -14.317800 -21.108400
N -8.374400 -14.308000 -23.660300
H -7.738500 -12.297600 -27.995300
N -7.523800 -13.042400 -27.672400
H -7.521100 -13.753300 -28.168400
N -7.318600 -14.391700 -20.989100
C -7.135200 -12.950300 -26.402000
C -7.074000 -14.211000 -23.462200
O -7.069900 -11.895400 -25.759300
N -6.860000 -14.152600 -25.795200
O -6.812400 -14.686600 -19.909000
H -6.699000 -14.882600 -26.261000
C -6.504700 -14.188700 -22.129800
N -6.274400 -14.146000 -24.543700
H -5.401300 -14.004200 -24.383100
N -5.130200 -14.002200 -21.903600
O -4.690600 -13.715200 -20.795400
O -4.358800 -14.092700 -22.879500
40
Fragment
H -12.440000 -17.204100 -21.374800
H -12.317700 -17.279400 -22.921300
O -11.919600 -17.152900 -19.509600
N -11.865200 -17.239100 -22.122100
H -11.155900 -19.613500 -26.544500
H -11.142300 -18.070000 -26.612700
N -11.032300 -18.801700 -26.114500
N -10.719700 -16.849600 -19.531900
C -10.600800 -18.817900 -24.844500
C -10.559400 -17.293100 -21.977000
O -10.437200 -19.846100 -24.184800
N -10.425500 -17.553400 -24.305300
H -10.279500 -16.940600 -24.854400
O -10.185000 -16.249900 -18.592800
C -9.952700 -17.171600 -20.673200
N -9.794400 -17.453100 -23.071600
H -8.900300 -17.442600 -22.958100
N -8.568700 -17.320500 -20.451900
O -8.124400 -17.537300 -19.326800
O -7.816000 -17.289800 -21.443900
H -8.995400 -14.255200 -22.902900
H -8.689700 -14.343000 -24.559900
O -8.551400 -14.317800 -21.108400
N -8.374400 -14.308000 -23.660300
H -7.738500 -12.297600 -27.995300
N -7.523800 -13.042400 -27.672400
H -7.521100 -13.753300 -28.168400
N -7.318600 -14.391700 -20.989100
C -7.135200 -12.950300 -26.402000
C -7.074000 -14.211000 -23.462200
O -7.069900 -11.895400 -25.759300
N -6.860000 -14.152600 -25.795200
O -6.812400 -14.686600 -19.909000
H -6.699000 -14.882600 -26.261000
C -6.504700 -14.188700 -22.129800
N -6.274400 -14.146000 -24.543700
H -5.401300 -14.004200 -24.383100
N -5.130200 -14.002200 -21.903600
O -4.690600 -13.715200 -20.795400
O -4.358800 -14.092700 -22.879500
