20
Fragment
H -12.440000 -17.204100 -21.374800
H -12.317700 -17.279400 -22.921300
O -11.919600 -17.152900 -19.509600
N -11.865200 -17.239100 -22.122100
H -11.155900 -19.613500 -26.544500
H -11.142300 -18.070000 -26.612700
N -11.032300 -18.801700 -26.114500
N -10.719700 -16.849600 -19.531900
C -10.600800 -18.817900 -24.844500
C -10.559400 -17.293100 -21.977000
O -10.437200 -19.846100 -24.184800
N -10.425500 -17.553400 -24.305300
H -10.279500 -16.940600 -24.854400
O -10.185000 -16.249900 -18.592800
C -9.952700 -17.171600 -20.673200
N -9.794400 -17.453100 -23.071600
H -8.900300 -17.442600 -22.958100
N -8.568700 -17.320500 -20.451900
O -8.124400 -17.537300 -19.326800
O -7.816000 -17.289800 -21.443900
20
Fragment
H -15.837000 -20.441700 -21.374800
H -15.714800 -20.366400 -22.921300
O -15.316600 -20.492900 -19.509600
N -15.262300 -20.406700 -22.122100
H -14.553000 -18.032300 -26.544500
H -14.539400 -19.575800 -26.612700
N -14.429300 -18.844100 -26.114500
N -14.116800 -20.796200 -19.531900
C -13.997900 -18.827900 -24.844500
C -13.956400 -20.352700 -21.977000
O -13.834200 -17.799700 -24.184800
N -13.822600 -20.092400 -24.305300
H -13.676500 -20.705200 -24.854400
O -13.582100 -21.395900 -18.592800
C -13.349700 -20.474200 -20.673200
N -13.191400 -20.192700 -23.071600
H -12.297300 -20.203200 -22.958100
N -11.965800 -20.325300 -20.451900
O -11.521400 -20.108500 -19.326800
O -11.213100 -20.356000 -21.443900
40
Fragment
H -12.440000 -17.204100 -21.374800
H -12.317700 -17.279400 -22.921300
O -11.919600 -17.152900 -19.509600
N -11.865200 -17.239100 -22.122100
H -11.155900 -19.613500 -26.544500
H -11.142300 -18.070000 -26.612700
N -11.032300 -18.801700 -26.114500
N -10.719700 -16.849600 -19.531900
C -10.600800 -18.817900 -24.844500
C -10.559400 -17.293100 -21.977000
O -10.437200 -19.846100 -24.184800
N -10.425500 -17.553400 -24.305300
H -10.279500 -16.940600 -24.854400
O -10.185000 -16.249900 -18.592800
C -9.952700 -17.171600 -20.673200
N -9.794400 -17.453100 -23.071600
H -8.900300 -17.442600 -22.958100
N -8.568700 -17.320500 -20.451900
O -8.124400 -17.537300 -19.326800
O -7.816000 -17.289800 -21.443900
H -15.837000 -20.441700 -21.374800
H -15.714800 -20.366400 -22.921300
O -15.316600 -20.492900 -19.509600
N -15.262300 -20.406700 -22.122100
H -14.553000 -18.032300 -26.544500
H -14.539400 -19.575800 -26.612700
N -14.429300 -18.844100 -26.114500
N -14.116800 -20.796200 -19.531900
C -13.997900 -18.827900 -24.844500
C -13.956400 -20.352700 -21.977000
O -13.834200 -17.799700 -24.184800
N -13.822600 -20.092400 -24.305300
H -13.676500 -20.705200 -24.854400
O -13.582100 -21.395900 -18.592800
C -13.349700 -20.474200 -20.673200
N -13.191400 -20.192700 -23.071600
H -12.297300 -20.203200 -22.958100
N -11.965800 -20.325300 -20.451900
O -11.521400 -20.108500 -19.326800
O -11.213100 -20.356000 -21.443900
