20
Fragment
H -12.440000 -17.204100 -21.374800
H -12.317700 -17.279400 -22.921300
O -11.919600 -17.152900 -19.509600
N -11.865200 -17.239100 -22.122100
H -11.155900 -19.613500 -26.544500
H -11.142300 -18.070000 -26.612700
N -11.032300 -18.801700 -26.114500
N -10.719700 -16.849600 -19.531900
C -10.600800 -18.817900 -24.844500
C -10.559400 -17.293100 -21.977000
O -10.437200 -19.846100 -24.184800
N -10.425500 -17.553400 -24.305300
H -10.279500 -16.940600 -24.854400
O -10.185000 -16.249900 -18.592800
C -9.952700 -17.171600 -20.673200
N -9.794400 -17.453100 -23.071600
H -8.900300 -17.442600 -22.958100
N -8.568700 -17.320500 -20.451900
O -8.124400 -17.537300 -19.326800
O -7.816000 -17.289800 -21.443900
20
Fragment
H -12.392400 -23.390600 -22.902900
H -12.086700 -23.302800 -24.559900
O -11.948400 -23.328000 -21.108400
N -11.771500 -23.337800 -23.660300
H -11.135500 -25.348200 -27.995300
N -10.920800 -24.603400 -27.672400
H -10.918100 -23.892500 -28.168400
N -10.715700 -23.254100 -20.989100
C -10.532200 -24.695500 -26.402000
C -10.471100 -23.434800 -23.462200
O -10.467000 -25.750400 -25.759300
N -10.257100 -23.493200 -25.795200
O -10.209500 -22.959200 -19.909000
H -10.096000 -22.763200 -26.261000
C -9.901700 -23.457100 -22.129800
N -9.671400 -23.499800 -24.543700
H -8.798400 -23.641600 -24.383100
N -8.527300 -23.643600 -21.903600
O -8.087700 -23.930600 -20.795400
O -7.755900 -23.553100 -22.879500
40
Fragment
H -12.440000 -17.204100 -21.374800
H -12.317700 -17.279400 -22.921300
O -11.919600 -17.152900 -19.509600
N -11.865200 -17.239100 -22.122100
H -11.155900 -19.613500 -26.544500
H -11.142300 -18.070000 -26.612700
N -11.032300 -18.801700 -26.114500
N -10.719700 -16.849600 -19.531900
C -10.600800 -18.817900 -24.844500
C -10.559400 -17.293100 -21.977000
O -10.437200 -19.846100 -24.184800
N -10.425500 -17.553400 -24.305300
H -10.279500 -16.940600 -24.854400
O -10.185000 -16.249900 -18.592800
C -9.952700 -17.171600 -20.673200
N -9.794400 -17.453100 -23.071600
H -8.900300 -17.442600 -22.958100
N -8.568700 -17.320500 -20.451900
O -8.124400 -17.537300 -19.326800
O -7.816000 -17.289800 -21.443900
H -12.392400 -23.390600 -22.902900
H -12.086700 -23.302800 -24.559900
O -11.948400 -23.328000 -21.108400
N -11.771500 -23.337800 -23.660300
H -11.135500 -25.348200 -27.995300
N -10.920800 -24.603400 -27.672400
H -10.918100 -23.892500 -28.168400
N -10.715700 -23.254100 -20.989100
C -10.532200 -24.695500 -26.402000
C -10.471100 -23.434800 -23.462200
O -10.467000 -25.750400 -25.759300
N -10.257100 -23.493200 -25.795200
O -10.209500 -22.959200 -19.909000
H -10.096000 -22.763200 -26.261000
C -9.901700 -23.457100 -22.129800
N -9.671400 -23.499800 -24.543700
H -8.798400 -23.641600 -24.383100
N -8.527300 -23.643600 -21.903600
O -8.087700 -23.930600 -20.795400
O -7.755900 -23.553100 -22.879500
