20
Fragment
H -12.440000 -17.204100 -21.374800
H -12.317700 -17.279400 -22.921300
O -11.919600 -17.152900 -19.509600
N -11.865200 -17.239100 -22.122100
H -11.155900 -19.613500 -26.544500
H -11.142300 -18.070000 -26.612700
N -11.032300 -18.801700 -26.114500
N -10.719700 -16.849600 -19.531900
C -10.600800 -18.817900 -24.844500
C -10.559400 -17.293100 -21.977000
O -10.437200 -19.846100 -24.184800
N -10.425500 -17.553400 -24.305300
H -10.279500 -16.940600 -24.854400
O -10.185000 -16.249900 -18.592800
C -9.952700 -17.171600 -20.673200
N -9.794400 -17.453100 -23.071600
H -8.900300 -17.442600 -22.958100
N -8.568700 -17.320500 -20.451900
O -8.124400 -17.537300 -19.326800
O -7.816000 -17.289800 -21.443900
20
Fragment
O -15.963300 -17.289800 -30.649200
O -15.655000 -17.537300 -28.532200
N -15.210600 -17.320500 -29.657200
H -14.879100 -17.442600 -32.163500
N -13.985000 -17.453100 -32.276900
C -13.826700 -17.171600 -29.878500
O -13.594300 -16.249900 -27.798100
H -13.499900 -16.940600 -34.059800
N -13.353800 -17.553400 -33.510600
O -13.342200 -19.846100 -33.390200
C -13.220000 -17.293100 -31.182400
C -13.178500 -18.817900 -34.049900
N -13.059600 -16.849600 -28.737300
N -12.747100 -18.801700 -35.319800
H -12.637000 -18.070000 -35.818000
H -12.623400 -19.613500 -35.749900
N -11.914100 -17.239100 -31.327500
O -11.859800 -17.152900 -28.715000
H -11.461600 -17.279400 -32.126700
H -11.339400 -17.204100 -30.580200
40
Fragment
H -12.440000 -17.204100 -21.374800
H -12.317700 -17.279400 -22.921300
O -11.919600 -17.152900 -19.509600
N -11.865200 -17.239100 -22.122100
H -11.155900 -19.613500 -26.544500
H -11.142300 -18.070000 -26.612700
N -11.032300 -18.801700 -26.114500
N -10.719700 -16.849600 -19.531900
C -10.600800 -18.817900 -24.844500
C -10.559400 -17.293100 -21.977000
O -10.437200 -19.846100 -24.184800
N -10.425500 -17.553400 -24.305300
H -10.279500 -16.940600 -24.854400
O -10.185000 -16.249900 -18.592800
C -9.952700 -17.171600 -20.673200
N -9.794400 -17.453100 -23.071600
H -8.900300 -17.442600 -22.958100
N -8.568700 -17.320500 -20.451900
O -8.124400 -17.537300 -19.326800
O -7.816000 -17.289800 -21.443900
O -15.963300 -17.289800 -30.649200
O -15.655000 -17.537300 -28.532200
N -15.210600 -17.320500 -29.657200
H -14.879100 -17.442600 -32.163500
N -13.985000 -17.453100 -32.276900
C -13.826700 -17.171600 -29.878500
O -13.594300 -16.249900 -27.798100
H -13.499900 -16.940600 -34.059800
N -13.353800 -17.553400 -33.510600
O -13.342200 -19.846100 -33.390200
C -13.220000 -17.293100 -31.182400
C -13.178500 -18.817900 -34.049900
N -13.059600 -16.849600 -28.737300
N -12.747100 -18.801700 -35.319800
H -12.637000 -18.070000 -35.818000
H -12.623400 -19.613500 -35.749900
N -11.914100 -17.239100 -31.327500
O -11.859800 -17.152900 -28.715000
H -11.461600 -17.279400 -32.126700
H -11.339400 -17.204100 -30.580200
