20
Fragment
H -12.440000 -17.204100 -21.374800
H -12.317700 -17.279400 -22.921300
O -11.919600 -17.152900 -19.509600
N -11.865200 -17.239100 -22.122100
H -11.155900 -19.613500 -26.544500
H -11.142300 -18.070000 -26.612700
N -11.032300 -18.801700 -26.114500
N -10.719700 -16.849600 -19.531900
C -10.600800 -18.817900 -24.844500
C -10.559400 -17.293100 -21.977000
O -10.437200 -19.846100 -24.184800
N -10.425500 -17.553400 -24.305300
H -10.279500 -16.940600 -24.854400
O -10.185000 -16.249900 -18.592800
C -9.952700 -17.171600 -20.673200
N -9.794400 -17.453100 -23.071600
H -8.900300 -17.442600 -22.958100
N -8.568700 -17.320500 -20.451900
O -8.124400 -17.537300 -19.326800
O -7.816000 -17.289800 -21.443900
20
Fragment
O -15.963300 -17.289800 -12.238500
O -15.655000 -17.537300 -10.121500
N -15.210600 -17.320500 -11.246500
H -14.879100 -17.442600 -13.752800
N -13.985000 -17.453100 -13.866200
C -13.826700 -17.171600 -11.467800
O -13.594300 -16.249900 -9.387400
H -13.499900 -16.940600 -15.649100
N -13.353800 -17.553400 -15.099900
O -13.342200 -19.846100 -14.979500
C -13.220000 -17.293100 -12.771700
C -13.178500 -18.817900 -15.639200
N -13.059600 -16.849600 -10.326600
N -12.747100 -18.801700 -16.909100
H -12.637000 -18.070000 -17.407300
H -12.623400 -19.613500 -17.339200
N -11.914100 -17.239100 -12.916800
O -11.859800 -17.152900 -10.304300
H -11.461600 -17.279400 -13.716000
H -11.339400 -17.204100 -12.169500
40
Fragment
H -12.440000 -17.204100 -21.374800
H -12.317700 -17.279400 -22.921300
O -11.919600 -17.152900 -19.509600
N -11.865200 -17.239100 -22.122100
H -11.155900 -19.613500 -26.544500
H -11.142300 -18.070000 -26.612700
N -11.032300 -18.801700 -26.114500
N -10.719700 -16.849600 -19.531900
C -10.600800 -18.817900 -24.844500
C -10.559400 -17.293100 -21.977000
O -10.437200 -19.846100 -24.184800
N -10.425500 -17.553400 -24.305300
H -10.279500 -16.940600 -24.854400
O -10.185000 -16.249900 -18.592800
C -9.952700 -17.171600 -20.673200
N -9.794400 -17.453100 -23.071600
H -8.900300 -17.442600 -22.958100
N -8.568700 -17.320500 -20.451900
O -8.124400 -17.537300 -19.326800
O -7.816000 -17.289800 -21.443900
O -15.963300 -17.289800 -12.238500
O -15.655000 -17.537300 -10.121500
N -15.210600 -17.320500 -11.246500
H -14.879100 -17.442600 -13.752800
N -13.985000 -17.453100 -13.866200
C -13.826700 -17.171600 -11.467800
O -13.594300 -16.249900 -9.387400
H -13.499900 -16.940600 -15.649100
N -13.353800 -17.553400 -15.099900
O -13.342200 -19.846100 -14.979500
C -13.220000 -17.293100 -12.771700
C -13.178500 -18.817900 -15.639200
N -13.059600 -16.849600 -10.326600
N -12.747100 -18.801700 -16.909100
H -12.637000 -18.070000 -17.407300
H -12.623400 -19.613500 -17.339200
N -11.914100 -17.239100 -12.916800
O -11.859800 -17.152900 -10.304300
H -11.461600 -17.279400 -13.716000
H -11.339400 -17.204100 -12.169500
