20
Fragment
H -12.440000 -17.204100 -21.374800
H -12.317700 -17.279400 -22.921300
O -11.919600 -17.152900 -19.509600
N -11.865200 -17.239100 -22.122100
H -11.155900 -19.613500 -26.544500
H -11.142300 -18.070000 -26.612700
N -11.032300 -18.801700 -26.114500
N -10.719700 -16.849600 -19.531900
C -10.600800 -18.817900 -24.844500
C -10.559400 -17.293100 -21.977000
O -10.437200 -19.846100 -24.184800
N -10.425500 -17.553400 -24.305300
H -10.279500 -16.940600 -24.854400
O -10.185000 -16.249900 -18.592800
C -9.952700 -17.171600 -20.673200
N -9.794400 -17.453100 -23.071600
H -8.900300 -17.442600 -22.958100
N -8.568700 -17.320500 -20.451900
O -8.124400 -17.537300 -19.326800
O -7.816000 -17.289800 -21.443900
20
Fragment
H -5.645900 -17.204100 -21.374800
H -5.523600 -17.279400 -22.921300
O -5.125500 -17.152900 -19.509600
N -5.071100 -17.239100 -22.122100
H -4.361800 -19.613500 -26.544500
H -4.348200 -18.070000 -26.612700
N -4.238200 -18.801700 -26.114500
N -3.925600 -16.849600 -19.531900
C -3.806700 -18.817900 -24.844500
C -3.765300 -17.293100 -21.977000
O -3.643100 -19.846100 -24.184800
N -3.631400 -17.553400 -24.305300
H -3.485400 -16.940600 -24.854400
O -3.390900 -16.249900 -18.592800
C -3.158600 -17.171600 -20.673200
N -3.000300 -17.453100 -23.071600
H -2.106200 -17.442600 -22.958100
N -1.774600 -17.320500 -20.451900
O -1.330300 -17.537300 -19.326800
O -1.021900 -17.289800 -21.443900
40
Fragment
H -12.440000 -17.204100 -21.374800
H -12.317700 -17.279400 -22.921300
O -11.919600 -17.152900 -19.509600
N -11.865200 -17.239100 -22.122100
H -11.155900 -19.613500 -26.544500
H -11.142300 -18.070000 -26.612700
N -11.032300 -18.801700 -26.114500
N -10.719700 -16.849600 -19.531900
C -10.600800 -18.817900 -24.844500
C -10.559400 -17.293100 -21.977000
O -10.437200 -19.846100 -24.184800
N -10.425500 -17.553400 -24.305300
H -10.279500 -16.940600 -24.854400
O -10.185000 -16.249900 -18.592800
C -9.952700 -17.171600 -20.673200
N -9.794400 -17.453100 -23.071600
H -8.900300 -17.442600 -22.958100
N -8.568700 -17.320500 -20.451900
O -8.124400 -17.537300 -19.326800
O -7.816000 -17.289800 -21.443900
H -5.645900 -17.204100 -21.374800
H -5.523600 -17.279400 -22.921300
O -5.125500 -17.152900 -19.509600
N -5.071100 -17.239100 -22.122100
H -4.361800 -19.613500 -26.544500
H -4.348200 -18.070000 -26.612700
N -4.238200 -18.801700 -26.114500
N -3.925600 -16.849600 -19.531900
C -3.806700 -18.817900 -24.844500
C -3.765300 -17.293100 -21.977000
O -3.643100 -19.846100 -24.184800
N -3.631400 -17.553400 -24.305300
H -3.485400 -16.940600 -24.854400
O -3.390900 -16.249900 -18.592800
C -3.158600 -17.171600 -20.673200
N -3.000300 -17.453100 -23.071600
H -2.106200 -17.442600 -22.958100
N -1.774600 -17.320500 -20.451900
O -1.330300 -17.537300 -19.326800
O -1.021900 -17.289800 -21.443900
