38
Fragment
O -20.441800 -19.214700 -25.769000
H -19.913200 -15.712600 -20.266900
H -19.840800 -17.414800 -21.879700
C -19.463400 -19.289100 -24.994000
H -19.450400 -17.363600 -24.462500
C -19.108300 -15.868300 -20.766200
H -19.073700 -21.229100 -25.309800
C -19.072100 -16.860200 -21.729600
N -19.002500 -18.205400 -24.348000
N -18.814700 -20.455900 -24.803100
H -18.544400 -19.723500 -22.271600
H -18.540700 -19.321300 -17.879800
H -18.495300 -19.094700 -20.202700
H -18.026100 -14.428000 -19.845800
C -18.014000 -15.080600 -20.550000
C -17.929900 -17.078400 -22.476800
O -17.859100 -21.931500 -23.275800
C -17.833600 -18.197700 -23.479400
C -17.764900 -19.604500 -18.369100
C -17.754600 -19.578000 -22.796700
C -17.734300 -19.449200 -19.737000
C -17.712700 -20.668600 -23.880200
H -17.207200 -22.226100 -22.634700
H -17.039600 -18.080900 -24.005600
C -16.895900 -15.255700 -21.316200
H -16.871600 -20.634500 -24.342300
C -16.843800 -16.247300 -22.273200
H -16.728800 -20.267500 -16.751900
C -16.681900 -20.138600 -17.701500
C -16.610000 -19.824600 -20.452600
C -16.507000 -19.705100 -21.929300
H -16.142000 -14.675400 -21.184500
H -16.062300 -16.362800 -22.818800
C -15.569500 -20.511400 -18.410800
C -15.528800 -20.341300 -19.764900
O -15.423300 -19.750000 -22.475500
H -14.810900 -20.872200 -17.944900
H -14.743000 -20.583000 -20.260500
38
Fragment
H -23.955400 -11.440500 -17.668600
H -23.887500 -11.151400 -19.984200
O -23.275100 -12.273500 -15.453600
C -23.169600 -11.682300 -18.164200
C -23.128900 -11.512100 -19.518300
H -22.636100 -15.660800 -15.110300
H -22.556400 -17.348200 -16.744600
C -22.191400 -12.318500 -15.999800
C -22.088400 -12.199000 -17.476500
C -22.016500 -11.884900 -20.227600
H -21.969600 -11.756100 -21.177200
C -21.854600 -15.776200 -15.655900
H -21.826800 -11.389000 -13.586800
C -21.802500 -16.767800 -16.612900
H -21.658800 -13.942600 -13.923500
H -21.491300 -9.797400 -15.294400
C -20.985700 -11.355000 -14.048900
C -20.964100 -12.574400 -18.192100
C -20.943800 -12.445600 -15.132400
C -20.933500 -12.419100 -19.560000
C -20.864800 -13.825900 -14.449700
O -20.839300 -10.092000 -14.653300
C -20.768500 -14.945200 -15.452300
C -20.684400 -16.942900 -17.379100
H -20.672300 -17.595500 -18.083300
H -20.203100 -12.928900 -17.726400
H -20.157700 -12.702200 -20.049300
H -20.154000 -12.300000 -15.657500
N -19.883800 -11.567600 -13.126000
N -19.695900 -13.818200 -13.581100
C -19.626300 -15.163400 -16.199500
H -19.624700 -10.794400 -12.619300
C -19.590100 -16.155300 -17.162900
H -19.248100 -14.660000 -13.466600
C -19.235000 -12.734500 -12.935100
H -18.857600 -14.608700 -16.049400
H -18.785200 -16.310900 -17.662200
O -18.256600 -12.808900 -12.160100
76
Fragment
O -20.441800 -19.214700 -25.769000
H -19.913200 -15.712600 -20.266900
H -19.840800 -17.414800 -21.879700
C -19.463400 -19.289100 -24.994000
H -19.450400 -17.363600 -24.462500
C -19.108300 -15.868300 -20.766200
H -19.073700 -21.229100 -25.309800
C -19.072100 -16.860200 -21.729600
N -19.002500 -18.205400 -24.348000
N -18.814700 -20.455900 -24.803100
H -18.544400 -19.723500 -22.271600
H -18.540700 -19.321300 -17.879800
H -18.495300 -19.094700 -20.202700
H -18.026100 -14.428000 -19.845800
C -18.014000 -15.080600 -20.550000
C -17.929900 -17.078400 -22.476800
O -17.859100 -21.931500 -23.275800
C -17.833600 -18.197700 -23.479400
C -17.764900 -19.604500 -18.369100
C -17.754600 -19.578000 -22.796700
C -17.734300 -19.449200 -19.737000
C -17.712700 -20.668600 -23.880200
H -17.207200 -22.226100 -22.634700
H -17.039600 -18.080900 -24.005600
C -16.895900 -15.255700 -21.316200
H -16.871600 -20.634500 -24.342300
C -16.843800 -16.247300 -22.273200
H -16.728800 -20.267500 -16.751900
C -16.681900 -20.138600 -17.701500
C -16.610000 -19.824600 -20.452600
C -16.507000 -19.705100 -21.929300
H -16.142000 -14.675400 -21.184500
H -16.062300 -16.362800 -22.818800
C -15.569500 -20.511400 -18.410800
C -15.528800 -20.341300 -19.764900
O -15.423300 -19.750000 -22.475500
H -14.810900 -20.872200 -17.944900
H -14.743000 -20.583000 -20.260500
H -23.955400 -11.440500 -17.668600
H -23.887500 -11.151400 -19.984200
O -23.275100 -12.273500 -15.453600
C -23.169600 -11.682300 -18.164200
C -23.128900 -11.512100 -19.518300
H -22.636100 -15.660800 -15.110300
H -22.556400 -17.348200 -16.744600
C -22.191400 -12.318500 -15.999800
C -22.088400 -12.199000 -17.476500
C -22.016500 -11.884900 -20.227600
H -21.969600 -11.756100 -21.177200
C -21.854600 -15.776200 -15.655900
H -21.826800 -11.389000 -13.586800
C -21.802500 -16.767800 -16.612900
H -21.658800 -13.942600 -13.923500
H -21.491300 -9.797400 -15.294400
C -20.985700 -11.355000 -14.048900
C -20.964100 -12.574400 -18.192100
C -20.943800 -12.445600 -15.132400
C -20.933500 -12.419100 -19.560000
C -20.864800 -13.825900 -14.449700
O -20.839300 -10.092000 -14.653300
C -20.768500 -14.945200 -15.452300
C -20.684400 -16.942900 -17.379100
H -20.672300 -17.595500 -18.083300
H -20.203100 -12.928900 -17.726400
H -20.157700 -12.702200 -20.049300
H -20.154000 -12.300000 -15.657500
N -19.883800 -11.567600 -13.126000
N -19.695900 -13.818200 -13.581100
C -19.626300 -15.163400 -16.199500
H -19.624700 -10.794400 -12.619300
C -19.590100 -16.155300 -17.162900
H -19.248100 -14.660000 -13.466600
C -19.235000 -12.734500 -12.935100
H -18.857600 -14.608700 -16.049400
H -18.785200 -16.310900 -17.662200
O -18.256600 -12.808900 -12.160100
