38
Fragment
O -20.441800 -19.214700 -25.769000
H -19.913200 -15.712600 -20.266900
H -19.840800 -17.414800 -21.879700
C -19.463400 -19.289100 -24.994000
H -19.450400 -17.363600 -24.462500
C -19.108300 -15.868300 -20.766200
H -19.073700 -21.229100 -25.309800
C -19.072100 -16.860200 -21.729600
N -19.002500 -18.205400 -24.348000
N -18.814700 -20.455900 -24.803100
H -18.544400 -19.723500 -22.271600
H -18.540700 -19.321300 -17.879800
H -18.495300 -19.094700 -20.202700
H -18.026100 -14.428000 -19.845800
C -18.014000 -15.080600 -20.550000
C -17.929900 -17.078400 -22.476800
O -17.859100 -21.931500 -23.275800
C -17.833600 -18.197700 -23.479400
C -17.764900 -19.604500 -18.369100
C -17.754600 -19.578000 -22.796700
C -17.734300 -19.449200 -19.737000
C -17.712700 -20.668600 -23.880200
H -17.207200 -22.226100 -22.634700
H -17.039600 -18.080900 -24.005600
C -16.895900 -15.255700 -21.316200
H -16.871600 -20.634500 -24.342300
C -16.843800 -16.247300 -22.273200
H -16.728800 -20.267500 -16.751900
C -16.681900 -20.138600 -17.701500
C -16.610000 -19.824600 -20.452600
C -16.507000 -19.705100 -21.929300
H -16.142000 -14.675400 -21.184500
H -16.062300 -16.362800 -22.818800
C -15.569500 -20.511400 -18.410800
C -15.528800 -20.341300 -19.764900
O -15.423300 -19.750000 -22.475500
H -14.810900 -20.872200 -17.944900
H -14.743000 -20.583000 -20.260500
38
Fragment
H -13.190800 -23.032500 -17.668600
H -13.122800 -22.743400 -19.984200
O -12.510400 -23.865500 -15.453600
C -12.404900 -23.274300 -18.164200
C -12.364200 -23.104200 -19.518300
H -11.871400 -27.252800 -15.110300
H -11.791700 -28.940200 -16.744600
C -11.426700 -23.910500 -15.999800
C -11.323700 -23.791000 -17.476500
C -11.251800 -23.476900 -20.227600
H -11.204900 -23.348100 -21.177200
C -11.089900 -27.368200 -15.655900
H -11.062100 -22.981000 -13.586800
C -11.037800 -28.359800 -16.612900
H -10.894100 -25.534600 -13.923500
H -10.726600 -21.389500 -15.294400
C -10.221000 -22.947000 -14.048900
C -10.199400 -24.166400 -18.192100
C -10.179100 -24.037600 -15.132400
C -10.168800 -24.011100 -19.560000
C -10.100100 -25.417900 -14.449700
O -10.074600 -21.684000 -14.653300
C -10.003800 -26.537200 -15.452300
C -9.919700 -28.534900 -17.379100
H -9.907600 -29.187500 -18.083300
H -9.438400 -24.520900 -17.726400
H -9.393000 -24.294300 -20.049300
H -9.389300 -23.892100 -15.657500
N -9.119100 -23.159600 -13.126000
N -8.931200 -25.410200 -13.581100
C -8.861600 -26.755400 -16.199500
H -8.860000 -22.386400 -12.619300
C -8.825400 -27.747300 -17.162900
H -8.483400 -26.252000 -13.466600
C -8.470300 -24.326500 -12.935100
H -8.092900 -26.200700 -16.049400
H -8.020500 -27.902900 -17.662200
O -7.491900 -24.400900 -12.160100
76
Fragment
O -20.441800 -19.214700 -25.769000
H -19.913200 -15.712600 -20.266900
H -19.840800 -17.414800 -21.879700
C -19.463400 -19.289100 -24.994000
H -19.450400 -17.363600 -24.462500
C -19.108300 -15.868300 -20.766200
H -19.073700 -21.229100 -25.309800
C -19.072100 -16.860200 -21.729600
N -19.002500 -18.205400 -24.348000
N -18.814700 -20.455900 -24.803100
H -18.544400 -19.723500 -22.271600
H -18.540700 -19.321300 -17.879800
H -18.495300 -19.094700 -20.202700
H -18.026100 -14.428000 -19.845800
C -18.014000 -15.080600 -20.550000
C -17.929900 -17.078400 -22.476800
O -17.859100 -21.931500 -23.275800
C -17.833600 -18.197700 -23.479400
C -17.764900 -19.604500 -18.369100
C -17.754600 -19.578000 -22.796700
C -17.734300 -19.449200 -19.737000
C -17.712700 -20.668600 -23.880200
H -17.207200 -22.226100 -22.634700
H -17.039600 -18.080900 -24.005600
C -16.895900 -15.255700 -21.316200
H -16.871600 -20.634500 -24.342300
C -16.843800 -16.247300 -22.273200
H -16.728800 -20.267500 -16.751900
C -16.681900 -20.138600 -17.701500
C -16.610000 -19.824600 -20.452600
C -16.507000 -19.705100 -21.929300
H -16.142000 -14.675400 -21.184500
H -16.062300 -16.362800 -22.818800
C -15.569500 -20.511400 -18.410800
C -15.528800 -20.341300 -19.764900
O -15.423300 -19.750000 -22.475500
H -14.810900 -20.872200 -17.944900
H -14.743000 -20.583000 -20.260500
H -13.190800 -23.032500 -17.668600
H -13.122800 -22.743400 -19.984200
O -12.510400 -23.865500 -15.453600
C -12.404900 -23.274300 -18.164200
C -12.364200 -23.104200 -19.518300
H -11.871400 -27.252800 -15.110300
H -11.791700 -28.940200 -16.744600
C -11.426700 -23.910500 -15.999800
C -11.323700 -23.791000 -17.476500
C -11.251800 -23.476900 -20.227600
H -11.204900 -23.348100 -21.177200
C -11.089900 -27.368200 -15.655900
H -11.062100 -22.981000 -13.586800
C -11.037800 -28.359800 -16.612900
H -10.894100 -25.534600 -13.923500
H -10.726600 -21.389500 -15.294400
C -10.221000 -22.947000 -14.048900
C -10.199400 -24.166400 -18.192100
C -10.179100 -24.037600 -15.132400
C -10.168800 -24.011100 -19.560000
C -10.100100 -25.417900 -14.449700
O -10.074600 -21.684000 -14.653300
C -10.003800 -26.537200 -15.452300
C -9.919700 -28.534900 -17.379100
H -9.907600 -29.187500 -18.083300
H -9.438400 -24.520900 -17.726400
H -9.393000 -24.294300 -20.049300
H -9.389300 -23.892100 -15.657500
N -9.119100 -23.159600 -13.126000
N -8.931200 -25.410200 -13.581100
C -8.861600 -26.755400 -16.199500
H -8.860000 -22.386400 -12.619300
C -8.825400 -27.747300 -17.162900
H -8.483400 -26.252000 -13.466600
C -8.470300 -24.326500 -12.935100
H -8.092900 -26.200700 -16.049400
H -8.020500 -27.902900 -17.662200
O -7.491900 -24.400900 -12.160100
