18
Fragment
H -19.377900 -7.719900 -26.504200
H -19.032000 -10.357400 -26.178000
C -18.503100 -7.701500 -26.191300
N -18.488300 -10.129600 -25.550400
H -18.161800 -5.751500 -26.540400
C -17.908100 -8.848600 -25.707200
C -17.780700 -6.530500 -26.202800
H -17.647600 -11.747500 -24.699600
C -17.395000 -11.059200 -25.334800
H -17.132300 -11.481400 -26.168500
C -16.595300 -8.827900 -25.229700
C -16.496300 -6.514600 -25.718300
C -16.274500 -10.213200 -24.789300
H -16.242700 -10.268200 -23.820200
H -16.020800 -5.714800 -25.722100
C -15.880900 -7.668100 -25.216600
H -15.420200 -10.500000 -25.147900
H -15.012900 -7.643400 -24.884600
18
Fragment
H -13.689900 -4.229100 -26.504200
H -13.344000 -1.591600 -26.178000
C -12.815100 -4.247500 -26.191300
N -12.800300 -1.819400 -25.550400
H -12.473800 -6.197500 -26.540400
C -12.220100 -3.100400 -25.707200
C -12.092700 -5.418500 -26.202800
H -11.959600 -0.201500 -24.699600
C -11.707000 -0.889800 -25.334800
H -11.444300 -0.467600 -26.168500
C -10.907300 -3.121100 -25.229700
C -10.808300 -5.434400 -25.718300
C -10.586500 -1.735800 -24.789300
H -10.554700 -1.680800 -23.820200
H -10.332800 -6.234200 -25.722100
C -10.192900 -4.280900 -25.216600
H -9.732200 -1.449000 -25.147900
H -9.324900 -4.305600 -24.884600
36
Fragment
H -19.377900 -7.719900 -26.504200
H -19.032000 -10.357400 -26.178000
C -18.503100 -7.701500 -26.191300
N -18.488300 -10.129600 -25.550400
H -18.161800 -5.751500 -26.540400
C -17.908100 -8.848600 -25.707200
C -17.780700 -6.530500 -26.202800
H -17.647600 -11.747500 -24.699600
C -17.395000 -11.059200 -25.334800
H -17.132300 -11.481400 -26.168500
C -16.595300 -8.827900 -25.229700
C -16.496300 -6.514600 -25.718300
C -16.274500 -10.213200 -24.789300
H -16.242700 -10.268200 -23.820200
H -16.020800 -5.714800 -25.722100
C -15.880900 -7.668100 -25.216600
H -15.420200 -10.500000 -25.147900
H -15.012900 -7.643400 -24.884600
H -13.689900 -4.229100 -26.504200
H -13.344000 -1.591600 -26.178000
C -12.815100 -4.247500 -26.191300
N -12.800300 -1.819400 -25.550400
H -12.473800 -6.197500 -26.540400
C -12.220100 -3.100400 -25.707200
C -12.092700 -5.418500 -26.202800
H -11.959600 -0.201500 -24.699600
C -11.707000 -0.889800 -25.334800
H -11.444300 -0.467600 -26.168500
C -10.907300 -3.121100 -25.229700
C -10.808300 -5.434400 -25.718300
C -10.586500 -1.735800 -24.789300
H -10.554700 -1.680800 -23.820200
H -10.332800 -6.234200 -25.722100
C -10.192900 -4.280900 -25.216600
H -9.732200 -1.449000 -25.147900
H -9.324900 -4.305600 -24.884600
