18
Fragment
H -19.377900 -7.719900 -26.504200
H -19.032000 -10.357400 -26.178000
C -18.503100 -7.701500 -26.191300
N -18.488300 -10.129600 -25.550400
H -18.161800 -5.751500 -26.540400
C -17.908100 -8.848600 -25.707200
C -17.780700 -6.530500 -26.202800
H -17.647600 -11.747500 -24.699600
C -17.395000 -11.059200 -25.334800
H -17.132300 -11.481400 -26.168500
C -16.595300 -8.827900 -25.229700
C -16.496300 -6.514600 -25.718300
C -16.274500 -10.213200 -24.789300
H -16.242700 -10.268200 -23.820200
H -16.020800 -5.714800 -25.722100
C -15.880900 -7.668100 -25.216600
H -15.420200 -10.500000 -25.147900
H -15.012900 -7.643400 -24.884600
28
Fragment
O -20.314100 -15.484300 -22.879800
O -20.275400 -18.395100 -21.937600
O -20.074100 -18.560800 -19.789400
O -19.996700 -15.745600 -18.622000
N -19.754400 -18.101900 -20.880600
O -19.367600 -13.535000 -22.761500
N -19.356300 -14.758600 -22.687100
N -19.063900 -14.991200 -18.820200
O -19.057100 -13.787600 -18.598100
N -18.727200 -17.181100 -20.899300
H -18.673700 -17.195400 -22.893100
H -18.357500 -17.443900 -18.952000
N -18.170900 -15.341700 -22.350800
C -18.162900 -16.785200 -22.177400
C -17.960400 -16.945300 -19.683400
N -17.926300 -15.535300 -19.339200
O -17.297200 -11.864600 -21.759000
H -17.250600 -17.110200 -22.238800
N -17.115200 -12.482700 -20.724200
H -17.053800 -17.267100 -19.808500
O -17.033300 -12.000800 -19.612000
C -17.015100 -14.494900 -22.137700
H -17.002600 -13.803500 -22.818700
N -16.987800 -13.866400 -20.832500
C -16.805800 -14.657400 -19.627300
H -16.674900 -14.058400 -18.875700
H -16.211900 -15.027900 -22.244500
H -16.002600 -15.192800 -19.722700
46
Fragment
H -19.377900 -7.719900 -26.504200
H -19.032000 -10.357400 -26.178000
C -18.503100 -7.701500 -26.191300
N -18.488300 -10.129600 -25.550400
H -18.161800 -5.751500 -26.540400
C -17.908100 -8.848600 -25.707200
C -17.780700 -6.530500 -26.202800
H -17.647600 -11.747500 -24.699600
C -17.395000 -11.059200 -25.334800
H -17.132300 -11.481400 -26.168500
C -16.595300 -8.827900 -25.229700
C -16.496300 -6.514600 -25.718300
C -16.274500 -10.213200 -24.789300
H -16.242700 -10.268200 -23.820200
H -16.020800 -5.714800 -25.722100
C -15.880900 -7.668100 -25.216600
H -15.420200 -10.500000 -25.147900
H -15.012900 -7.643400 -24.884600
O -20.314100 -15.484300 -22.879800
O -20.275400 -18.395100 -21.937600
O -20.074100 -18.560800 -19.789400
O -19.996700 -15.745600 -18.622000
N -19.754400 -18.101900 -20.880600
O -19.367600 -13.535000 -22.761500
N -19.356300 -14.758600 -22.687100
N -19.063900 -14.991200 -18.820200
O -19.057100 -13.787600 -18.598100
N -18.727200 -17.181100 -20.899300
H -18.673700 -17.195400 -22.893100
H -18.357500 -17.443900 -18.952000
N -18.170900 -15.341700 -22.350800
C -18.162900 -16.785200 -22.177400
C -17.960400 -16.945300 -19.683400
N -17.926300 -15.535300 -19.339200
O -17.297200 -11.864600 -21.759000
H -17.250600 -17.110200 -22.238800
N -17.115200 -12.482700 -20.724200
H -17.053800 -17.267100 -19.808500
O -17.033300 -12.000800 -19.612000
C -17.015100 -14.494900 -22.137700
H -17.002600 -13.803500 -22.818700
N -16.987800 -13.866400 -20.832500
C -16.805800 -14.657400 -19.627300
H -16.674900 -14.058400 -18.875700
H -16.211900 -15.027900 -22.244500
H -16.002600 -15.192800 -19.722700
