18
Fragment
H -19.377900 -7.719900 -26.504200
H -19.032000 -10.357400 -26.178000
C -18.503100 -7.701500 -26.191300
N -18.488300 -10.129600 -25.550400
H -18.161800 -5.751500 -26.540400
C -17.908100 -8.848600 -25.707200
C -17.780700 -6.530500 -26.202800
H -17.647600 -11.747500 -24.699600
C -17.395000 -11.059200 -25.334800
H -17.132300 -11.481400 -26.168500
C -16.595300 -8.827900 -25.229700
C -16.496300 -6.514600 -25.718300
C -16.274500 -10.213200 -24.789300
H -16.242700 -10.268200 -23.820200
H -16.020800 -5.714800 -25.722100
C -15.880900 -7.668100 -25.216600
H -15.420200 -10.500000 -25.147900
H -15.012900 -7.643400 -24.884600
28
Fragment
H -18.125400 -8.705200 -29.260700
H -17.916100 -8.870100 -31.782500
H -17.453100 -9.839600 -28.413700
C -17.322200 -9.240600 -29.165300
N -17.140200 -10.031600 -30.370500
H -17.125400 -10.094500 -32.356700
C -17.112900 -9.403100 -31.675700
O -17.094700 -11.897200 -29.150000
H -17.074200 -6.630900 -29.346500
N -17.012800 -11.415300 -30.262200
H -16.877400 -6.787800 -31.776800
O -16.830800 -12.033400 -31.297000
N -16.201700 -8.362700 -28.877200
C -16.167600 -6.952700 -29.221400
C -15.965100 -7.112800 -31.715400
N -15.957100 -8.556300 -31.888800
H -15.770500 -6.454100 -28.490000
H -15.454300 -6.702600 -32.431100
N -15.400800 -6.716900 -30.437300
O -15.070900 -10.110400 -28.136100
N -15.064100 -8.906800 -28.358200
N -14.771700 -9.139400 -32.225100
O -14.760400 -10.363000 -32.299500
N -14.373600 -5.796100 -30.418600
O -14.131300 -8.152400 -28.160000
O -14.053900 -5.337200 -29.327400
O -13.852600 -5.502900 -31.475600
O -13.813900 -8.413700 -32.417800
46
Fragment
H -19.377900 -7.719900 -26.504200
H -19.032000 -10.357400 -26.178000
C -18.503100 -7.701500 -26.191300
N -18.488300 -10.129600 -25.550400
H -18.161800 -5.751500 -26.540400
C -17.908100 -8.848600 -25.707200
C -17.780700 -6.530500 -26.202800
H -17.647600 -11.747500 -24.699600
C -17.395000 -11.059200 -25.334800
H -17.132300 -11.481400 -26.168500
C -16.595300 -8.827900 -25.229700
C -16.496300 -6.514600 -25.718300
C -16.274500 -10.213200 -24.789300
H -16.242700 -10.268200 -23.820200
H -16.020800 -5.714800 -25.722100
C -15.880900 -7.668100 -25.216600
H -15.420200 -10.500000 -25.147900
H -15.012900 -7.643400 -24.884600
H -18.125400 -8.705200 -29.260700
H -17.916100 -8.870100 -31.782500
H -17.453100 -9.839600 -28.413700
C -17.322200 -9.240600 -29.165300
N -17.140200 -10.031600 -30.370500
H -17.125400 -10.094500 -32.356700
C -17.112900 -9.403100 -31.675700
O -17.094700 -11.897200 -29.150000
H -17.074200 -6.630900 -29.346500
N -17.012800 -11.415300 -30.262200
H -16.877400 -6.787800 -31.776800
O -16.830800 -12.033400 -31.297000
N -16.201700 -8.362700 -28.877200
C -16.167600 -6.952700 -29.221400
C -15.965100 -7.112800 -31.715400
N -15.957100 -8.556300 -31.888800
H -15.770500 -6.454100 -28.490000
H -15.454300 -6.702600 -32.431100
N -15.400800 -6.716900 -30.437300
O -15.070900 -10.110400 -28.136100
N -15.064100 -8.906800 -28.358200
N -14.771700 -9.139400 -32.225100
O -14.760400 -10.363000 -32.299500
N -14.373600 -5.796100 -30.418600
O -14.131300 -8.152400 -28.160000
O -14.053900 -5.337200 -29.327400
O -13.852600 -5.502900 -31.475600
O -13.813900 -8.413700 -32.417800
