18
Fragment
H -19.377900 -7.719900 -26.504200
H -19.032000 -10.357400 -26.178000
C -18.503100 -7.701500 -26.191300
N -18.488300 -10.129600 -25.550400
H -18.161800 -5.751500 -26.540400
C -17.908100 -8.848600 -25.707200
C -17.780700 -6.530500 -26.202800
H -17.647600 -11.747500 -24.699600
C -17.395000 -11.059200 -25.334800
H -17.132300 -11.481400 -26.168500
C -16.595300 -8.827900 -25.229700
C -16.496300 -6.514600 -25.718300
C -16.274500 -10.213200 -24.789300
H -16.242700 -10.268200 -23.820200
H -16.020800 -5.714800 -25.722100
C -15.880900 -7.668100 -25.216600
H -15.420200 -10.500000 -25.147900
H -15.012900 -7.643400 -24.884600
28
Fragment
O -14.626100 -12.396700 -22.879800
O -14.587400 -9.485900 -21.937600
O -14.386100 -9.320200 -19.789400
O -14.308700 -12.135400 -18.622000
N -14.066400 -9.779100 -20.880600
O -13.679600 -14.346000 -22.761500
N -13.668300 -13.122400 -22.687100
N -13.375900 -12.889800 -18.820200
O -13.369100 -14.093400 -18.598100
N -13.039200 -10.699900 -20.899300
H -12.985700 -10.685600 -22.893100
H -12.669500 -10.437100 -18.952000
N -12.482900 -12.539300 -22.350800
C -12.474900 -11.095800 -22.177400
C -12.272400 -10.935700 -19.683400
N -12.238300 -12.345700 -19.339200
O -11.609200 -16.016400 -21.759000
H -11.562600 -10.770800 -22.238800
N -11.427200 -15.398300 -20.724200
H -11.365800 -10.613900 -19.808500
O -11.345300 -15.880200 -19.612000
C -11.327100 -13.386100 -22.137700
H -11.314600 -14.077500 -22.818700
N -11.299800 -14.014600 -20.832500
C -11.117800 -13.223600 -19.627300
H -10.986900 -13.822600 -18.875700
H -10.523900 -12.853100 -22.244500
H -10.314600 -12.688200 -19.722700
46
Fragment
H -19.377900 -7.719900 -26.504200
H -19.032000 -10.357400 -26.178000
C -18.503100 -7.701500 -26.191300
N -18.488300 -10.129600 -25.550400
H -18.161800 -5.751500 -26.540400
C -17.908100 -8.848600 -25.707200
C -17.780700 -6.530500 -26.202800
H -17.647600 -11.747500 -24.699600
C -17.395000 -11.059200 -25.334800
H -17.132300 -11.481400 -26.168500
C -16.595300 -8.827900 -25.229700
C -16.496300 -6.514600 -25.718300
C -16.274500 -10.213200 -24.789300
H -16.242700 -10.268200 -23.820200
H -16.020800 -5.714800 -25.722100
C -15.880900 -7.668100 -25.216600
H -15.420200 -10.500000 -25.147900
H -15.012900 -7.643400 -24.884600
O -14.626100 -12.396700 -22.879800
O -14.587400 -9.485900 -21.937600
O -14.386100 -9.320200 -19.789400
O -14.308700 -12.135400 -18.622000
N -14.066400 -9.779100 -20.880600
O -13.679600 -14.346000 -22.761500
N -13.668300 -13.122400 -22.687100
N -13.375900 -12.889800 -18.820200
O -13.369100 -14.093400 -18.598100
N -13.039200 -10.699900 -20.899300
H -12.985700 -10.685600 -22.893100
H -12.669500 -10.437100 -18.952000
N -12.482900 -12.539300 -22.350800
C -12.474900 -11.095800 -22.177400
C -12.272400 -10.935700 -19.683400
N -12.238300 -12.345700 -19.339200
O -11.609200 -16.016400 -21.759000
H -11.562600 -10.770800 -22.238800
N -11.427200 -15.398300 -20.724200
H -11.365800 -10.613900 -19.808500
O -11.345300 -15.880200 -19.612000
C -11.327100 -13.386100 -22.137700
H -11.314600 -14.077500 -22.818700
N -11.299800 -14.014600 -20.832500
C -11.117800 -13.223600 -19.627300
H -10.986900 -13.822600 -18.875700
H -10.523900 -12.853100 -22.244500
H -10.314600 -12.688200 -19.722700
