3
Fragment
O -15.205200 -12.467500 -33.561700
H -14.761300 -11.825900 -33.834200
H -14.647400 -13.012600 -33.373300
15
Fragment
O -18.457700 -8.725000 -36.938200
H -18.420900 -12.316900 -35.028000
N -18.271200 -9.909200 -36.253600
N -17.742400 -8.706100 -38.105900
N -17.730200 -12.573100 -35.513700
C -17.430700 -10.601600 -36.969400
O -17.344900 -14.639000 -34.505300
C -17.116400 -9.838000 -38.122800
C -17.101500 -13.753200 -35.296900
C -17.035900 -11.928200 -36.492300
O -16.483400 -9.612100 -40.309000
N -16.226900 -10.133400 -39.239500
O -16.066700 -13.804000 -36.175600
N -16.030800 -12.600100 -36.939800
O -15.291800 -10.874900 -39.014500
18
Fragment
O -15.205200 -12.467500 -33.561700
H -14.761300 -11.825900 -33.834200
H -14.647400 -13.012600 -33.373300
O -18.457700 -8.725000 -36.938200
H -18.420900 -12.316900 -35.028000
N -18.271200 -9.909200 -36.253600
N -17.742400 -8.706100 -38.105900
N -17.730200 -12.573100 -35.513700
C -17.430700 -10.601600 -36.969400
O -17.344900 -14.639000 -34.505300
C -17.116400 -9.838000 -38.122800
C -17.101500 -13.753200 -35.296900
C -17.035900 -11.928200 -36.492300
O -16.483400 -9.612100 -40.309000
N -16.226900 -10.133400 -39.239500
O -16.066700 -13.804000 -36.175600
N -16.030800 -12.600100 -36.939800
O -15.291800 -10.874900 -39.014500
