3
Fragment
O -15.205200 -12.467500 -33.561700
H -14.761300 -11.825900 -33.834200
H -14.647400 -13.012600 -33.373300
15
Fragment
O -14.080100 -19.919000 -30.509900
H -14.043300 -16.327100 -32.420100
N -13.893600 -18.734800 -31.194500
N -13.364800 -19.937900 -29.342200
N -13.352600 -16.070900 -31.934400
C -13.053100 -18.042400 -30.478700
O -12.967300 -14.005000 -32.942800
C -12.738800 -18.806000 -29.325300
C -12.723900 -14.890800 -32.151200
C -12.658300 -16.715800 -30.955800
O -12.105800 -19.031900 -27.139100
N -11.849300 -18.510600 -28.208600
O -11.689100 -14.840000 -31.272500
N -11.653200 -16.043900 -30.508300
O -10.914200 -17.769100 -28.433600
18
Fragment
O -15.205200 -12.467500 -33.561700
H -14.761300 -11.825900 -33.834200
H -14.647400 -13.012600 -33.373300
O -14.080100 -19.919000 -30.509900
H -14.043300 -16.327100 -32.420100
N -13.893600 -18.734800 -31.194500
N -13.364800 -19.937900 -29.342200
N -13.352600 -16.070900 -31.934400
C -13.053100 -18.042400 -30.478700
O -12.967300 -14.005000 -32.942800
C -12.738800 -18.806000 -29.325300
C -12.723900 -14.890800 -32.151200
C -12.658300 -16.715800 -30.955800
O -12.105800 -19.031900 -27.139100
N -11.849300 -18.510600 -28.208600
O -11.689100 -14.840000 -31.272500
N -11.653200 -16.043900 -30.508300
O -10.914200 -17.769100 -28.433600
