20
Fragment
H -3.816200 -5.915500 -14.120300
H -3.609500 -1.882200 -16.921000
N -3.592000 -4.452600 -15.693100
N -3.581000 -5.730200 -15.177400
O -3.559200 -8.035100 -13.934900
N -3.416100 -2.252100 -17.666700
N -3.366100 -8.608600 -15.008000
C -3.345400 -4.624100 -16.958300
C -3.332000 -6.631200 -16.127500
O -3.287200 -9.877500 -15.068700
N -3.265100 -1.526600 -18.792500
C -3.258100 -3.560700 -17.943300
N -3.233200 -7.983200 -16.167800
N -3.179900 -5.937600 -17.287200
C -3.025300 -2.470900 -19.672700
H -3.014900 -6.345400 -18.158000
N -3.008700 -3.744400 -19.226600
O -2.847300 -0.928100 -21.357500
N -2.804700 -2.123200 -21.054400
O -2.583800 -3.033700 -21.847100
20
Fragment
O -0.518700 -9.775000 -13.161900
N -0.297800 -10.685600 -13.954600
O -0.255200 -11.880600 -13.651500
N -0.093700 -9.064300 -15.782400
H -0.087600 -6.463300 -16.851000
C -0.077200 -10.337800 -15.336300
N 0.077400 -6.871100 -17.721800
N 0.130800 -4.825600 -18.841100
C 0.155700 -9.248000 -17.065700
N 0.162600 -11.282100 -16.216500
O 0.184700 -2.931300 -19.940300
C 0.229500 -6.177600 -18.881500
C 0.242900 -8.184600 -18.050600
N 0.263600 -4.200100 -20.001000
N 0.313600 -10.556600 -17.342300
O 0.456700 -4.773600 -21.074100
N 0.478500 -7.078600 -19.831500
N 0.489500 -8.356100 -19.315900
H 0.507000 -10.926500 -18.088000
H 0.713800 -6.893200 -20.888700
40
Fragment
H -3.816200 -5.915500 -14.120300
H -3.609500 -1.882200 -16.921000
N -3.592000 -4.452600 -15.693100
N -3.581000 -5.730200 -15.177400
O -3.559200 -8.035100 -13.934900
N -3.416100 -2.252100 -17.666700
N -3.366100 -8.608600 -15.008000
C -3.345400 -4.624100 -16.958300
C -3.332000 -6.631200 -16.127500
O -3.287200 -9.877500 -15.068700
N -3.265100 -1.526600 -18.792500
C -3.258100 -3.560700 -17.943300
N -3.233200 -7.983200 -16.167800
N -3.179900 -5.937600 -17.287200
C -3.025300 -2.470900 -19.672700
H -3.014900 -6.345400 -18.158000
N -3.008700 -3.744400 -19.226600
O -2.847300 -0.928100 -21.357500
N -2.804700 -2.123200 -21.054400
O -2.583800 -3.033700 -21.847100
O -0.518700 -9.775000 -13.161900
N -0.297800 -10.685600 -13.954600
O -0.255200 -11.880600 -13.651500
N -0.093700 -9.064300 -15.782400
H -0.087600 -6.463300 -16.851000
C -0.077200 -10.337800 -15.336300
N 0.077400 -6.871100 -17.721800
N 0.130800 -4.825600 -18.841100
C 0.155700 -9.248000 -17.065700
N 0.162600 -11.282100 -16.216500
O 0.184700 -2.931300 -19.940300
C 0.229500 -6.177600 -18.881500
C 0.242900 -8.184600 -18.050600
N 0.263600 -4.200100 -20.001000
N 0.313600 -10.556600 -17.342300
O 0.456700 -4.773600 -21.074100
N 0.478500 -7.078600 -19.831500
N 0.489500 -8.356100 -19.315900
H 0.507000 -10.926500 -18.088000
H 0.713800 -6.893200 -20.888700
