20
Fragment
H -3.816200 -5.915500 -14.120300
H -3.609500 -1.882200 -16.921000
N -3.592000 -4.452600 -15.693100
N -3.581000 -5.730200 -15.177400
O -3.559200 -8.035100 -13.934900
N -3.416100 -2.252100 -17.666700
N -3.366100 -8.608600 -15.008000
C -3.345400 -4.624100 -16.958300
C -3.332000 -6.631200 -16.127500
O -3.287200 -9.877500 -15.068700
N -3.265100 -1.526600 -18.792500
C -3.258100 -3.560700 -17.943300
N -3.233200 -7.983200 -16.167800
N -3.179900 -5.937600 -17.287200
C -3.025300 -2.470900 -19.672700
H -3.014900 -6.345400 -18.158000
N -3.008700 -3.744400 -19.226600
O -2.847300 -0.928100 -21.357500
N -2.804700 -2.123200 -21.054400
O -2.583800 -3.033700 -21.847100
20
Fragment
H -4.415000 2.599700 -14.120300
H -4.208200 6.633000 -16.921000
N -4.190700 4.062600 -15.693100
N -4.179700 2.785000 -15.177400
O -4.157900 0.480000 -13.934900
N -4.014800 6.263100 -17.666700
N -3.964800 -0.093500 -15.008000
C -3.944100 3.891000 -16.958300
C -3.930700 1.884000 -16.127500
O -3.885900 -1.362300 -15.068700
N -3.863900 6.988600 -18.792500
C -3.856900 4.954400 -17.943300
N -3.832000 0.532000 -16.167800
N -3.778600 2.577600 -17.287200
C -3.624000 6.044300 -19.672700
H -3.613600 2.169800 -18.158000
N -3.607500 4.770800 -19.226600
O -3.446000 7.587100 -21.357500
N -3.403400 6.392000 -21.054400
O -3.182500 5.481500 -21.847100
40
Fragment
H -3.816200 -5.915500 -14.120300
H -3.609500 -1.882200 -16.921000
N -3.592000 -4.452600 -15.693100
N -3.581000 -5.730200 -15.177400
O -3.559200 -8.035100 -13.934900
N -3.416100 -2.252100 -17.666700
N -3.366100 -8.608600 -15.008000
C -3.345400 -4.624100 -16.958300
C -3.332000 -6.631200 -16.127500
O -3.287200 -9.877500 -15.068700
N -3.265100 -1.526600 -18.792500
C -3.258100 -3.560700 -17.943300
N -3.233200 -7.983200 -16.167800
N -3.179900 -5.937600 -17.287200
C -3.025300 -2.470900 -19.672700
H -3.014900 -6.345400 -18.158000
N -3.008700 -3.744400 -19.226600
O -2.847300 -0.928100 -21.357500
N -2.804700 -2.123200 -21.054400
O -2.583800 -3.033700 -21.847100
H -4.415000 2.599700 -14.120300
H -4.208200 6.633000 -16.921000
N -4.190700 4.062600 -15.693100
N -4.179700 2.785000 -15.177400
O -4.157900 0.480000 -13.934900
N -4.014800 6.263100 -17.666700
N -3.964800 -0.093500 -15.008000
C -3.944100 3.891000 -16.958300
C -3.930700 1.884000 -16.127500
O -3.885900 -1.362300 -15.068700
N -3.863900 6.988600 -18.792500
C -3.856900 4.954400 -17.943300
N -3.832000 0.532000 -16.167800
N -3.778600 2.577600 -17.287200
C -3.624000 6.044300 -19.672700
H -3.613600 2.169800 -18.158000
N -3.607500 4.770800 -19.226600
O -3.446000 7.587100 -21.357500
N -3.403400 6.392000 -21.054400
O -3.182500 5.481500 -21.847100
