36
Fragment
H -10.861200 -16.623800 -30.168200
O -10.703300 -17.463800 -29.737300
H -10.453700 -19.916800 -27.491200
H -10.194600 -19.588000 -29.035500
N -10.146400 -17.051400 -28.530200
C -10.037900 -19.473100 -28.103000
C -9.843100 -18.034000 -27.780400
H -9.511200 -14.025600 -25.031300
H -9.465800 -15.825100 -26.791100
H -9.289300 -20.014800 -27.907600
C -9.231000 -17.663200 -26.455500
N -9.157300 -16.367600 -26.164200
H -9.109100 -16.187400 -24.166000
H -8.958400 -11.960600 -23.710600
O -8.828100 -18.539600 -25.691600
H -8.619300 -14.153500 -22.877700
C -8.617100 -15.872700 -24.905500
C -8.610500 -14.355900 -24.902500
C -8.079400 -12.288900 -23.582900
C -8.059200 -13.799800 -23.594900
H -8.030500 -14.013600 -25.613000
O -7.816900 -9.611800 -22.844800
H -7.648100 -16.212500 -24.788200
H -7.578500 -11.960600 -24.336100
N -7.492100 -11.771900 -22.351400
C -7.424800 -10.482900 -22.065800
H -7.368800 -8.118800 -20.612300
H -7.211000 -14.120000 -23.454600
H -7.165500 -12.326500 -21.707700
C -6.854000 -10.103900 -20.727000
C -6.637500 -8.664800 -20.416400
N -6.613400 -11.087800 -19.952400
H -6.286100 -8.589900 -19.575200
H -6.180000 -8.194100 -21.083800
O -6.095800 -10.680700 -18.736300
H -5.930800 -11.497900 -18.351700
36
Fragment
H -7.129900 -5.519400 -22.159800
O -6.964800 -4.702200 -21.775300
H -6.880700 -2.215600 -19.427700
H -6.774600 -2.611400 -20.936400
N -6.447300 -5.109300 -20.559100
C -6.423100 -2.686300 -20.095200
C -6.206700 -4.125400 -19.784600
H -5.895100 -6.348000 -18.803900
H -5.849700 -8.141500 -17.057000
H -5.691900 -2.140300 -19.899300
C -5.635900 -4.504400 -18.445700
N -5.568600 -5.793400 -18.160200
H -5.482200 -5.982100 -16.175500
H -5.412500 -10.234000 -15.723400
O -5.243800 -3.633300 -17.666800
H -5.030200 -8.035100 -14.898500
C -5.001400 -7.821300 -16.916700
C -4.981300 -6.310400 -16.928700
C -4.450100 -8.377400 -15.609100
C -4.443500 -9.894200 -15.606000
H -4.441400 -8.175000 -17.633900
O -4.232600 -12.561100 -14.819900
H -4.102300 -5.982100 -16.801000
H -3.951600 -10.208900 -16.345600
N -3.903400 -10.389100 -14.347400
C -3.829700 -11.684700 -14.056100
H -3.771300 -14.036300 -12.604000
H -3.594900 -9.846600 -13.720500
H -3.549400 -8.047100 -15.480300
C -3.217600 -12.055500 -12.731200
C -3.022800 -13.494600 -12.408500
N -2.914300 -11.072900 -11.981400
H -2.866000 -13.609500 -11.476100
H -2.607000 -13.938300 -13.020400
O -2.357400 -11.485300 -10.774300
H -2.199400 -10.645300 -10.343400
72
Fragment
H -10.861200 -16.623800 -30.168200
O -10.703300 -17.463800 -29.737300
H -10.453700 -19.916800 -27.491200
H -10.194600 -19.588000 -29.035500
N -10.146400 -17.051400 -28.530200
C -10.037900 -19.473100 -28.103000
C -9.843100 -18.034000 -27.780400
H -9.511200 -14.025600 -25.031300
H -9.465800 -15.825100 -26.791100
H -9.289300 -20.014800 -27.907600
C -9.231000 -17.663200 -26.455500
N -9.157300 -16.367600 -26.164200
H -9.109100 -16.187400 -24.166000
H -8.958400 -11.960600 -23.710600
O -8.828100 -18.539600 -25.691600
H -8.619300 -14.153500 -22.877700
C -8.617100 -15.872700 -24.905500
C -8.610500 -14.355900 -24.902500
C -8.079400 -12.288900 -23.582900
C -8.059200 -13.799800 -23.594900
H -8.030500 -14.013600 -25.613000
O -7.816900 -9.611800 -22.844800
H -7.648100 -16.212500 -24.788200
H -7.578500 -11.960600 -24.336100
N -7.492100 -11.771900 -22.351400
C -7.424800 -10.482900 -22.065800
H -7.368800 -8.118800 -20.612300
H -7.211000 -14.120000 -23.454600
H -7.165500 -12.326500 -21.707700
C -6.854000 -10.103900 -20.727000
C -6.637500 -8.664800 -20.416400
N -6.613400 -11.087800 -19.952400
H -6.286100 -8.589900 -19.575200
H -6.180000 -8.194100 -21.083800
O -6.095800 -10.680700 -18.736300
H -5.930800 -11.497900 -18.351700
H -7.129900 -5.519400 -22.159800
O -6.964800 -4.702200 -21.775300
H -6.880700 -2.215600 -19.427700
H -6.774600 -2.611400 -20.936400
N -6.447300 -5.109300 -20.559100
C -6.423100 -2.686300 -20.095200
C -6.206700 -4.125400 -19.784600
H -5.895100 -6.348000 -18.803900
H -5.849700 -8.141500 -17.057000
H -5.691900 -2.140300 -19.899300
C -5.635900 -4.504400 -18.445700
N -5.568600 -5.793400 -18.160200
H -5.482200 -5.982100 -16.175500
H -5.412500 -10.234000 -15.723400
O -5.243800 -3.633300 -17.666800
H -5.030200 -8.035100 -14.898500
C -5.001400 -7.821300 -16.916700
C -4.981300 -6.310400 -16.928700
C -4.450100 -8.377400 -15.609100
C -4.443500 -9.894200 -15.606000
H -4.441400 -8.175000 -17.633900
O -4.232600 -12.561100 -14.819900
H -4.102300 -5.982100 -16.801000
H -3.951600 -10.208900 -16.345600
N -3.903400 -10.389100 -14.347400
C -3.829700 -11.684700 -14.056100
H -3.771300 -14.036300 -12.604000
H -3.594900 -9.846600 -13.720500
H -3.549400 -8.047100 -15.480300
C -3.217600 -12.055500 -12.731200
C -3.022800 -13.494600 -12.408500
N -2.914300 -11.072900 -11.981400
H -2.866000 -13.609500 -11.476100
H -2.607000 -13.938300 -13.020400
O -2.357400 -11.485300 -10.774300
H -2.199400 -10.645300 -10.343400
