12
Fragment
H -11.270000 -11.291900 -35.928300
O -11.270000 -10.655900 -35.222000
C -11.270000 -9.399800 -35.663000
N -11.270000 -9.180800 -36.953100
H -11.270000 -8.588000 -33.807500
C -11.270000 -8.356500 -34.697800
N -11.270000 -7.860600 -37.309400
H -11.270000 -7.636100 -38.208900
C -11.270000 -7.099000 -35.094100
C -11.270000 -6.803300 -36.492800
H -11.270000 -6.369500 -34.490100
O -11.270000 -5.637200 -36.972000
15
Fragment
H -8.905900 -10.958600 -37.177000
O -8.050000 -10.798200 -39.729300
C -8.050000 -10.411800 -37.059000
H -8.050000 -9.975200 -36.195400
C -8.050000 -9.631400 -39.354500
N -8.050000 -9.295900 -38.014400
H -8.050000 -8.819600 -41.163000
N -8.050000 -8.595000 -40.227400
C -8.050000 -7.971500 -37.536800
O -8.050000 -7.763700 -36.329600
C -8.050000 -7.295700 -39.827900
C -8.050000 -6.959600 -38.544700
H -8.050000 -6.775400 -40.574000
H -8.050000 -6.017300 -38.304800
H -7.194100 -10.958600 -37.177000
27
Fragment
H -11.270000 -11.291900 -35.928300
O -11.270000 -10.655900 -35.222000
C -11.270000 -9.399800 -35.663000
N -11.270000 -9.180800 -36.953100
H -11.270000 -8.588000 -33.807500
C -11.270000 -8.356500 -34.697800
N -11.270000 -7.860600 -37.309400
H -11.270000 -7.636100 -38.208900
C -11.270000 -7.099000 -35.094100
C -11.270000 -6.803300 -36.492800
H -11.270000 -6.369500 -34.490100
O -11.270000 -5.637200 -36.972000
H -8.905900 -10.958600 -37.177000
O -8.050000 -10.798200 -39.729300
C -8.050000 -10.411800 -37.059000
H -8.050000 -9.975200 -36.195400
C -8.050000 -9.631400 -39.354500
N -8.050000 -9.295900 -38.014400
H -8.050000 -8.819600 -41.163000
N -8.050000 -8.595000 -40.227400
C -8.050000 -7.971500 -37.536800
O -8.050000 -7.763700 -36.329600
C -8.050000 -7.295700 -39.827900
C -8.050000 -6.959600 -38.544700
H -8.050000 -6.775400 -40.574000
H -8.050000 -6.017300 -38.304800
H -7.194100 -10.958600 -37.177000
