12
Fragment
H -11.270000 -11.291900 -35.928300
O -11.270000 -10.655900 -35.222000
C -11.270000 -9.399800 -35.663000
N -11.270000 -9.180800 -36.953100
H -11.270000 -8.588000 -33.807500
C -11.270000 -8.356500 -34.697800
N -11.270000 -7.860600 -37.309400
H -11.270000 -7.636100 -38.208900
C -11.270000 -7.099000 -35.094100
C -11.270000 -6.803300 -36.492800
H -11.270000 -6.369500 -34.490100
O -11.270000 -5.637200 -36.972000
15
Fragment
H -12.125900 -2.989800 -31.310000
H -11.270000 -7.931100 -30.182200
H -11.270000 -7.173000 -27.913000
C -11.270000 -6.988800 -29.942300
C -11.270000 -6.652700 -28.659100
O -11.270000 -6.184700 -32.157400
C -11.270000 -5.976900 -30.950200
N -11.270000 -5.353400 -28.259600
H -11.270000 -5.128800 -27.324000
N -11.270000 -4.652500 -30.472600
C -11.270000 -4.317000 -29.132500
H -11.270000 -3.973200 -32.291600
C -11.270000 -3.536600 -31.428000
O -11.270000 -3.150200 -28.757700
H -10.414100 -2.989800 -31.310000
27
Fragment
H -11.270000 -11.291900 -35.928300
O -11.270000 -10.655900 -35.222000
C -11.270000 -9.399800 -35.663000
N -11.270000 -9.180800 -36.953100
H -11.270000 -8.588000 -33.807500
C -11.270000 -8.356500 -34.697800
N -11.270000 -7.860600 -37.309400
H -11.270000 -7.636100 -38.208900
C -11.270000 -7.099000 -35.094100
C -11.270000 -6.803300 -36.492800
H -11.270000 -6.369500 -34.490100
O -11.270000 -5.637200 -36.972000
H -12.125900 -2.989800 -31.310000
H -11.270000 -7.931100 -30.182200
H -11.270000 -7.173000 -27.913000
C -11.270000 -6.988800 -29.942300
C -11.270000 -6.652700 -28.659100
O -11.270000 -6.184700 -32.157400
C -11.270000 -5.976900 -30.950200
N -11.270000 -5.353400 -28.259600
H -11.270000 -5.128800 -27.324000
N -11.270000 -4.652500 -30.472600
C -11.270000 -4.317000 -29.132500
H -11.270000 -3.973200 -32.291600
C -11.270000 -3.536600 -31.428000
O -11.270000 -3.150200 -28.757700
H -10.414100 -2.989800 -31.310000
