12
Fragment
H -11.270000 -11.291900 -35.928300
O -11.270000 -10.655900 -35.222000
C -11.270000 -9.399800 -35.663000
N -11.270000 -9.180800 -36.953100
H -11.270000 -8.588000 -33.807500
C -11.270000 -8.356500 -34.697800
N -11.270000 -7.860600 -37.309400
H -11.270000 -7.636100 -38.208900
C -11.270000 -7.099000 -35.094100
C -11.270000 -6.803300 -36.492800
H -11.270000 -6.369500 -34.490100
O -11.270000 -5.637200 -36.972000
15
Fragment
H -12.125900 -7.471500 -42.724500
O -11.270000 -7.311100 -40.172200
C -11.270000 -6.924700 -42.842500
H -11.270000 -6.488100 -43.706100
C -11.270000 -6.144300 -40.547000
N -11.270000 -5.808800 -41.887100
H -11.270000 -5.332500 -38.738500
N -11.270000 -5.107900 -39.674100
C -11.270000 -4.484400 -42.364700
O -11.270000 -4.276600 -43.571900
C -11.270000 -3.808600 -40.073600
C -11.270000 -3.472500 -41.356800
H -11.270000 -3.288300 -39.327500
H -11.270000 -2.530200 -41.596700
H -10.414100 -7.471500 -42.724500
27
Fragment
H -11.270000 -11.291900 -35.928300
O -11.270000 -10.655900 -35.222000
C -11.270000 -9.399800 -35.663000
N -11.270000 -9.180800 -36.953100
H -11.270000 -8.588000 -33.807500
C -11.270000 -8.356500 -34.697800
N -11.270000 -7.860600 -37.309400
H -11.270000 -7.636100 -38.208900
C -11.270000 -7.099000 -35.094100
C -11.270000 -6.803300 -36.492800
H -11.270000 -6.369500 -34.490100
O -11.270000 -5.637200 -36.972000
H -12.125900 -7.471500 -42.724500
O -11.270000 -7.311100 -40.172200
C -11.270000 -6.924700 -42.842500
H -11.270000 -6.488100 -43.706100
C -11.270000 -6.144300 -40.547000
N -11.270000 -5.808800 -41.887100
H -11.270000 -5.332500 -38.738500
N -11.270000 -5.107900 -39.674100
C -11.270000 -4.484400 -42.364700
O -11.270000 -4.276600 -43.571900
C -11.270000 -3.808600 -40.073600
C -11.270000 -3.472500 -41.356800
H -11.270000 -3.288300 -39.327500
H -11.270000 -2.530200 -41.596700
H -10.414100 -7.471500 -42.724500
