22
Fragment
H -20.366000 -13.902200 -22.373800
H -19.961100 -14.049400 -24.835600
H -19.590400 -12.528100 -21.503000
C -19.494000 -13.215200 -22.360400
N -19.474100 -12.486100 -23.613100
C -19.154900 -13.292300 -24.777000
H -19.077900 -12.766500 -25.723200
H -18.887600 -15.416500 -23.378700
H -18.574200 -10.950700 -22.541300
C -18.337000 -11.532600 -23.435600
N -18.251400 -13.951300 -22.092500
H -18.239600 -10.943700 -24.333200
C -17.985300 -14.736500 -23.283200
N -17.878400 -14.014400 -24.572700
H -17.296500 -12.394900 -21.067600
H -17.105700 -15.374500 -23.144200
C -17.102300 -12.990800 -21.960200
N -17.028800 -12.226700 -23.204500
C -16.740900 -13.011900 -24.406900
H -16.708200 -12.437000 -25.304500
H -16.180400 -13.537700 -21.787700
H -15.819000 -13.565700 -24.232700
22
Fragment
H -20.366000 -20.912900 -22.373800
H -19.961100 -21.060100 -24.835600
H -19.590400 -19.538800 -21.503000
C -19.494000 -20.225900 -22.360400
N -19.474100 -19.496800 -23.613100
C -19.154900 -20.303000 -24.777000
H -19.077900 -19.777200 -25.723200
H -18.887600 -22.427200 -23.378700
H -18.574200 -17.961400 -22.541300
C -18.337000 -18.543300 -23.435600
N -18.251400 -20.962000 -22.092500
H -18.239600 -17.954400 -24.333200
C -17.985300 -21.747200 -23.283200
N -17.878400 -21.025100 -24.572700
H -17.296500 -19.405600 -21.067600
H -17.105700 -22.385200 -23.144200
C -17.102300 -20.001500 -21.960200
N -17.028800 -19.237400 -23.204500
C -16.740900 -20.022600 -24.406900
H -16.708200 -19.447700 -25.304500
H -16.180400 -20.548400 -21.787700
H -15.819000 -20.576400 -24.232700
44
Fragment
H -20.366000 -13.902200 -22.373800
H -19.961100 -14.049400 -24.835600
H -19.590400 -12.528100 -21.503000
C -19.494000 -13.215200 -22.360400
N -19.474100 -12.486100 -23.613100
C -19.154900 -13.292300 -24.777000
H -19.077900 -12.766500 -25.723200
H -18.887600 -15.416500 -23.378700
H -18.574200 -10.950700 -22.541300
C -18.337000 -11.532600 -23.435600
N -18.251400 -13.951300 -22.092500
H -18.239600 -10.943700 -24.333200
C -17.985300 -14.736500 -23.283200
N -17.878400 -14.014400 -24.572700
H -17.296500 -12.394900 -21.067600
H -17.105700 -15.374500 -23.144200
C -17.102300 -12.990800 -21.960200
N -17.028800 -12.226700 -23.204500
C -16.740900 -13.011900 -24.406900
H -16.708200 -12.437000 -25.304500
H -16.180400 -13.537700 -21.787700
H -15.819000 -13.565700 -24.232700
H -20.366000 -20.912900 -22.373800
H -19.961100 -21.060100 -24.835600
H -19.590400 -19.538800 -21.503000
C -19.494000 -20.225900 -22.360400
N -19.474100 -19.496800 -23.613100
C -19.154900 -20.303000 -24.777000
H -19.077900 -19.777200 -25.723200
H -18.887600 -22.427200 -23.378700
H -18.574200 -17.961400 -22.541300
C -18.337000 -18.543300 -23.435600
N -18.251400 -20.962000 -22.092500
H -18.239600 -17.954400 -24.333200
C -17.985300 -21.747200 -23.283200
N -17.878400 -21.025100 -24.572700
H -17.296500 -19.405600 -21.067600
H -17.105700 -22.385200 -23.144200
C -17.102300 -20.001500 -21.960200
N -17.028800 -19.237400 -23.204500
C -16.740900 -20.022600 -24.406900
H -16.708200 -19.447700 -25.304500
H -16.180400 -20.548400 -21.787700
H -15.819000 -20.576400 -24.232700
