22
Fragment
H -20.366000 -13.902200 -22.373800
H -19.961100 -14.049400 -24.835600
H -19.590400 -12.528100 -21.503000
C -19.494000 -13.215200 -22.360400
N -19.474100 -12.486100 -23.613100
C -19.154900 -13.292300 -24.777000
H -19.077900 -12.766500 -25.723200
H -18.887600 -15.416500 -23.378700
H -18.574200 -10.950700 -22.541300
C -18.337000 -11.532600 -23.435600
N -18.251400 -13.951300 -22.092500
H -18.239600 -10.943700 -24.333200
C -17.985300 -14.736500 -23.283200
N -17.878400 -14.014400 -24.572700
H -17.296500 -12.394900 -21.067600
H -17.105700 -15.374500 -23.144200
C -17.102300 -12.990800 -21.960200
N -17.028800 -12.226700 -23.204500
C -16.740900 -13.011900 -24.406900
H -16.708200 -12.437000 -25.304500
H -16.180400 -13.537700 -21.787700
H -15.819000 -13.565700 -24.232700
15
Fragment
H -26.612900 -13.432500 -19.258900
H -26.355000 -15.416500 -17.919200
C -25.493400 -13.418500 -19.242200
O -25.447300 -15.255300 -17.646200
H -25.334200 -11.658800 -20.464700
C -24.823000 -14.393000 -18.471800
C -24.798100 -12.444000 -19.928800
C -23.420100 -14.449100 -18.589000
C -23.419200 -12.465000 -19.945500
H -23.248700 -15.935300 -17.232500
H -22.866900 -11.707900 -20.514900
C -22.746800 -13.432500 -19.258900
O -22.725800 -15.395500 -17.832100
O -21.401900 -13.558700 -19.431400
H -21.033300 -14.442000 -19.309200
37
Fragment
H -20.366000 -13.902200 -22.373800
H -19.961100 -14.049400 -24.835600
H -19.590400 -12.528100 -21.503000
C -19.494000 -13.215200 -22.360400
N -19.474100 -12.486100 -23.613100
C -19.154900 -13.292300 -24.777000
H -19.077900 -12.766500 -25.723200
H -18.887600 -15.416500 -23.378700
H -18.574200 -10.950700 -22.541300
C -18.337000 -11.532600 -23.435600
N -18.251400 -13.951300 -22.092500
H -18.239600 -10.943700 -24.333200
C -17.985300 -14.736500 -23.283200
N -17.878400 -14.014400 -24.572700
H -17.296500 -12.394900 -21.067600
H -17.105700 -15.374500 -23.144200
C -17.102300 -12.990800 -21.960200
N -17.028800 -12.226700 -23.204500
C -16.740900 -13.011900 -24.406900
H -16.708200 -12.437000 -25.304500
H -16.180400 -13.537700 -21.787700
H -15.819000 -13.565700 -24.232700
H -26.612900 -13.432500 -19.258900
H -26.355000 -15.416500 -17.919200
C -25.493400 -13.418500 -19.242200
O -25.447300 -15.255300 -17.646200
H -25.334200 -11.658800 -20.464700
C -24.823000 -14.393000 -18.471800
C -24.798100 -12.444000 -19.928800
C -23.420100 -14.449100 -18.589000
C -23.419200 -12.465000 -19.945500
H -23.248700 -15.935300 -17.232500
H -22.866900 -11.707900 -20.514900
C -22.746800 -13.432500 -19.258900
O -22.725800 -15.395500 -17.832100
O -21.401900 -13.558700 -19.431400
H -21.033300 -14.442000 -19.309200
