22
Fragment
H -20.366000 -13.902200 -22.373800
H -19.961100 -14.049400 -24.835600
H -19.590400 -12.528100 -21.503000
C -19.494000 -13.215200 -22.360400
N -19.474100 -12.486100 -23.613100
C -19.154900 -13.292300 -24.777000
H -19.077900 -12.766500 -25.723200
H -18.887600 -15.416500 -23.378700
H -18.574200 -10.950700 -22.541300
C -18.337000 -11.532600 -23.435600
N -18.251400 -13.951300 -22.092500
H -18.239600 -10.943700 -24.333200
C -17.985300 -14.736500 -23.283200
N -17.878400 -14.014400 -24.572700
H -17.296500 -12.394900 -21.067600
H -17.105700 -15.374500 -23.144200
C -17.102300 -12.990800 -21.960200
N -17.028800 -12.226700 -23.204500
C -16.740900 -13.011900 -24.406900
H -16.708200 -12.437000 -25.304500
H -16.180400 -13.537700 -21.787700
H -15.819000 -13.565700 -24.232700
15
Fragment
H -21.023500 -11.104900 -27.632400
H -20.765500 -9.120900 -26.292600
C -19.903900 -11.119000 -27.615600
O -19.857900 -9.282200 -26.019600
H -19.744700 -12.878700 -28.838100
C -19.233500 -10.144500 -26.845300
C -19.208600 -12.093500 -28.302200
C -17.830700 -10.088400 -26.962500
C -17.829800 -12.072400 -28.319000
H -17.659200 -8.602100 -25.606000
H -17.277400 -12.829600 -28.888400
C -17.157300 -11.104900 -27.632400
O -17.136300 -9.142000 -26.205500
O -15.812400 -10.978800 -27.804900
H -15.443800 -10.095400 -27.682600
37
Fragment
H -20.366000 -13.902200 -22.373800
H -19.961100 -14.049400 -24.835600
H -19.590400 -12.528100 -21.503000
C -19.494000 -13.215200 -22.360400
N -19.474100 -12.486100 -23.613100
C -19.154900 -13.292300 -24.777000
H -19.077900 -12.766500 -25.723200
H -18.887600 -15.416500 -23.378700
H -18.574200 -10.950700 -22.541300
C -18.337000 -11.532600 -23.435600
N -18.251400 -13.951300 -22.092500
H -18.239600 -10.943700 -24.333200
C -17.985300 -14.736500 -23.283200
N -17.878400 -14.014400 -24.572700
H -17.296500 -12.394900 -21.067600
H -17.105700 -15.374500 -23.144200
C -17.102300 -12.990800 -21.960200
N -17.028800 -12.226700 -23.204500
C -16.740900 -13.011900 -24.406900
H -16.708200 -12.437000 -25.304500
H -16.180400 -13.537700 -21.787700
H -15.819000 -13.565700 -24.232700
H -21.023500 -11.104900 -27.632400
H -20.765500 -9.120900 -26.292600
C -19.903900 -11.119000 -27.615600
O -19.857900 -9.282200 -26.019600
H -19.744700 -12.878700 -28.838100
C -19.233500 -10.144500 -26.845300
C -19.208600 -12.093500 -28.302200
C -17.830700 -10.088400 -26.962500
C -17.829800 -12.072400 -28.319000
H -17.659200 -8.602100 -25.606000
H -17.277400 -12.829600 -28.888400
C -17.157300 -11.104900 -27.632400
O -17.136300 -9.142000 -26.205500
O -15.812400 -10.978800 -27.804900
H -15.443800 -10.095400 -27.682600
