22
Fragment
H -20.366000 -13.902200 -22.373800
H -19.961100 -14.049400 -24.835600
H -19.590400 -12.528100 -21.503000
C -19.494000 -13.215200 -22.360400
N -19.474100 -12.486100 -23.613100
C -19.154900 -13.292300 -24.777000
H -19.077900 -12.766500 -25.723200
H -18.887600 -15.416500 -23.378700
H -18.574200 -10.950700 -22.541300
C -18.337000 -11.532600 -23.435600
N -18.251400 -13.951300 -22.092500
H -18.239600 -10.943700 -24.333200
C -17.985300 -14.736500 -23.283200
N -17.878400 -14.014400 -24.572700
H -17.296500 -12.394900 -21.067600
H -17.105700 -15.374500 -23.144200
C -17.102300 -12.990800 -21.960200
N -17.028800 -12.226700 -23.204500
C -16.740900 -13.011900 -24.406900
H -16.708200 -12.437000 -25.304500
H -16.180400 -13.537700 -21.787700
H -15.819000 -13.565700 -24.232700
22
Fragment
H -20.848100 -17.071100 -17.634500
H -20.486800 -17.043000 -20.079500
H -19.959000 -15.942300 -16.562700
C -19.926300 -16.517200 -17.460300
N -19.638400 -15.732000 -18.662700
C -19.564900 -16.496200 -19.907000
H -19.561500 -18.879800 -18.723000
H -19.370700 -15.900300 -20.799600
N -18.788800 -17.519700 -17.294500
C -18.681900 -18.241800 -18.584000
H -18.427600 -14.449100 -17.534000
N -18.415800 -17.456600 -19.774700
C -18.330200 -15.038000 -18.431600
H -18.092900 -14.456100 -19.325900
H -17.779600 -18.921900 -18.488600
H -17.589300 -16.271800 -16.144000
C -17.512300 -16.797600 -17.090200
N -17.193000 -15.991400 -18.254100
C -17.173100 -16.720500 -19.506800
H -17.076800 -16.033500 -20.364200
H -16.706000 -17.554800 -17.031600
H -16.301200 -17.407600 -19.493400
44
Fragment
H -20.366000 -13.902200 -22.373800
H -19.961100 -14.049400 -24.835600
H -19.590400 -12.528100 -21.503000
C -19.494000 -13.215200 -22.360400
N -19.474100 -12.486100 -23.613100
C -19.154900 -13.292300 -24.777000
H -19.077900 -12.766500 -25.723200
H -18.887600 -15.416500 -23.378700
H -18.574200 -10.950700 -22.541300
C -18.337000 -11.532600 -23.435600
N -18.251400 -13.951300 -22.092500
H -18.239600 -10.943700 -24.333200
C -17.985300 -14.736500 -23.283200
N -17.878400 -14.014400 -24.572700
H -17.296500 -12.394900 -21.067600
H -17.105700 -15.374500 -23.144200
C -17.102300 -12.990800 -21.960200
N -17.028800 -12.226700 -23.204500
C -16.740900 -13.011900 -24.406900
H -16.708200 -12.437000 -25.304500
H -16.180400 -13.537700 -21.787700
H -15.819000 -13.565700 -24.232700
H -20.848100 -17.071100 -17.634500
H -20.486800 -17.043000 -20.079500
H -19.959000 -15.942300 -16.562700
C -19.926300 -16.517200 -17.460300
N -19.638400 -15.732000 -18.662700
C -19.564900 -16.496200 -19.907000
H -19.561500 -18.879800 -18.723000
H -19.370700 -15.900300 -20.799600
N -18.788800 -17.519700 -17.294500
C -18.681900 -18.241800 -18.584000
H -18.427600 -14.449100 -17.534000
N -18.415800 -17.456600 -19.774700
C -18.330200 -15.038000 -18.431600
H -18.092900 -14.456100 -19.325900
H -17.779600 -18.921900 -18.488600
H -17.589300 -16.271800 -16.144000
C -17.512300 -16.797600 -17.090200
N -17.193000 -15.991400 -18.254100
C -17.173100 -16.720500 -19.506800
H -17.076800 -16.033500 -20.364200
H -16.706000 -17.554800 -17.031600
H -16.301200 -17.407600 -19.493400
