22
Fragment
H -20.366000 -13.902200 -22.373800
H -19.961100 -14.049400 -24.835600
H -19.590400 -12.528100 -21.503000
C -19.494000 -13.215200 -22.360400
N -19.474100 -12.486100 -23.613100
C -19.154900 -13.292300 -24.777000
H -19.077900 -12.766500 -25.723200
H -18.887600 -15.416500 -23.378700
H -18.574200 -10.950700 -22.541300
C -18.337000 -11.532600 -23.435600
N -18.251400 -13.951300 -22.092500
H -18.239600 -10.943700 -24.333200
C -17.985300 -14.736500 -23.283200
N -17.878400 -14.014400 -24.572700
H -17.296500 -12.394900 -21.067600
H -17.105700 -15.374500 -23.144200
C -17.102300 -12.990800 -21.960200
N -17.028800 -12.226700 -23.204500
C -16.740900 -13.011900 -24.406900
H -16.708200 -12.437000 -25.304500
H -16.180400 -13.537700 -21.787700
H -15.819000 -13.565700 -24.232700
15
Fragment
H -15.633900 -17.947400 -22.558100
O -15.265300 -17.064000 -22.435800
O -13.941400 -18.900800 -24.035100
C -13.920300 -16.937900 -22.608300
H -13.800300 -15.213200 -21.352300
H -13.418400 -19.440700 -24.634700
C -13.247900 -15.970400 -21.921700
C -13.247000 -17.954400 -23.278200
C -11.869100 -15.949300 -21.938400
C -11.844200 -17.898300 -23.395400
H -11.333000 -15.164100 -21.402500
O -11.219800 -18.760600 -24.221000
C -11.173800 -16.923800 -22.625000
H -10.312200 -18.921900 -23.948000
H -10.054200 -16.937900 -22.608300
37
Fragment
H -20.366000 -13.902200 -22.373800
H -19.961100 -14.049400 -24.835600
H -19.590400 -12.528100 -21.503000
C -19.494000 -13.215200 -22.360400
N -19.474100 -12.486100 -23.613100
C -19.154900 -13.292300 -24.777000
H -19.077900 -12.766500 -25.723200
H -18.887600 -15.416500 -23.378700
H -18.574200 -10.950700 -22.541300
C -18.337000 -11.532600 -23.435600
N -18.251400 -13.951300 -22.092500
H -18.239600 -10.943700 -24.333200
C -17.985300 -14.736500 -23.283200
N -17.878400 -14.014400 -24.572700
H -17.296500 -12.394900 -21.067600
H -17.105700 -15.374500 -23.144200
C -17.102300 -12.990800 -21.960200
N -17.028800 -12.226700 -23.204500
C -16.740900 -13.011900 -24.406900
H -16.708200 -12.437000 -25.304500
H -16.180400 -13.537700 -21.787700
H -15.819000 -13.565700 -24.232700
H -15.633900 -17.947400 -22.558100
O -15.265300 -17.064000 -22.435800
O -13.941400 -18.900800 -24.035100
C -13.920300 -16.937900 -22.608300
H -13.800300 -15.213200 -21.352300
H -13.418400 -19.440700 -24.634700
C -13.247900 -15.970400 -21.921700
C -13.247000 -17.954400 -23.278200
C -11.869100 -15.949300 -21.938400
C -11.844200 -17.898300 -23.395400
H -11.333000 -15.164100 -21.402500
O -11.219800 -18.760600 -24.221000
C -11.173800 -16.923800 -22.625000
H -10.312200 -18.921900 -23.948000
H -10.054200 -16.937900 -22.608300
