26
Fragment
H -11.237200 -9.747000 -14.589900
H -11.009300 -12.128200 -15.325800
H -10.504000 -7.525000 -14.291300
C -10.395700 -9.496700 -14.948300
C -10.062500 -11.827200 -15.719400
C -9.948300 -8.226800 -14.801100
C -9.625200 -10.504400 -15.576400
H -9.592900 -13.747400 -16.339000
C -9.281400 -12.790400 -16.336900
H -8.753900 -5.889100 -14.792600
C -8.651100 -7.848700 -15.297000
C -8.330200 -10.177300 -16.064900
C -8.159100 -6.560200 -15.171200
C -8.024600 -12.451500 -16.824300
C -7.853500 -8.834400 -15.930500
C -7.532600 -11.163100 -16.698400
H -7.429800 -13.122600 -17.202900
C -6.902300 -6.221300 -15.658600
H -6.590800 -5.264300 -15.656400
C -6.558500 -8.507300 -16.419000
C -6.235400 -10.784900 -17.194300
C -6.121200 -7.184500 -16.276100
C -5.788000 -9.515100 -17.047200
H -5.679700 -11.486700 -17.704100
H -5.174400 -6.883600 -16.669600
H -4.946500 -9.264700 -17.405500
26
Fragment
H -18.241200 -9.747000 -14.589900
H -18.013300 -12.128200 -15.325800
H -17.508000 -7.525000 -14.291300
C -17.399700 -9.496700 -14.948300
C -17.066500 -11.827200 -15.719400
C -16.952300 -8.226800 -14.801100
C -16.629200 -10.504400 -15.576400
H -16.596900 -13.747400 -16.339000
C -16.285400 -12.790400 -16.336900
H -15.757900 -5.889100 -14.792600
C -15.655100 -7.848700 -15.297000
C -15.334200 -10.177300 -16.064900
C -15.163100 -6.560200 -15.171200
C -15.028600 -12.451500 -16.824300
C -14.857500 -8.834400 -15.930500
C -14.536600 -11.163100 -16.698400
H -14.433800 -13.122600 -17.202900
C -13.906300 -6.221300 -15.658600
H -13.594800 -5.264300 -15.656400
C -13.562500 -8.507300 -16.419000
C -13.239400 -10.784900 -17.194300
C -13.125200 -7.184500 -16.276100
C -12.792000 -9.515100 -17.047200
H -12.683700 -11.486700 -17.704100
H -12.178400 -6.883600 -16.669600
H -11.950500 -9.264700 -17.405500
52
Fragment
H -11.237200 -9.747000 -14.589900
H -11.009300 -12.128200 -15.325800
H -10.504000 -7.525000 -14.291300
C -10.395700 -9.496700 -14.948300
C -10.062500 -11.827200 -15.719400
C -9.948300 -8.226800 -14.801100
C -9.625200 -10.504400 -15.576400
H -9.592900 -13.747400 -16.339000
C -9.281400 -12.790400 -16.336900
H -8.753900 -5.889100 -14.792600
C -8.651100 -7.848700 -15.297000
C -8.330200 -10.177300 -16.064900
C -8.159100 -6.560200 -15.171200
C -8.024600 -12.451500 -16.824300
C -7.853500 -8.834400 -15.930500
C -7.532600 -11.163100 -16.698400
H -7.429800 -13.122600 -17.202900
C -6.902300 -6.221300 -15.658600
H -6.590800 -5.264300 -15.656400
C -6.558500 -8.507300 -16.419000
C -6.235400 -10.784900 -17.194300
C -6.121200 -7.184500 -16.276100
C -5.788000 -9.515100 -17.047200
H -5.679700 -11.486700 -17.704100
H -5.174400 -6.883600 -16.669600
H -4.946500 -9.264700 -17.405500
H -18.241200 -9.747000 -14.589900
H -18.013300 -12.128200 -15.325800
H -17.508000 -7.525000 -14.291300
C -17.399700 -9.496700 -14.948300
C -17.066500 -11.827200 -15.719400
C -16.952300 -8.226800 -14.801100
C -16.629200 -10.504400 -15.576400
H -16.596900 -13.747400 -16.339000
C -16.285400 -12.790400 -16.336900
H -15.757900 -5.889100 -14.792600
C -15.655100 -7.848700 -15.297000
C -15.334200 -10.177300 -16.064900
C -15.163100 -6.560200 -15.171200
C -15.028600 -12.451500 -16.824300
C -14.857500 -8.834400 -15.930500
C -14.536600 -11.163100 -16.698400
H -14.433800 -13.122600 -17.202900
C -13.906300 -6.221300 -15.658600
H -13.594800 -5.264300 -15.656400
C -13.562500 -8.507300 -16.419000
C -13.239400 -10.784900 -17.194300
C -13.125200 -7.184500 -16.276100
C -12.792000 -9.515100 -17.047200
H -12.683700 -11.486700 -17.704100
H -12.178400 -6.883600 -16.669600
H -11.950500 -9.264700 -17.405500
