26
Fragment
H -11.237200 -9.747000 -14.589900
H -11.009300 -12.128200 -15.325800
H -10.504000 -7.525000 -14.291300
C -10.395700 -9.496700 -14.948300
C -10.062500 -11.827200 -15.719400
C -9.948300 -8.226800 -14.801100
C -9.625200 -10.504400 -15.576400
H -9.592900 -13.747400 -16.339000
C -9.281400 -12.790400 -16.336900
H -8.753900 -5.889100 -14.792600
C -8.651100 -7.848700 -15.297000
C -8.330200 -10.177300 -16.064900
C -8.159100 -6.560200 -15.171200
C -8.024600 -12.451500 -16.824300
C -7.853500 -8.834400 -15.930500
C -7.532600 -11.163100 -16.698400
H -7.429800 -13.122600 -17.202900
C -6.902300 -6.221300 -15.658600
H -6.590800 -5.264300 -15.656400
C -6.558500 -8.507300 -16.419000
C -6.235400 -10.784900 -17.194300
C -6.121200 -7.184500 -16.276100
C -5.788000 -9.515100 -17.047200
H -5.679700 -11.486700 -17.704100
H -5.174400 -6.883600 -16.669600
H -4.946500 -9.264700 -17.405500
20
Fragment
N -11.233100 -4.749200 -13.713200
C -11.060500 -4.421200 -12.630700
N -10.979300 -5.734300 -9.413100
C -10.943000 -4.952800 -10.264100
C -10.862700 -3.971900 -11.276300
H -10.652500 -2.092300 -12.979500
C -10.610600 -2.646300 -10.994700
C -10.506700 -1.674300 -12.013200
H -10.492400 -2.932200 -8.884100
C -10.469100 -2.235900 -9.615700
C -10.264100 -0.366800 -11.714600
H -10.240800 0.329500 -12.446200
C -10.226600 -0.928400 -9.317100
C -10.122600 0.043700 -10.335600
H -10.080700 -0.510300 -8.350800
C -9.870500 1.369200 -10.054000
C -9.790300 2.350100 -11.066200
N -9.753900 3.131600 -11.917200
C -9.672800 1.818500 -8.699600
N -9.500100 2.146500 -7.617000
46
Fragment
H -11.237200 -9.747000 -14.589900
H -11.009300 -12.128200 -15.325800
H -10.504000 -7.525000 -14.291300
C -10.395700 -9.496700 -14.948300
C -10.062500 -11.827200 -15.719400
C -9.948300 -8.226800 -14.801100
C -9.625200 -10.504400 -15.576400
H -9.592900 -13.747400 -16.339000
C -9.281400 -12.790400 -16.336900
H -8.753900 -5.889100 -14.792600
C -8.651100 -7.848700 -15.297000
C -8.330200 -10.177300 -16.064900
C -8.159100 -6.560200 -15.171200
C -8.024600 -12.451500 -16.824300
C -7.853500 -8.834400 -15.930500
C -7.532600 -11.163100 -16.698400
H -7.429800 -13.122600 -17.202900
C -6.902300 -6.221300 -15.658600
H -6.590800 -5.264300 -15.656400
C -6.558500 -8.507300 -16.419000
C -6.235400 -10.784900 -17.194300
C -6.121200 -7.184500 -16.276100
C -5.788000 -9.515100 -17.047200
H -5.679700 -11.486700 -17.704100
H -5.174400 -6.883600 -16.669600
H -4.946500 -9.264700 -17.405500
N -11.233100 -4.749200 -13.713200
C -11.060500 -4.421200 -12.630700
N -10.979300 -5.734300 -9.413100
C -10.943000 -4.952800 -10.264100
C -10.862700 -3.971900 -11.276300
H -10.652500 -2.092300 -12.979500
C -10.610600 -2.646300 -10.994700
C -10.506700 -1.674300 -12.013200
H -10.492400 -2.932200 -8.884100
C -10.469100 -2.235900 -9.615700
C -10.264100 -0.366800 -11.714600
H -10.240800 0.329500 -12.446200
C -10.226600 -0.928400 -9.317100
C -10.122600 0.043700 -10.335600
H -10.080700 -0.510300 -8.350800
C -9.870500 1.369200 -10.054000
C -9.790300 2.350100 -11.066200
N -9.753900 3.131600 -11.917200
C -9.672800 1.818500 -8.699600
N -9.500100 2.146500 -7.617000
