43
Fragment
O -17.358600 -10.288100 -60.023400
H -17.214600 -10.924500 -57.674800
C -16.363200 -11.343500 -57.719800
N -16.357100 -10.991400 -60.152600
H -16.264700 -13.236300 -45.513200
H -16.155200 -11.677300 -55.727100
H -15.959300 -14.734600 -46.026800
O -15.856200 -11.263800 -61.246200
H -15.775600 -12.350400 -52.499200
H -15.733600 -13.611200 -48.020900
C -15.732900 -11.788000 -56.570900
C -15.722500 -11.523500 -58.944000
C -15.588400 -13.821000 -45.938600
H -15.521800 -12.699400 -51.007200
N -15.306700 -12.773200 -51.864600
H -15.180800 -12.278400 -47.300600
C -15.155300 -13.268100 -47.294200
C -14.493600 -12.149500 -59.057500
C -14.473400 -12.401400 -56.645800
H -14.331200 -14.472200 -44.389300
N -14.285500 -12.705700 -54.279500
C -14.284300 -13.828800 -45.140200
H -14.087200 -12.276500 -59.907000
H -14.082000 -12.928600 -44.781500
C -14.041900 -13.156300 -52.101600
C -13.870200 -12.587400 -57.895400
N -13.856500 -13.513900 -49.734100
N -13.786100 -13.760600 -47.433800
C -13.763700 -12.834300 -55.441200
N -13.439500 -13.156000 -53.264800
C -13.256700 -13.653700 -50.933400
C -13.236200 -14.258500 -46.165300
C -13.181600 -13.919300 -48.640900
H -13.135700 -15.243300 -46.182100
H -13.024900 -13.017900 -57.949700
H -12.898600 -13.218400 -55.523300
H -12.357000 -13.846700 -45.971500
C -12.000400 -14.213900 -51.115000
C -11.884000 -14.480500 -48.730500
H -11.623400 -14.311500 -51.981600
H -11.417400 -14.749500 -47.948100
C -11.313100 -14.628100 -49.973600
H -10.448600 -15.013200 -50.055300
43
Fragment
H -23.721200 -15.013200 -57.020200
C -22.856600 -14.628100 -57.102000
H -22.752400 -14.749500 -59.127500
H -22.546400 -14.311500 -55.094000
C -22.285800 -14.480500 -58.345100
C -22.169400 -14.213900 -55.960600
H -21.812700 -13.846700 -61.104100
H -21.271200 -13.218400 -51.552300
H -21.144800 -13.017900 -49.125900
H -21.034100 -15.243300 -60.893500
C -20.988200 -13.919300 -58.434700
C -20.933600 -14.258500 -60.910300
C -20.913000 -13.653700 -56.142200
N -20.730300 -13.156000 -53.810800
C -20.406100 -12.834300 -51.634300
N -20.383600 -13.760600 -59.641800
N -20.313200 -13.513900 -57.341500
C -20.299600 -12.587400 -49.180200
C -20.127800 -13.156300 -54.974000
H -20.087800 -12.928600 -62.294100
H -20.082600 -12.276500 -47.168600
C -19.885500 -13.828800 -61.935400
N -19.884200 -12.705700 -52.796100
H -19.838600 -14.472200 -62.686300
C -19.696300 -12.401400 -50.429700
C -19.676200 -12.149500 -48.018000
C -19.014500 -13.268100 -59.781400
H -18.988900 -12.278400 -59.774900
N -18.863100 -12.773200 -55.211000
H -18.648000 -12.699400 -56.068300
C -18.581400 -13.821000 -61.136900
C -18.447300 -11.523500 -48.131500
C -18.436900 -11.788000 -50.504700
H -18.436100 -13.611200 -59.054700
H -18.394200 -12.350400 -54.576400
O -18.313600 -11.263800 -45.829400
H -18.210400 -14.734600 -61.048800
H -18.014500 -11.677300 -51.348500
H -17.905100 -13.236300 -61.562400
N -17.812700 -10.991400 -46.923000
C -17.806600 -11.343500 -49.355800
H -16.955100 -10.924500 -49.400800
O -16.811100 -10.288100 -47.052200
86
Fragment
O -17.358600 -10.288100 -60.023400
H -17.214600 -10.924500 -57.674800
C -16.363200 -11.343500 -57.719800
N -16.357100 -10.991400 -60.152600
H -16.264700 -13.236300 -45.513200
H -16.155200 -11.677300 -55.727100
H -15.959300 -14.734600 -46.026800
O -15.856200 -11.263800 -61.246200
H -15.775600 -12.350400 -52.499200
H -15.733600 -13.611200 -48.020900
C -15.732900 -11.788000 -56.570900
C -15.722500 -11.523500 -58.944000
C -15.588400 -13.821000 -45.938600
H -15.521800 -12.699400 -51.007200
N -15.306700 -12.773200 -51.864600
H -15.180800 -12.278400 -47.300600
C -15.155300 -13.268100 -47.294200
C -14.493600 -12.149500 -59.057500
C -14.473400 -12.401400 -56.645800
H -14.331200 -14.472200 -44.389300
N -14.285500 -12.705700 -54.279500
C -14.284300 -13.828800 -45.140200
H -14.087200 -12.276500 -59.907000
H -14.082000 -12.928600 -44.781500
C -14.041900 -13.156300 -52.101600
C -13.870200 -12.587400 -57.895400
N -13.856500 -13.513900 -49.734100
N -13.786100 -13.760600 -47.433800
C -13.763700 -12.834300 -55.441200
N -13.439500 -13.156000 -53.264800
C -13.256700 -13.653700 -50.933400
C -13.236200 -14.258500 -46.165300
C -13.181600 -13.919300 -48.640900
H -13.135700 -15.243300 -46.182100
H -13.024900 -13.017900 -57.949700
H -12.898600 -13.218400 -55.523300
H -12.357000 -13.846700 -45.971500
C -12.000400 -14.213900 -51.115000
C -11.884000 -14.480500 -48.730500
H -11.623400 -14.311500 -51.981600
H -11.417400 -14.749500 -47.948100
C -11.313100 -14.628100 -49.973600
H -10.448600 -15.013200 -50.055300
H -23.721200 -15.013200 -57.020200
C -22.856600 -14.628100 -57.102000
H -22.752400 -14.749500 -59.127500
H -22.546400 -14.311500 -55.094000
C -22.285800 -14.480500 -58.345100
C -22.169400 -14.213900 -55.960600
H -21.812700 -13.846700 -61.104100
H -21.271200 -13.218400 -51.552300
H -21.144800 -13.017900 -49.125900
H -21.034100 -15.243300 -60.893500
C -20.988200 -13.919300 -58.434700
C -20.933600 -14.258500 -60.910300
C -20.913000 -13.653700 -56.142200
N -20.730300 -13.156000 -53.810800
C -20.406100 -12.834300 -51.634300
N -20.383600 -13.760600 -59.641800
N -20.313200 -13.513900 -57.341500
C -20.299600 -12.587400 -49.180200
C -20.127800 -13.156300 -54.974000
H -20.087800 -12.928600 -62.294100
H -20.082600 -12.276500 -47.168600
C -19.885500 -13.828800 -61.935400
N -19.884200 -12.705700 -52.796100
H -19.838600 -14.472200 -62.686300
C -19.696300 -12.401400 -50.429700
C -19.676200 -12.149500 -48.018000
C -19.014500 -13.268100 -59.781400
H -18.988900 -12.278400 -59.774900
N -18.863100 -12.773200 -55.211000
H -18.648000 -12.699400 -56.068300
C -18.581400 -13.821000 -61.136900
C -18.447300 -11.523500 -48.131500
C -18.436900 -11.788000 -50.504700
H -18.436100 -13.611200 -59.054700
H -18.394200 -12.350400 -54.576400
O -18.313600 -11.263800 -45.829400
H -18.210400 -14.734600 -61.048800
H -18.014500 -11.677300 -51.348500
H -17.905100 -13.236300 -61.562400
N -17.812700 -10.991400 -46.923000
C -17.806600 -11.343500 -49.355800
H -16.955100 -10.924500 -49.400800
O -16.811100 -10.288100 -47.052200
