10
Fragment
H -11.444800 -10.425000 -21.861600
C -10.544500 -10.223600 -21.980300
H -10.542400 -8.737900 -20.666700
C -9.997800 -9.203400 -21.259900
N -9.844000 -10.932900 -22.836000
N -8.724700 -8.843400 -21.364500
C -8.570900 -10.573000 -22.940700
H -8.026300 -11.038500 -23.533800
C -8.024200 -9.552800 -22.220200
H -7.123900 -9.351400 -22.338900
10
Fragment
H -11.525700 -10.992000 -15.720600
C -10.834600 -10.898800 -16.336200
N -10.822700 -11.676500 -17.395700
H -9.930800 -9.439000 -15.334600
C -9.870900 -9.959600 -16.102700
C -9.814400 -11.473000 -18.218400
H -9.753800 -11.992500 -18.987100
C -8.858000 -10.532200 -17.988400
N -8.857900 -9.760900 -16.923200
H -8.175000 -10.431500 -18.611400
20
Fragment
H -11.444800 -10.425000 -21.861600
C -10.544500 -10.223600 -21.980300
H -10.542400 -8.737900 -20.666700
C -9.997800 -9.203400 -21.259900
N -9.844000 -10.932900 -22.836000
N -8.724700 -8.843400 -21.364500
C -8.570900 -10.573000 -22.940700
H -8.026300 -11.038500 -23.533800
C -8.024200 -9.552800 -22.220200
H -7.123900 -9.351400 -22.338900
H -11.525700 -10.992000 -15.720600
C -10.834600 -10.898800 -16.336200
N -10.822700 -11.676500 -17.395700
H -9.930800 -9.439000 -15.334600
C -9.870900 -9.959600 -16.102700
C -9.814400 -11.473000 -18.218400
H -9.753800 -11.992500 -18.987100
C -8.858000 -10.532200 -17.988400
N -8.857900 -9.760900 -16.923200
H -8.175000 -10.431500 -18.611400
