10
Fragment
H -11.444800 -10.425000 -21.861600
C -10.544500 -10.223600 -21.980300
H -10.542400 -8.737900 -20.666700
C -9.997800 -9.203400 -21.259900
N -9.844000 -10.932900 -22.836000
N -8.724700 -8.843400 -21.364500
C -8.570900 -10.573000 -22.940700
H -8.026300 -11.038500 -23.533800
C -8.024200 -9.552800 -22.220200
H -7.123900 -9.351400 -22.338900
36
Fragment
O -14.030400 -15.603800 -23.427000
O -13.963900 -14.111200 -28.822400
O -13.732400 -13.669400 -22.516000
O -13.727400 -11.973300 -28.556300
N -13.567000 -14.487300 -23.395600
N -13.565700 -13.129800 -28.238500
O -13.407700 -11.008400 -23.848500
O -13.402800 -10.361900 -25.910800
N -13.028300 -11.047600 -24.991100
N -12.907200 -13.357800 -26.986900
N -12.821900 -14.071400 -24.508600
H -12.720800 -15.275300 -27.326200
H -12.612600 -15.933100 -25.216400
C -12.276100 -14.654100 -26.854300
C -12.220100 -15.101500 -25.335700
H -11.979700 -11.591500 -27.192200
N -11.967000 -11.959800 -25.278400
C -11.873200 -12.342200 -26.667100
H -11.867000 -12.650900 -23.442500
C -11.812500 -13.022300 -24.311200
O -11.064400 -17.152400 -24.045100
N -10.960600 -14.339300 -27.387500
N -10.820300 -15.115500 -24.927200
O -10.556800 -16.450900 -27.829500
C -10.504300 -13.046900 -26.908800
C -10.449800 -13.745400 -24.561300
N -10.380300 -16.160500 -24.074800
N -10.084500 -15.346900 -27.705900
H -9.960200 -12.615300 -27.559000
H -9.882700 -13.752000 -23.822600
N -9.779600 -13.091400 -25.659000
O -9.323200 -15.977900 -23.525100
O -8.921100 -15.021400 -27.859000
N -8.381500 -13.065700 -25.681200
O -7.862600 -12.573300 -26.658400
O -7.825100 -13.473500 -24.693900
46
Fragment
H -11.444800 -10.425000 -21.861600
C -10.544500 -10.223600 -21.980300
H -10.542400 -8.737900 -20.666700
C -9.997800 -9.203400 -21.259900
N -9.844000 -10.932900 -22.836000
N -8.724700 -8.843400 -21.364500
C -8.570900 -10.573000 -22.940700
H -8.026300 -11.038500 -23.533800
C -8.024200 -9.552800 -22.220200
H -7.123900 -9.351400 -22.338900
O -14.030400 -15.603800 -23.427000
O -13.963900 -14.111200 -28.822400
O -13.732400 -13.669400 -22.516000
O -13.727400 -11.973300 -28.556300
N -13.567000 -14.487300 -23.395600
N -13.565700 -13.129800 -28.238500
O -13.407700 -11.008400 -23.848500
O -13.402800 -10.361900 -25.910800
N -13.028300 -11.047600 -24.991100
N -12.907200 -13.357800 -26.986900
N -12.821900 -14.071400 -24.508600
H -12.720800 -15.275300 -27.326200
H -12.612600 -15.933100 -25.216400
C -12.276100 -14.654100 -26.854300
C -12.220100 -15.101500 -25.335700
H -11.979700 -11.591500 -27.192200
N -11.967000 -11.959800 -25.278400
C -11.873200 -12.342200 -26.667100
H -11.867000 -12.650900 -23.442500
C -11.812500 -13.022300 -24.311200
O -11.064400 -17.152400 -24.045100
N -10.960600 -14.339300 -27.387500
N -10.820300 -15.115500 -24.927200
O -10.556800 -16.450900 -27.829500
C -10.504300 -13.046900 -26.908800
C -10.449800 -13.745400 -24.561300
N -10.380300 -16.160500 -24.074800
N -10.084500 -15.346900 -27.705900
H -9.960200 -12.615300 -27.559000
H -9.882700 -13.752000 -23.822600
N -9.779600 -13.091400 -25.659000
O -9.323200 -15.977900 -23.525100
O -8.921100 -15.021400 -27.859000
N -8.381500 -13.065700 -25.681200
O -7.862600 -12.573300 -26.658400
O -7.825100 -13.473500 -24.693900
