10
Fragment
H -11.444800 -10.425000 -21.861600
C -10.544500 -10.223600 -21.980300
H -10.542400 -8.737900 -20.666700
C -9.997800 -9.203400 -21.259900
N -9.844000 -10.932900 -22.836000
N -8.724700 -8.843400 -21.364500
C -8.570900 -10.573000 -22.940700
H -8.026300 -11.038500 -23.533800
C -8.024200 -9.552800 -22.220200
H -7.123900 -9.351400 -22.338900
36
Fragment
O -10.743600 -6.302900 -19.506600
O -10.706100 -7.203100 -17.542200
N -10.187200 -6.710700 -18.519300
O -9.647600 -4.755000 -16.341500
O -9.245500 -3.798500 -20.675400
N -8.789000 -6.685000 -18.541500
H -8.686000 -6.024400 -20.377900
H -8.608500 -7.161100 -16.641500
N -8.484200 -4.429400 -16.494600
N -8.188400 -3.615800 -20.125700
C -8.118900 -6.031000 -19.639200
C -8.064400 -6.729500 -17.291700
O -8.011900 -3.325500 -16.371000
N -7.748300 -4.660900 -19.273300
N -7.608100 -5.437100 -16.813000
O -7.504300 -2.624000 -20.155400
C -6.756200 -6.754100 -19.889300
H -6.701700 -7.125500 -20.758000
C -6.695500 -7.434200 -17.533500
N -6.601600 -7.816600 -18.922100
H -6.588900 -8.184800 -17.008400
C -6.348500 -4.674800 -18.864800
C -6.292600 -5.122300 -17.346200
H -5.956100 -3.843300 -18.984100
H -5.847900 -4.501100 -16.874300
N -5.746800 -5.705000 -19.691900
N -5.661500 -6.418600 -17.213600
N -5.540300 -8.728800 -19.209400
O -5.165900 -9.414500 -18.289700
O -5.161000 -8.768000 -20.352000
N -5.003000 -6.646600 -15.962000
N -5.001700 -5.289100 -20.804900
O -4.841300 -7.803100 -15.644200
O -4.836300 -6.107000 -21.684500
O -4.604800 -5.665200 -15.378100
O -4.538300 -4.172600 -20.773500
46
Fragment
H -11.444800 -10.425000 -21.861600
C -10.544500 -10.223600 -21.980300
H -10.542400 -8.737900 -20.666700
C -9.997800 -9.203400 -21.259900
N -9.844000 -10.932900 -22.836000
N -8.724700 -8.843400 -21.364500
C -8.570900 -10.573000 -22.940700
H -8.026300 -11.038500 -23.533800
C -8.024200 -9.552800 -22.220200
H -7.123900 -9.351400 -22.338900
O -10.743600 -6.302900 -19.506600
O -10.706100 -7.203100 -17.542200
N -10.187200 -6.710700 -18.519300
O -9.647600 -4.755000 -16.341500
O -9.245500 -3.798500 -20.675400
N -8.789000 -6.685000 -18.541500
H -8.686000 -6.024400 -20.377900
H -8.608500 -7.161100 -16.641500
N -8.484200 -4.429400 -16.494600
N -8.188400 -3.615800 -20.125700
C -8.118900 -6.031000 -19.639200
C -8.064400 -6.729500 -17.291700
O -8.011900 -3.325500 -16.371000
N -7.748300 -4.660900 -19.273300
N -7.608100 -5.437100 -16.813000
O -7.504300 -2.624000 -20.155400
C -6.756200 -6.754100 -19.889300
H -6.701700 -7.125500 -20.758000
C -6.695500 -7.434200 -17.533500
N -6.601600 -7.816600 -18.922100
H -6.588900 -8.184800 -17.008400
C -6.348500 -4.674800 -18.864800
C -6.292600 -5.122300 -17.346200
H -5.956100 -3.843300 -18.984100
H -5.847900 -4.501100 -16.874300
N -5.746800 -5.705000 -19.691900
N -5.661500 -6.418600 -17.213600
N -5.540300 -8.728800 -19.209400
O -5.165900 -9.414500 -18.289700
O -5.161000 -8.768000 -20.352000
N -5.003000 -6.646600 -15.962000
N -5.001700 -5.289100 -20.804900
O -4.841300 -7.803100 -15.644200
O -4.836300 -6.107000 -21.684500
O -4.604800 -5.665200 -15.378100
O -4.538300 -4.172600 -20.773500
