10
Fragment
H -11.444800 -10.425000 -21.861600
C -10.544500 -10.223600 -21.980300
H -10.542400 -8.737900 -20.666700
C -9.997800 -9.203400 -21.259900
N -9.844000 -10.932900 -22.836000
N -8.724700 -8.843400 -21.364500
C -8.570900 -10.573000 -22.940700
H -8.026300 -11.038500 -23.533800
C -8.024200 -9.552800 -22.220200
H -7.123900 -9.351400 -22.338900
10
Fragment
H -10.393700 -9.344900 -25.589100
N -9.710800 -10.015400 -27.277300
C -9.710600 -9.244100 -26.212100
H -8.814900 -7.783900 -25.213400
C -8.754200 -8.303400 -25.982100
C -8.697800 -9.816800 -28.097800
H -8.637900 -10.337300 -28.865900
N -7.746000 -8.099900 -26.804800
C -7.734100 -8.877500 -27.864300
H -7.043000 -8.784300 -28.479900
20
Fragment
H -11.444800 -10.425000 -21.861600
C -10.544500 -10.223600 -21.980300
H -10.542400 -8.737900 -20.666700
C -9.997800 -9.203400 -21.259900
N -9.844000 -10.932900 -22.836000
N -8.724700 -8.843400 -21.364500
C -8.570900 -10.573000 -22.940700
H -8.026300 -11.038500 -23.533800
C -8.024200 -9.552800 -22.220200
H -7.123900 -9.351400 -22.338900
H -10.393700 -9.344900 -25.589100
N -9.710800 -10.015400 -27.277300
C -9.710600 -9.244100 -26.212100
H -8.814900 -7.783900 -25.213400
C -8.754200 -8.303400 -25.982100
C -8.697800 -9.816800 -28.097800
H -8.637900 -10.337300 -28.865900
N -7.746000 -8.099900 -26.804800
C -7.734100 -8.877500 -27.864300
H -7.043000 -8.784300 -28.479900
