23
Fragment
H -4.688100 -16.900100 -34.666500
C -4.191800 -17.598900 -35.028300
O -4.186300 -18.641300 -32.920400
H -4.125400 -16.870300 -36.897100
H -3.900600 -19.348700 -32.649900
C -3.852600 -17.576600 -36.357300
C -3.799400 -18.659400 -34.215000
H -3.183000 -16.288400 -41.144400
C -3.096500 -18.617900 -36.895700
C -3.031900 -19.706100 -34.747700
N -2.964600 -17.726600 -38.962200
O -2.915200 -20.878500 -32.696100
N -2.738900 -17.021300 -41.224100
C -2.700400 -19.667800 -36.093200
N -2.651500 -18.700900 -38.235700
C -2.566900 -20.801700 -33.870700
C -2.485100 -17.898900 -40.274800
H -2.202700 -20.362400 -36.461800
N -2.173700 -17.492500 -42.320700
O -1.762300 -21.637800 -34.449100
N -1.740400 -18.907300 -40.738600
N -1.565800 -18.625400 -42.027300
H -1.454600 -22.152600 -33.889400
23
Fragment
H -4.999200 -20.395400 -39.890100
N -4.888000 -23.922600 -31.752200
N -4.713400 -23.640700 -33.040900
O -4.691500 -20.910200 -39.330400
N -4.280200 -25.055500 -31.458900
H -4.251100 -22.185600 -37.317700
C -3.968700 -24.649100 -33.504800
C -3.886900 -21.746300 -39.908800
N -3.802300 -23.847100 -35.543800
C -3.753500 -22.880200 -37.686300
N -3.715000 -25.526700 -32.555500
O -3.538600 -21.669500 -41.083400
N -3.489300 -24.821400 -34.817300
C -3.422000 -22.841900 -39.031800
C -3.357300 -23.930100 -36.883900
H -3.270800 -26.259600 -32.635100
C -2.654400 -23.888600 -39.564500
C -2.601200 -24.971400 -37.422200
H -2.553300 -23.199300 -41.129600
H -2.328500 -25.677700 -36.882400
O -2.267600 -23.906700 -40.859100
C -2.262100 -24.949100 -38.751200
H -1.765800 -25.647900 -39.113000
46
Fragment
H -4.688100 -16.900100 -34.666500
C -4.191800 -17.598900 -35.028300
O -4.186300 -18.641300 -32.920400
H -4.125400 -16.870300 -36.897100
H -3.900600 -19.348700 -32.649900
C -3.852600 -17.576600 -36.357300
C -3.799400 -18.659400 -34.215000
H -3.183000 -16.288400 -41.144400
C -3.096500 -18.617900 -36.895700
C -3.031900 -19.706100 -34.747700
N -2.964600 -17.726600 -38.962200
O -2.915200 -20.878500 -32.696100
N -2.738900 -17.021300 -41.224100
C -2.700400 -19.667800 -36.093200
N -2.651500 -18.700900 -38.235700
C -2.566900 -20.801700 -33.870700
C -2.485100 -17.898900 -40.274800
H -2.202700 -20.362400 -36.461800
N -2.173700 -17.492500 -42.320700
O -1.762300 -21.637800 -34.449100
N -1.740400 -18.907300 -40.738600
N -1.565800 -18.625400 -42.027300
H -1.454600 -22.152600 -33.889400
H -4.999200 -20.395400 -39.890100
N -4.888000 -23.922600 -31.752200
N -4.713400 -23.640700 -33.040900
O -4.691500 -20.910200 -39.330400
N -4.280200 -25.055500 -31.458900
H -4.251100 -22.185600 -37.317700
C -3.968700 -24.649100 -33.504800
C -3.886900 -21.746300 -39.908800
N -3.802300 -23.847100 -35.543800
C -3.753500 -22.880200 -37.686300
N -3.715000 -25.526700 -32.555500
O -3.538600 -21.669500 -41.083400
N -3.489300 -24.821400 -34.817300
C -3.422000 -22.841900 -39.031800
C -3.357300 -23.930100 -36.883900
H -3.270800 -26.259600 -32.635100
C -2.654400 -23.888600 -39.564500
C -2.601200 -24.971400 -37.422200
H -2.553300 -23.199300 -41.129600
H -2.328500 -25.677700 -36.882400
O -2.267600 -23.906700 -40.859100
C -2.262100 -24.949100 -38.751200
H -1.765800 -25.647900 -39.113000
