36
Fragment
O -20.774500 -21.548400 -14.612100
O -20.637800 -23.913900 -12.609000
O -20.406700 -23.957700 -17.062600
O -20.087100 -21.084900 -16.613500
N -19.963600 -21.595500 -15.520900
O -19.943300 -25.938400 -12.893700
N -19.909400 -24.751000 -13.078100
O -19.724400 -25.951400 -16.512200
N -19.566100 -24.766300 -16.716000
H -19.119500 -22.397100 -13.280300
N -18.966200 -24.287700 -14.040000
N -18.762800 -22.254500 -15.254800
C -18.592100 -22.863500 -13.962500
N -18.280100 -24.287200 -16.560000
H -18.204800 -22.348500 -17.193200
C -18.042300 -22.845600 -16.364900
H -17.859900 -25.988600 -13.867700
C -17.756400 -25.078700 -14.217800
C -17.353900 -25.078700 -15.752300
H -17.250400 -25.988600 -16.102300
C -17.067900 -22.845600 -13.605200
H -16.905400 -22.348500 -12.776800
N -16.830200 -24.287200 -13.410000
C -16.518100 -22.863500 -16.007600
N -16.347500 -22.254500 -14.715300
N -16.144100 -24.287700 -15.930000
H -15.990800 -22.397100 -16.689700
N -15.544200 -24.766300 -13.254100
O -15.385900 -25.951400 -13.457900
N -15.200900 -24.751000 -16.892000
O -15.167000 -25.938400 -17.076300
N -15.146700 -21.595500 -14.449200
O -15.023200 -21.084900 -13.356600
O -14.703500 -23.957700 -12.907500
O -14.472500 -23.913900 -17.361100
O -14.335800 -21.548400 -15.358000
22
Fragment
H -21.911500 -27.954300 -18.454400
H -21.648300 -29.172300 -17.503700
O -21.488900 -31.920200 -20.684100
O -21.382200 -29.612500 -19.434700
C -21.341900 -28.709000 -18.286500
N -21.318000 -31.387400 -21.741500
O -21.250300 -31.981600 -22.780800
C -21.171400 -29.925800 -21.771400
C -21.137700 -29.111700 -20.629000
N -21.027000 -29.419700 -22.977400
H -21.022200 -25.107200 -20.476700
O -20.941500 -28.466500 -25.370000
N -20.876400 -27.821100 -20.761500
C -20.816000 -28.138400 -23.100900
N -20.686700 -27.673100 -24.486700
C -20.679800 -27.301400 -21.963300
H -20.440800 -28.407200 -18.148700
O -20.349200 -26.524300 -24.681700
O -20.340600 -26.043200 -22.096100
C -20.167800 -25.252900 -20.890300
H -19.772600 -24.408000 -21.115700
H -19.592900 -25.721400 -20.280100
58
Fragment
O -20.774500 -21.548400 -14.612100
O -20.637800 -23.913900 -12.609000
O -20.406700 -23.957700 -17.062600
O -20.087100 -21.084900 -16.613500
N -19.963600 -21.595500 -15.520900
O -19.943300 -25.938400 -12.893700
N -19.909400 -24.751000 -13.078100
O -19.724400 -25.951400 -16.512200
N -19.566100 -24.766300 -16.716000
H -19.119500 -22.397100 -13.280300
N -18.966200 -24.287700 -14.040000
N -18.762800 -22.254500 -15.254800
C -18.592100 -22.863500 -13.962500
N -18.280100 -24.287200 -16.560000
H -18.204800 -22.348500 -17.193200
C -18.042300 -22.845600 -16.364900
H -17.859900 -25.988600 -13.867700
C -17.756400 -25.078700 -14.217800
C -17.353900 -25.078700 -15.752300
H -17.250400 -25.988600 -16.102300
C -17.067900 -22.845600 -13.605200
H -16.905400 -22.348500 -12.776800
N -16.830200 -24.287200 -13.410000
C -16.518100 -22.863500 -16.007600
N -16.347500 -22.254500 -14.715300
N -16.144100 -24.287700 -15.930000
H -15.990800 -22.397100 -16.689700
N -15.544200 -24.766300 -13.254100
O -15.385900 -25.951400 -13.457900
N -15.200900 -24.751000 -16.892000
O -15.167000 -25.938400 -17.076300
N -15.146700 -21.595500 -14.449200
O -15.023200 -21.084900 -13.356600
O -14.703500 -23.957700 -12.907500
O -14.472500 -23.913900 -17.361100
O -14.335800 -21.548400 -15.358000
H -21.911500 -27.954300 -18.454400
H -21.648300 -29.172300 -17.503700
O -21.488900 -31.920200 -20.684100
O -21.382200 -29.612500 -19.434700
C -21.341900 -28.709000 -18.286500
N -21.318000 -31.387400 -21.741500
O -21.250300 -31.981600 -22.780800
C -21.171400 -29.925800 -21.771400
C -21.137700 -29.111700 -20.629000
N -21.027000 -29.419700 -22.977400
H -21.022200 -25.107200 -20.476700
O -20.941500 -28.466500 -25.370000
N -20.876400 -27.821100 -20.761500
C -20.816000 -28.138400 -23.100900
N -20.686700 -27.673100 -24.486700
C -20.679800 -27.301400 -21.963300
H -20.440800 -28.407200 -18.148700
O -20.349200 -26.524300 -24.681700
O -20.340600 -26.043200 -22.096100
C -20.167800 -25.252900 -20.890300
H -19.772600 -24.408000 -21.115700
H -19.592900 -25.721400 -20.280100
