36
Fragment
O -20.774500 -21.548400 -14.612100
O -20.637800 -23.913900 -12.609000
O -20.406700 -23.957700 -17.062600
O -20.087100 -21.084900 -16.613500
N -19.963600 -21.595500 -15.520900
O -19.943300 -25.938400 -12.893700
N -19.909400 -24.751000 -13.078100
O -19.724400 -25.951400 -16.512200
N -19.566100 -24.766300 -16.716000
H -19.119500 -22.397100 -13.280300
N -18.966200 -24.287700 -14.040000
N -18.762800 -22.254500 -15.254800
C -18.592100 -22.863500 -13.962500
N -18.280100 -24.287200 -16.560000
H -18.204800 -22.348500 -17.193200
C -18.042300 -22.845600 -16.364900
H -17.859900 -25.988600 -13.867700
C -17.756400 -25.078700 -14.217800
C -17.353900 -25.078700 -15.752300
H -17.250400 -25.988600 -16.102300
C -17.067900 -22.845600 -13.605200
H -16.905400 -22.348500 -12.776800
N -16.830200 -24.287200 -13.410000
C -16.518100 -22.863500 -16.007600
N -16.347500 -22.254500 -14.715300
N -16.144100 -24.287700 -15.930000
H -15.990800 -22.397100 -16.689700
N -15.544200 -24.766300 -13.254100
O -15.385900 -25.951400 -13.457900
N -15.200900 -24.751000 -16.892000
O -15.167000 -25.938400 -17.076300
N -15.146700 -21.595500 -14.449200
O -15.023200 -21.084900 -13.356600
O -14.703500 -23.957700 -12.907500
O -14.472500 -23.913900 -17.361100
O -14.335800 -21.548400 -15.358000
22
Fragment
H -20.945500 -35.003600 -15.683900
H -20.765800 -36.317000 -14.848400
C -20.370600 -35.472100 -15.073700
O -20.197900 -34.681800 -13.868000
O -20.189200 -34.200700 -11.282400
H -20.097600 -32.317800 -17.815400
C -19.858600 -33.423600 -14.000800
N -19.851700 -33.051900 -11.477300
C -19.722400 -32.586600 -12.863100
N -19.662000 -32.903900 -15.202600
O -19.596900 -32.258500 -10.594100
H -19.516300 -35.617800 -15.487300
N -19.511500 -31.305300 -12.986600
C -19.400700 -31.613300 -15.335100
C -19.367100 -30.799200 -14.192600
O -19.288200 -28.743400 -13.183200
N -19.220500 -29.337600 -14.222600
C -19.196500 -32.016000 -17.677500
O -19.156200 -31.112500 -16.529300
O -19.049500 -28.804800 -15.279900
H -18.890100 -31.552700 -18.460400
H -18.626900 -32.770700 -17.509700
58
Fragment
O -20.774500 -21.548400 -14.612100
O -20.637800 -23.913900 -12.609000
O -20.406700 -23.957700 -17.062600
O -20.087100 -21.084900 -16.613500
N -19.963600 -21.595500 -15.520900
O -19.943300 -25.938400 -12.893700
N -19.909400 -24.751000 -13.078100
O -19.724400 -25.951400 -16.512200
N -19.566100 -24.766300 -16.716000
H -19.119500 -22.397100 -13.280300
N -18.966200 -24.287700 -14.040000
N -18.762800 -22.254500 -15.254800
C -18.592100 -22.863500 -13.962500
N -18.280100 -24.287200 -16.560000
H -18.204800 -22.348500 -17.193200
C -18.042300 -22.845600 -16.364900
H -17.859900 -25.988600 -13.867700
C -17.756400 -25.078700 -14.217800
C -17.353900 -25.078700 -15.752300
H -17.250400 -25.988600 -16.102300
C -17.067900 -22.845600 -13.605200
H -16.905400 -22.348500 -12.776800
N -16.830200 -24.287200 -13.410000
C -16.518100 -22.863500 -16.007600
N -16.347500 -22.254500 -14.715300
N -16.144100 -24.287700 -15.930000
H -15.990800 -22.397100 -16.689700
N -15.544200 -24.766300 -13.254100
O -15.385900 -25.951400 -13.457900
N -15.200900 -24.751000 -16.892000
O -15.167000 -25.938400 -17.076300
N -15.146700 -21.595500 -14.449200
O -15.023200 -21.084900 -13.356600
O -14.703500 -23.957700 -12.907500
O -14.472500 -23.913900 -17.361100
O -14.335800 -21.548400 -15.358000
H -20.945500 -35.003600 -15.683900
H -20.765800 -36.317000 -14.848400
C -20.370600 -35.472100 -15.073700
O -20.197900 -34.681800 -13.868000
O -20.189200 -34.200700 -11.282400
H -20.097600 -32.317800 -17.815400
C -19.858600 -33.423600 -14.000800
N -19.851700 -33.051900 -11.477300
C -19.722400 -32.586600 -12.863100
N -19.662000 -32.903900 -15.202600
O -19.596900 -32.258500 -10.594100
H -19.516300 -35.617800 -15.487300
N -19.511500 -31.305300 -12.986600
C -19.400700 -31.613300 -15.335100
C -19.367100 -30.799200 -14.192600
O -19.288200 -28.743400 -13.183200
N -19.220500 -29.337600 -14.222600
C -19.196500 -32.016000 -17.677500
O -19.156200 -31.112500 -16.529300
O -19.049500 -28.804800 -15.279900
H -18.890100 -31.552700 -18.460400
H -18.626900 -32.770700 -17.509700
