16
Fragment
H -23.266400 -15.947000 -34.040400
H -23.165200 -15.048200 -32.720800
C -22.733200 -15.757800 -33.240300
H -22.666400 -16.568500 -32.692900
H -21.692200 -15.357700 -35.656800
C -21.359400 -15.314900 -33.647500
C -21.033700 -15.170200 -34.998400
N -20.478700 -15.009400 -32.701700
N -19.813900 -14.774200 -35.386200
C -19.249700 -14.644100 -33.098800
C -18.914900 -14.517200 -34.454300
H -18.587200 -14.465400 -32.442500
H -17.546900 -13.312900 -35.397100
C -17.516800 -14.130800 -34.859000
H -17.117800 -14.855000 -35.385500
H -16.976100 -13.974800 -34.056600
36
Fragment
O -23.907800 -15.243800 -39.873500
N -23.247500 -14.726500 -38.984300
O -23.213800 -14.911600 -42.656000
O -23.147100 -15.108000 -37.818000
H -23.100200 -13.089000 -41.257500
N -22.594700 -13.561000 -39.318300
C -22.273100 -13.291000 -40.732500
O -22.221800 -9.787200 -39.378100
N -22.136500 -15.243800 -42.192400
O -22.095400 -10.650400 -37.386900
N -21.938000 -10.665800 -38.577800
H -21.852100 -12.927300 -37.502800
H -21.805600 -11.221100 -41.002400
O -21.536500 -16.271100 -42.414300
C -21.523800 -13.069600 -38.436100
N -21.486300 -14.310200 -41.375800
C -21.380400 -12.014800 -40.568500
N -21.238600 -11.809500 -39.102600
N -20.483600 -15.137100 -39.367700
O -20.261800 -10.529200 -42.487800
C -20.237800 -14.008000 -38.470400
C -20.232300 -14.678000 -40.746900
N -20.068300 -12.256500 -41.105400
H -19.972200 -14.310200 -37.556200
N -19.831300 -16.350300 -38.992700
O -19.768300 -16.583900 -37.816200
H -19.766700 -15.386800 -41.276100
N -19.525300 -11.382700 -42.039100
O -19.488400 -17.087400 -39.906600
C -19.346400 -13.393700 -40.641300
N -19.118500 -13.371000 -39.186800
O -18.736100 -12.098800 -37.413500
N -18.521200 -12.277500 -38.600300
H -18.486900 -13.505200 -41.139200
O -18.350700 -11.584000 -42.345700
O -17.799400 -11.603400 -39.320800
52
Fragment
H -23.266400 -15.947000 -34.040400
H -23.165200 -15.048200 -32.720800
C -22.733200 -15.757800 -33.240300
H -22.666400 -16.568500 -32.692900
H -21.692200 -15.357700 -35.656800
C -21.359400 -15.314900 -33.647500
C -21.033700 -15.170200 -34.998400
N -20.478700 -15.009400 -32.701700
N -19.813900 -14.774200 -35.386200
C -19.249700 -14.644100 -33.098800
C -18.914900 -14.517200 -34.454300
H -18.587200 -14.465400 -32.442500
H -17.546900 -13.312900 -35.397100
C -17.516800 -14.130800 -34.859000
H -17.117800 -14.855000 -35.385500
H -16.976100 -13.974800 -34.056600
O -23.907800 -15.243800 -39.873500
N -23.247500 -14.726500 -38.984300
O -23.213800 -14.911600 -42.656000
O -23.147100 -15.108000 -37.818000
H -23.100200 -13.089000 -41.257500
N -22.594700 -13.561000 -39.318300
C -22.273100 -13.291000 -40.732500
O -22.221800 -9.787200 -39.378100
N -22.136500 -15.243800 -42.192400
O -22.095400 -10.650400 -37.386900
N -21.938000 -10.665800 -38.577800
H -21.852100 -12.927300 -37.502800
H -21.805600 -11.221100 -41.002400
O -21.536500 -16.271100 -42.414300
C -21.523800 -13.069600 -38.436100
N -21.486300 -14.310200 -41.375800
C -21.380400 -12.014800 -40.568500
N -21.238600 -11.809500 -39.102600
N -20.483600 -15.137100 -39.367700
O -20.261800 -10.529200 -42.487800
C -20.237800 -14.008000 -38.470400
C -20.232300 -14.678000 -40.746900
N -20.068300 -12.256500 -41.105400
H -19.972200 -14.310200 -37.556200
N -19.831300 -16.350300 -38.992700
O -19.768300 -16.583900 -37.816200
H -19.766700 -15.386800 -41.276100
N -19.525300 -11.382700 -42.039100
O -19.488400 -17.087400 -39.906600
C -19.346400 -13.393700 -40.641300
N -19.118500 -13.371000 -39.186800
O -18.736100 -12.098800 -37.413500
N -18.521200 -12.277500 -38.600300
H -18.486900 -13.505200 -41.139200
O -18.350700 -11.584000 -42.345700
O -17.799400 -11.603400 -39.320800
