18
Fragment
H -5.190100 -20.107000 -8.327000
O -4.976800 -23.160600 -4.402300
N -4.682100 -20.477700 -9.143200
N -4.659700 -19.833400 -10.336200
N -4.312200 -22.400100 -6.916900
N -4.162500 -23.847500 -4.941500
O -4.154500 -19.311200 -12.909000
C -3.942700 -21.599900 -9.238700
C -3.889200 -20.624700 -11.049100
C -3.840500 -23.501800 -6.316900
C -3.787000 -22.526600 -8.127300
O -3.575200 -24.815300 -4.457000
N -3.567300 -20.279100 -12.424500
N -3.417600 -21.726400 -10.449100
N -3.070100 -24.293100 -7.029800
N -3.047600 -23.648900 -8.222800
O -2.752900 -20.966000 -12.963700
H -2.539600 -24.019500 -9.039000
18
Fragment
H -5.223500 -12.752600 -4.697500
O -5.010200 -15.806100 -8.622200
N -4.715500 -13.123200 -3.881300
N -4.693000 -12.479000 -2.688300
N -4.345600 -15.045700 -6.107600
N -4.195900 -16.493000 -8.083000
O -4.187900 -11.956800 -0.115500
C -3.976100 -14.245500 -3.785800
C -3.922600 -13.270300 -1.975400
C -3.873900 -16.147400 -6.707600
C -3.820400 -15.172200 -4.897200
O -3.608600 -17.460900 -8.567500
N -3.600600 -12.924700 -0.600000
N -3.450900 -14.372000 -2.575400
N -3.103500 -16.938700 -5.994700
N -3.081000 -16.294500 -4.801700
O -2.786300 -13.611600 -0.060800
H -2.573000 -16.665100 -3.985500
36
Fragment
H -5.190100 -20.107000 -8.327000
O -4.976800 -23.160600 -4.402300
N -4.682100 -20.477700 -9.143200
N -4.659700 -19.833400 -10.336200
N -4.312200 -22.400100 -6.916900
N -4.162500 -23.847500 -4.941500
O -4.154500 -19.311200 -12.909000
C -3.942700 -21.599900 -9.238700
C -3.889200 -20.624700 -11.049100
C -3.840500 -23.501800 -6.316900
C -3.787000 -22.526600 -8.127300
O -3.575200 -24.815300 -4.457000
N -3.567300 -20.279100 -12.424500
N -3.417600 -21.726400 -10.449100
N -3.070100 -24.293100 -7.029800
N -3.047600 -23.648900 -8.222800
O -2.752900 -20.966000 -12.963700
H -2.539600 -24.019500 -9.039000
H -5.223500 -12.752600 -4.697500
O -5.010200 -15.806100 -8.622200
N -4.715500 -13.123200 -3.881300
N -4.693000 -12.479000 -2.688300
N -4.345600 -15.045700 -6.107600
N -4.195900 -16.493000 -8.083000
O -4.187900 -11.956800 -0.115500
C -3.976100 -14.245500 -3.785800
C -3.922600 -13.270300 -1.975400
C -3.873900 -16.147400 -6.707600
C -3.820400 -15.172200 -4.897200
O -3.608600 -17.460900 -8.567500
N -3.600600 -12.924700 -0.600000
N -3.450900 -14.372000 -2.575400
N -3.103500 -16.938700 -5.994700
N -3.081000 -16.294500 -4.801700
O -2.786300 -13.611600 -0.060800
H -2.573000 -16.665100 -3.985500
