25
Fragment
O -18.398100 -43.003700 -12.573400
H -18.207100 -45.576500 -13.436800
H -17.930100 -43.593700 -10.227200
C -17.842500 -44.024300 -12.124800
N -17.639700 -44.239000 -10.818700
C -17.355600 -45.122500 -13.059600
H -17.158200 -43.962000 -14.749400
H -17.134800 -45.066700 -10.544600
H -16.817000 -45.746500 -12.600100
C -16.599900 -44.552000 -14.248200
H -16.301700 -41.894200 -14.237400
H -16.247600 -45.349900 -14.872100
C -15.528500 -42.343400 -13.813300
N -15.482000 -43.703100 -13.823400
H -14.742700 -46.596300 -13.667600
N -14.481400 -41.775800 -13.263000
C -14.282600 -44.045200 -13.202400
N -14.015900 -46.468200 -13.259400
C -13.691000 -42.834300 -12.868400
C -13.591100 -45.242300 -12.939800
H -13.538400 -47.162800 -13.011200
N -12.480600 -42.716500 -12.265500
N -12.387100 -45.125600 -12.340500
C -11.924200 -43.894000 -12.044100
H -11.021900 -43.877000 -11.612000
25
Fragment
O -17.559800 -43.003700 -19.785900
H -17.368800 -45.576500 -20.649200
H -17.091800 -43.593700 -17.439700
C -17.004200 -44.024300 -19.337300
N -16.801400 -44.239000 -18.031100
C -16.517300 -45.122500 -20.272000
H -16.319900 -43.962000 -21.961900
H -16.296400 -45.066700 -17.757000
H -15.978700 -45.746500 -19.812600
C -15.761500 -44.552000 -21.460600
H -15.463300 -41.894200 -21.449800
H -15.409300 -45.349900 -22.084500
C -14.690200 -42.343400 -21.025700
N -14.643700 -43.703100 -21.035800
H -13.904300 -46.596300 -20.880000
N -13.643000 -41.775800 -20.475400
C -13.444200 -44.045200 -20.414800
N -13.177600 -46.468200 -20.471800
C -12.852600 -42.834300 -20.080900
C -12.752700 -45.242300 -20.152300
H -12.700100 -47.162800 -20.223700
N -11.642200 -42.716500 -19.477900
N -11.548800 -45.125600 -19.552900
C -11.085800 -43.894000 -19.256500
H -10.183500 -43.877000 -18.824500
50
Fragment
O -18.398100 -43.003700 -12.573400
H -18.207100 -45.576500 -13.436800
H -17.930100 -43.593700 -10.227200
C -17.842500 -44.024300 -12.124800
N -17.639700 -44.239000 -10.818700
C -17.355600 -45.122500 -13.059600
H -17.158200 -43.962000 -14.749400
H -17.134800 -45.066700 -10.544600
H -16.817000 -45.746500 -12.600100
C -16.599900 -44.552000 -14.248200
H -16.301700 -41.894200 -14.237400
H -16.247600 -45.349900 -14.872100
C -15.528500 -42.343400 -13.813300
N -15.482000 -43.703100 -13.823400
H -14.742700 -46.596300 -13.667600
N -14.481400 -41.775800 -13.263000
C -14.282600 -44.045200 -13.202400
N -14.015900 -46.468200 -13.259400
C -13.691000 -42.834300 -12.868400
C -13.591100 -45.242300 -12.939800
H -13.538400 -47.162800 -13.011200
N -12.480600 -42.716500 -12.265500
N -12.387100 -45.125600 -12.340500
C -11.924200 -43.894000 -12.044100
H -11.021900 -43.877000 -11.612000
O -17.559800 -43.003700 -19.785900
H -17.368800 -45.576500 -20.649200
H -17.091800 -43.593700 -17.439700
C -17.004200 -44.024300 -19.337300
N -16.801400 -44.239000 -18.031100
C -16.517300 -45.122500 -20.272000
H -16.319900 -43.962000 -21.961900
H -16.296400 -45.066700 -17.757000
H -15.978700 -45.746500 -19.812600
C -15.761500 -44.552000 -21.460600
H -15.463300 -41.894200 -21.449800
H -15.409300 -45.349900 -22.084500
C -14.690200 -42.343400 -21.025700
N -14.643700 -43.703100 -21.035800
H -13.904300 -46.596300 -20.880000
N -13.643000 -41.775800 -20.475400
C -13.444200 -44.045200 -20.414800
N -13.177600 -46.468200 -20.471800
C -12.852600 -42.834300 -20.080900
C -12.752700 -45.242300 -20.152300
H -12.700100 -47.162800 -20.223700
N -11.642200 -42.716500 -19.477900
N -11.548800 -45.125600 -19.552900
C -11.085800 -43.894000 -19.256500
H -10.183500 -43.877000 -18.824500
