25
Fragment
O -18.398100 -43.003700 -12.573400
H -18.207100 -45.576500 -13.436800
H -17.930100 -43.593700 -10.227200
C -17.842500 -44.024300 -12.124800
N -17.639700 -44.239000 -10.818700
C -17.355600 -45.122500 -13.059600
H -17.158200 -43.962000 -14.749400
H -17.134800 -45.066700 -10.544600
H -16.817000 -45.746500 -12.600100
C -16.599900 -44.552000 -14.248200
H -16.301700 -41.894200 -14.237400
H -16.247600 -45.349900 -14.872100
C -15.528500 -42.343400 -13.813300
N -15.482000 -43.703100 -13.823400
H -14.742700 -46.596300 -13.667600
N -14.481400 -41.775800 -13.263000
C -14.282600 -44.045200 -13.202400
N -14.015900 -46.468200 -13.259400
C -13.691000 -42.834300 -12.868400
C -13.591100 -45.242300 -12.939800
H -13.538400 -47.162800 -13.011200
N -12.480600 -42.716500 -12.265500
N -12.387100 -45.125600 -12.340500
C -11.924200 -43.894000 -12.044100
H -11.021900 -43.877000 -11.612000
25
Fragment
O -8.548100 -43.003700 -12.573400
H -8.357100 -45.576500 -13.436800
H -8.080100 -43.593700 -10.227200
C -7.992500 -44.024300 -12.124800
N -7.789700 -44.239000 -10.818700
C -7.505600 -45.122500 -13.059600
H -7.308200 -43.962000 -14.749400
H -7.284800 -45.066700 -10.544600
H -6.967000 -45.746500 -12.600100
C -6.749900 -44.552000 -14.248200
H -6.451700 -41.894200 -14.237400
H -6.397600 -45.349900 -14.872100
C -5.678500 -42.343400 -13.813300
N -5.632000 -43.703100 -13.823400
H -4.892700 -46.596300 -13.667600
N -4.631400 -41.775800 -13.263000
C -4.432600 -44.045200 -13.202400
N -4.165900 -46.468200 -13.259400
C -3.841000 -42.834300 -12.868400
C -3.741100 -45.242300 -12.939800
H -3.688400 -47.162800 -13.011200
N -2.630600 -42.716500 -12.265500
N -2.537100 -45.125600 -12.340500
C -2.074200 -43.894000 -12.044100
H -1.171900 -43.877000 -11.612000
50
Fragment
O -18.398100 -43.003700 -12.573400
H -18.207100 -45.576500 -13.436800
H -17.930100 -43.593700 -10.227200
C -17.842500 -44.024300 -12.124800
N -17.639700 -44.239000 -10.818700
C -17.355600 -45.122500 -13.059600
H -17.158200 -43.962000 -14.749400
H -17.134800 -45.066700 -10.544600
H -16.817000 -45.746500 -12.600100
C -16.599900 -44.552000 -14.248200
H -16.301700 -41.894200 -14.237400
H -16.247600 -45.349900 -14.872100
C -15.528500 -42.343400 -13.813300
N -15.482000 -43.703100 -13.823400
H -14.742700 -46.596300 -13.667600
N -14.481400 -41.775800 -13.263000
C -14.282600 -44.045200 -13.202400
N -14.015900 -46.468200 -13.259400
C -13.691000 -42.834300 -12.868400
C -13.591100 -45.242300 -12.939800
H -13.538400 -47.162800 -13.011200
N -12.480600 -42.716500 -12.265500
N -12.387100 -45.125600 -12.340500
C -11.924200 -43.894000 -12.044100
H -11.021900 -43.877000 -11.612000
O -8.548100 -43.003700 -12.573400
H -8.357100 -45.576500 -13.436800
H -8.080100 -43.593700 -10.227200
C -7.992500 -44.024300 -12.124800
N -7.789700 -44.239000 -10.818700
C -7.505600 -45.122500 -13.059600
H -7.308200 -43.962000 -14.749400
H -7.284800 -45.066700 -10.544600
H -6.967000 -45.746500 -12.600100
C -6.749900 -44.552000 -14.248200
H -6.451700 -41.894200 -14.237400
H -6.397600 -45.349900 -14.872100
C -5.678500 -42.343400 -13.813300
N -5.632000 -43.703100 -13.823400
H -4.892700 -46.596300 -13.667600
N -4.631400 -41.775800 -13.263000
C -4.432600 -44.045200 -13.202400
N -4.165900 -46.468200 -13.259400
C -3.841000 -42.834300 -12.868400
C -3.741100 -45.242300 -12.939800
H -3.688400 -47.162800 -13.011200
N -2.630600 -42.716500 -12.265500
N -2.537100 -45.125600 -12.340500
C -2.074200 -43.894000 -12.044100
H -1.171900 -43.877000 -11.612000
