25
Fragment
O -18.398100 -43.003700 -12.573400
H -18.207100 -45.576500 -13.436800
H -17.930100 -43.593700 -10.227200
C -17.842500 -44.024300 -12.124800
N -17.639700 -44.239000 -10.818700
C -17.355600 -45.122500 -13.059600
H -17.158200 -43.962000 -14.749400
H -17.134800 -45.066700 -10.544600
H -16.817000 -45.746500 -12.600100
C -16.599900 -44.552000 -14.248200
H -16.301700 -41.894200 -14.237400
H -16.247600 -45.349900 -14.872100
C -15.528500 -42.343400 -13.813300
N -15.482000 -43.703100 -13.823400
H -14.742700 -46.596300 -13.667600
N -14.481400 -41.775800 -13.263000
C -14.282600 -44.045200 -13.202400
N -14.015900 -46.468200 -13.259400
C -13.691000 -42.834300 -12.868400
C -13.591100 -45.242300 -12.939800
H -13.538400 -47.162800 -13.011200
N -12.480600 -42.716500 -12.265500
N -12.387100 -45.125600 -12.340500
C -11.924200 -43.894000 -12.044100
H -11.021900 -43.877000 -11.612000
25
Fragment
H -16.978200 -48.125900 -11.128800
C -16.131100 -47.961600 -10.637600
N -15.835300 -46.687200 -10.292200
N -15.452200 -49.062600 -10.385200
H -14.908400 -44.613500 -9.614200
C -14.688400 -46.460600 -9.626400
N -14.414500 -45.192200 -9.278800
C -14.300600 -48.834900 -9.700000
C -13.883000 -47.568700 -9.317800
H -13.596100 -45.038300 -8.871300
N -13.408200 -49.794300 -9.284600
N -12.683700 -47.765000 -8.653500
C -12.476100 -49.108800 -8.676600
H -12.272900 -46.114700 -7.544200
C -11.752800 -46.774700 -8.094500
H -11.717900 -49.485500 -8.251000
H -11.591100 -45.576500 -9.765600
H -11.140100 -47.304400 -7.544200
C -10.991200 -46.044200 -9.189400
H -10.979100 -46.567900 -11.640900
H -10.375400 -45.463200 -8.784800
N -10.355400 -47.036200 -11.304100
C -10.135600 -46.995900 -10.000100
H -9.794200 -47.616000 -11.835600
O -9.288100 -47.694500 -9.436000
50
Fragment
O -18.398100 -43.003700 -12.573400
H -18.207100 -45.576500 -13.436800
H -17.930100 -43.593700 -10.227200
C -17.842500 -44.024300 -12.124800
N -17.639700 -44.239000 -10.818700
C -17.355600 -45.122500 -13.059600
H -17.158200 -43.962000 -14.749400
H -17.134800 -45.066700 -10.544600
H -16.817000 -45.746500 -12.600100
C -16.599900 -44.552000 -14.248200
H -16.301700 -41.894200 -14.237400
H -16.247600 -45.349900 -14.872100
C -15.528500 -42.343400 -13.813300
N -15.482000 -43.703100 -13.823400
H -14.742700 -46.596300 -13.667600
N -14.481400 -41.775800 -13.263000
C -14.282600 -44.045200 -13.202400
N -14.015900 -46.468200 -13.259400
C -13.691000 -42.834300 -12.868400
C -13.591100 -45.242300 -12.939800
H -13.538400 -47.162800 -13.011200
N -12.480600 -42.716500 -12.265500
N -12.387100 -45.125600 -12.340500
C -11.924200 -43.894000 -12.044100
H -11.021900 -43.877000 -11.612000
H -16.978200 -48.125900 -11.128800
C -16.131100 -47.961600 -10.637600
N -15.835300 -46.687200 -10.292200
N -15.452200 -49.062600 -10.385200
H -14.908400 -44.613500 -9.614200
C -14.688400 -46.460600 -9.626400
N -14.414500 -45.192200 -9.278800
C -14.300600 -48.834900 -9.700000
C -13.883000 -47.568700 -9.317800
H -13.596100 -45.038300 -8.871300
N -13.408200 -49.794300 -9.284600
N -12.683700 -47.765000 -8.653500
C -12.476100 -49.108800 -8.676600
H -12.272900 -46.114700 -7.544200
C -11.752800 -46.774700 -8.094500
H -11.717900 -49.485500 -8.251000
H -11.591100 -45.576500 -9.765600
H -11.140100 -47.304400 -7.544200
C -10.991200 -46.044200 -9.189400
H -10.979100 -46.567900 -11.640900
H -10.375400 -45.463200 -8.784800
N -10.355400 -47.036200 -11.304100
C -10.135600 -46.995900 -10.000100
H -9.794200 -47.616000 -11.835600
O -9.288100 -47.694500 -9.436000
