25
Fragment
O -18.398100 -43.003700 -12.573400
H -18.207100 -45.576500 -13.436800
H -17.930100 -43.593700 -10.227200
C -17.842500 -44.024300 -12.124800
N -17.639700 -44.239000 -10.818700
C -17.355600 -45.122500 -13.059600
H -17.158200 -43.962000 -14.749400
H -17.134800 -45.066700 -10.544600
H -16.817000 -45.746500 -12.600100
C -16.599900 -44.552000 -14.248200
H -16.301700 -41.894200 -14.237400
H -16.247600 -45.349900 -14.872100
C -15.528500 -42.343400 -13.813300
N -15.482000 -43.703100 -13.823400
H -14.742700 -46.596300 -13.667600
N -14.481400 -41.775800 -13.263000
C -14.282600 -44.045200 -13.202400
N -14.015900 -46.468200 -13.259400
C -13.691000 -42.834300 -12.868400
C -13.591100 -45.242300 -12.939800
H -13.538400 -47.162800 -13.011200
N -12.480600 -42.716500 -12.265500
N -12.387100 -45.125600 -12.340500
C -11.924200 -43.894000 -12.044100
H -11.021900 -43.877000 -11.612000
25
Fragment
H -25.024800 -41.101000 -17.237700
C -24.122500 -41.084000 -16.805700
N -23.659500 -39.852400 -16.509300
N -23.566100 -42.261500 -16.584300
H -22.508200 -37.815200 -15.838500
C -22.455600 -39.735700 -15.909900
C -22.355700 -42.143700 -15.981300
N -22.030800 -38.509800 -15.590400
C -21.764100 -40.932800 -15.647400
N -21.565300 -43.202200 -15.586800
H -21.304000 -38.381700 -15.182200
N -20.564600 -41.274900 -15.026400
C -20.518200 -42.634600 -15.036500
H -19.799100 -39.628100 -13.977700
H -19.745000 -43.083800 -14.612400
C -19.446800 -40.426000 -14.601600
H -19.229600 -39.231500 -16.249600
H -18.911900 -39.911300 -18.305200
H -18.888500 -41.016000 -14.100300
C -18.691000 -39.855500 -15.790200
N -18.406900 -40.739000 -18.031100
C -18.204200 -40.953700 -16.724900
H -18.116600 -41.384300 -18.622500
H -17.839500 -39.401500 -15.413000
O -17.648600 -41.974300 -16.276300
50
Fragment
O -18.398100 -43.003700 -12.573400
H -18.207100 -45.576500 -13.436800
H -17.930100 -43.593700 -10.227200
C -17.842500 -44.024300 -12.124800
N -17.639700 -44.239000 -10.818700
C -17.355600 -45.122500 -13.059600
H -17.158200 -43.962000 -14.749400
H -17.134800 -45.066700 -10.544600
H -16.817000 -45.746500 -12.600100
C -16.599900 -44.552000 -14.248200
H -16.301700 -41.894200 -14.237400
H -16.247600 -45.349900 -14.872100
C -15.528500 -42.343400 -13.813300
N -15.482000 -43.703100 -13.823400
H -14.742700 -46.596300 -13.667600
N -14.481400 -41.775800 -13.263000
C -14.282600 -44.045200 -13.202400
N -14.015900 -46.468200 -13.259400
C -13.691000 -42.834300 -12.868400
C -13.591100 -45.242300 -12.939800
H -13.538400 -47.162800 -13.011200
N -12.480600 -42.716500 -12.265500
N -12.387100 -45.125600 -12.340500
C -11.924200 -43.894000 -12.044100
H -11.021900 -43.877000 -11.612000
H -25.024800 -41.101000 -17.237700
C -24.122500 -41.084000 -16.805700
N -23.659500 -39.852400 -16.509300
N -23.566100 -42.261500 -16.584300
H -22.508200 -37.815200 -15.838500
C -22.455600 -39.735700 -15.909900
C -22.355700 -42.143700 -15.981300
N -22.030800 -38.509800 -15.590400
C -21.764100 -40.932800 -15.647400
N -21.565300 -43.202200 -15.586800
H -21.304000 -38.381700 -15.182200
N -20.564600 -41.274900 -15.026400
C -20.518200 -42.634600 -15.036500
H -19.799100 -39.628100 -13.977700
H -19.745000 -43.083800 -14.612400
C -19.446800 -40.426000 -14.601600
H -19.229600 -39.231500 -16.249600
H -18.911900 -39.911300 -18.305200
H -18.888500 -41.016000 -14.100300
C -18.691000 -39.855500 -15.790200
N -18.406900 -40.739000 -18.031100
C -18.204200 -40.953700 -16.724900
H -18.116600 -41.384300 -18.622500
H -17.839500 -39.401500 -15.413000
O -17.648600 -41.974300 -16.276300
