12
Fragment
H -9.005300 -38.516100 -7.355600
H -8.917200 -40.758600 -7.478400
N -8.580000 -40.294400 -8.116400
C -8.572900 -38.923700 -8.087600
O -8.004200 -42.245100 -9.126800
C -7.997000 -41.007300 -9.107700
C -7.982200 -38.241400 -9.069200
F -7.966200 -36.900900 -9.067000
N -7.389700 -40.280000 -10.090400
C -7.301800 -38.900400 -10.169600
H -7.021000 -40.768200 -10.751000
O -6.709400 -38.350700 -11.075100
13
Fragment
H -7.450200 -34.800300 -10.315100
H -7.364400 -32.432800 -10.345800
C -6.938100 -34.330400 -10.984400
C -6.907700 -32.947900 -10.994300
H -6.280800 -36.021300 -11.936000
C -6.248400 -35.053400 -11.945300
C -6.178300 -32.292700 -11.985400
C -6.129900 -30.853000 -11.995800
N -6.085900 -29.712300 -11.992300
C -5.515000 -34.395300 -12.915400
C -5.474100 -33.012100 -12.948600
H -5.023800 -34.908400 -13.563100
H -4.946800 -32.541000 -13.618400
25
Fragment
H -9.005300 -38.516100 -7.355600
H -8.917200 -40.758600 -7.478400
N -8.580000 -40.294400 -8.116400
C -8.572900 -38.923700 -8.087600
O -8.004200 -42.245100 -9.126800
C -7.997000 -41.007300 -9.107700
C -7.982200 -38.241400 -9.069200
F -7.966200 -36.900900 -9.067000
N -7.389700 -40.280000 -10.090400
C -7.301800 -38.900400 -10.169600
H -7.021000 -40.768200 -10.751000
O -6.709400 -38.350700 -11.075100
H -7.450200 -34.800300 -10.315100
H -7.364400 -32.432800 -10.345800
C -6.938100 -34.330400 -10.984400
C -6.907700 -32.947900 -10.994300
H -6.280800 -36.021300 -11.936000
C -6.248400 -35.053400 -11.945300
C -6.178300 -32.292700 -11.985400
C -6.129900 -30.853000 -11.995800
N -6.085900 -29.712300 -11.992300
C -5.515000 -34.395300 -12.915400
C -5.474100 -33.012100 -12.948600
H -5.023800 -34.908400 -13.563100
H -4.946800 -32.541000 -13.618400
