12
Fragment
H -9.005300 -38.516100 -7.355600
H -8.917200 -40.758600 -7.478400
N -8.580000 -40.294400 -8.116400
C -8.572900 -38.923700 -8.087600
O -8.004200 -42.245100 -9.126800
C -7.997000 -41.007300 -9.107700
C -7.982200 -38.241400 -9.069200
F -7.966200 -36.900900 -9.067000
N -7.389700 -40.280000 -10.090400
C -7.301800 -38.900400 -10.169600
H -7.021000 -40.768200 -10.751000
O -6.709400 -38.350700 -11.075100
12
Fragment
H -7.471100 -45.606400 -10.425600
H -7.383000 -43.363900 -10.548400
N -7.045800 -43.828100 -11.186400
C -7.038600 -45.198800 -11.157600
O -6.469900 -41.877400 -12.196700
C -6.462800 -43.115200 -12.177700
C -6.447900 -45.881100 -12.139200
F -6.431900 -47.221600 -12.136900
N -5.855500 -43.842500 -13.160400
C -5.767600 -45.222100 -13.239600
H -5.486700 -43.354300 -13.821000
O -5.175200 -45.771800 -14.145100
24
Fragment
H -9.005300 -38.516100 -7.355600
H -8.917200 -40.758600 -7.478400
N -8.580000 -40.294400 -8.116400
C -8.572900 -38.923700 -8.087600
O -8.004200 -42.245100 -9.126800
C -7.997000 -41.007300 -9.107700
C -7.982200 -38.241400 -9.069200
F -7.966200 -36.900900 -9.067000
N -7.389700 -40.280000 -10.090400
C -7.301800 -38.900400 -10.169600
H -7.021000 -40.768200 -10.751000
O -6.709400 -38.350700 -11.075100
H -7.471100 -45.606400 -10.425600
H -7.383000 -43.363900 -10.548400
N -7.045800 -43.828100 -11.186400
C -7.038600 -45.198800 -11.157600
O -6.469900 -41.877400 -12.196700
C -6.462800 -43.115200 -12.177700
C -6.447900 -45.881100 -12.139200
F -6.431900 -47.221600 -12.136900
N -5.855500 -43.842500 -13.160400
C -5.767600 -45.222100 -13.239600
H -5.486700 -43.354300 -13.821000
O -5.175200 -45.771800 -14.145100
