12
Fragment
H -9.005300 -38.516100 -7.355600
H -8.917200 -40.758600 -7.478400
N -8.580000 -40.294400 -8.116400
C -8.572900 -38.923700 -8.087600
O -8.004200 -42.245100 -9.126800
C -7.997000 -41.007300 -9.107700
C -7.982200 -38.241400 -9.069200
F -7.966200 -36.900900 -9.067000
N -7.389700 -40.280000 -10.090400
C -7.301800 -38.900400 -10.169600
H -7.021000 -40.768200 -10.751000
O -6.709400 -38.350700 -11.075100
13
Fragment
H -6.985700 -39.564000 -4.801400
H -6.908800 -37.196600 -4.856700
C -6.458500 -39.092900 -5.471200
C -6.417500 -37.709700 -5.504500
N -5.846600 -42.392700 -6.427500
C -5.802600 -41.252000 -6.424000
C -5.754300 -39.812300 -6.434400
C -5.684100 -37.051600 -6.474600
H -5.651700 -36.083700 -6.483800
C -5.024800 -39.157100 -7.425500
C -4.994500 -37.774600 -7.435500
H -4.568100 -39.672200 -8.074000
H -4.482300 -37.304700 -8.104700
25
Fragment
H -9.005300 -38.516100 -7.355600
H -8.917200 -40.758600 -7.478400
N -8.580000 -40.294400 -8.116400
C -8.572900 -38.923700 -8.087600
O -8.004200 -42.245100 -9.126800
C -7.997000 -41.007300 -9.107700
C -7.982200 -38.241400 -9.069200
F -7.966200 -36.900900 -9.067000
N -7.389700 -40.280000 -10.090400
C -7.301800 -38.900400 -10.169600
H -7.021000 -40.768200 -10.751000
O -6.709400 -38.350700 -11.075100
H -6.985700 -39.564000 -4.801400
H -6.908800 -37.196600 -4.856700
C -6.458500 -39.092900 -5.471200
C -6.417500 -37.709700 -5.504500
N -5.846600 -42.392700 -6.427500
C -5.802600 -41.252000 -6.424000
C -5.754300 -39.812300 -6.434400
C -5.684100 -37.051600 -6.474600
H -5.651700 -36.083700 -6.483800
C -5.024800 -39.157100 -7.425500
C -4.994500 -37.774600 -7.435500
H -4.568100 -39.672200 -8.074000
H -4.482300 -37.304700 -8.104700
