12
Fragment
H -9.005300 -38.516100 -7.355600
H -8.917200 -40.758600 -7.478400
N -8.580000 -40.294400 -8.116400
C -8.572900 -38.923700 -8.087600
O -8.004200 -42.245100 -9.126800
C -7.997000 -41.007300 -9.107700
C -7.982200 -38.241400 -9.069200
F -7.966200 -36.900900 -9.067000
N -7.389700 -40.280000 -10.090400
C -7.301800 -38.900400 -10.169600
H -7.021000 -40.768200 -10.751000
O -6.709400 -38.350700 -11.075100
12
Fragment
O -12.269100 -33.754300 -7.344700
H -11.957500 -31.336800 -7.668800
C -11.676700 -33.204600 -8.250200
N -11.588800 -31.825000 -8.329400
F -11.012300 -35.204100 -9.352800
C -10.996400 -33.863600 -9.350600
C -10.981500 -31.097700 -9.312100
O -10.974400 -29.859900 -9.293000
C -10.405600 -33.181300 -10.332200
N -10.398500 -31.810600 -10.303400
H -10.061300 -31.346400 -10.941400
H -9.973200 -33.588900 -11.064200
24
Fragment
H -9.005300 -38.516100 -7.355600
H -8.917200 -40.758600 -7.478400
N -8.580000 -40.294400 -8.116400
C -8.572900 -38.923700 -8.087600
O -8.004200 -42.245100 -9.126800
C -7.997000 -41.007300 -9.107700
C -7.982200 -38.241400 -9.069200
F -7.966200 -36.900900 -9.067000
N -7.389700 -40.280000 -10.090400
C -7.301800 -38.900400 -10.169600
H -7.021000 -40.768200 -10.751000
O -6.709400 -38.350700 -11.075100
O -12.269100 -33.754300 -7.344700
H -11.957500 -31.336800 -7.668800
C -11.676700 -33.204600 -8.250200
N -11.588800 -31.825000 -8.329400
F -11.012300 -35.204100 -9.352800
C -10.996400 -33.863600 -9.350600
C -10.981500 -31.097700 -9.312100
O -10.974400 -29.859900 -9.293000
C -10.405600 -33.181300 -10.332200
N -10.398500 -31.810600 -10.303400
H -10.061300 -31.346400 -10.941400
H -9.973200 -33.588900 -11.064200
