12
Fragment
H -9.005300 -38.516100 -7.355600
H -8.917200 -40.758600 -7.478400
N -8.580000 -40.294400 -8.116400
C -8.572900 -38.923700 -8.087600
O -8.004200 -42.245100 -9.126800
C -7.997000 -41.007300 -9.107700
C -7.982200 -38.241400 -9.069200
F -7.966200 -36.900900 -9.067000
N -7.389700 -40.280000 -10.090400
C -7.301800 -38.900400 -10.169600
H -7.021000 -40.768200 -10.751000
O -6.709400 -38.350700 -11.075100
13
Fragment
H -12.497500 -44.558500 -7.871400
H -12.420500 -46.925900 -7.926700
C -11.970200 -45.029600 -8.541200
C -11.929200 -46.412800 -8.574400
N -11.358400 -41.729800 -9.497400
C -11.314400 -42.870500 -9.494000
C -11.266000 -44.310200 -9.504400
C -11.195800 -47.070900 -9.544500
H -11.163500 -48.038800 -9.553700
C -10.536600 -44.965400 -10.495500
C -10.506200 -46.347900 -10.505400
H -10.079900 -44.450300 -11.144000
H -9.994100 -46.817800 -11.174700
25
Fragment
H -9.005300 -38.516100 -7.355600
H -8.917200 -40.758600 -7.478400
N -8.580000 -40.294400 -8.116400
C -8.572900 -38.923700 -8.087600
O -8.004200 -42.245100 -9.126800
C -7.997000 -41.007300 -9.107700
C -7.982200 -38.241400 -9.069200
F -7.966200 -36.900900 -9.067000
N -7.389700 -40.280000 -10.090400
C -7.301800 -38.900400 -10.169600
H -7.021000 -40.768200 -10.751000
O -6.709400 -38.350700 -11.075100
H -12.497500 -44.558500 -7.871400
H -12.420500 -46.925900 -7.926700
C -11.970200 -45.029600 -8.541200
C -11.929200 -46.412800 -8.574400
N -11.358400 -41.729800 -9.497400
C -11.314400 -42.870500 -9.494000
C -11.266000 -44.310200 -9.504400
C -11.195800 -47.070900 -9.544500
H -11.163500 -48.038800 -9.553700
C -10.536600 -44.965400 -10.495500
C -10.506200 -46.347900 -10.505400
H -10.079900 -44.450300 -11.144000
H -9.994100 -46.817800 -11.174700
