12
Fragment
H -9.005300 -38.516100 -7.355600
H -8.917200 -40.758600 -7.478400
N -8.580000 -40.294400 -8.116400
C -8.572900 -38.923700 -8.087600
O -8.004200 -42.245100 -9.126800
C -7.997000 -41.007300 -9.107700
C -7.982200 -38.241400 -9.069200
F -7.966200 -36.900900 -9.067000
N -7.389700 -40.280000 -10.090400
C -7.301800 -38.900400 -10.169600
H -7.021000 -40.768200 -10.751000
O -6.709400 -38.350700 -11.075100
13
Fragment
H -14.031700 -39.564000 -4.801400
H -13.954800 -37.196600 -4.856700
C -13.504500 -39.092900 -5.471200
C -13.463500 -37.709700 -5.504500
N -12.892600 -42.392700 -6.427500
C -12.848600 -41.252000 -6.424000
C -12.800300 -39.812300 -6.434400
C -12.730100 -37.051600 -6.474600
H -12.697700 -36.083700 -6.483800
C -12.070800 -39.157100 -7.425500
C -12.040500 -37.774600 -7.435500
H -11.614100 -39.672200 -8.074000
H -11.528300 -37.304700 -8.104700
25
Fragment
H -9.005300 -38.516100 -7.355600
H -8.917200 -40.758600 -7.478400
N -8.580000 -40.294400 -8.116400
C -8.572900 -38.923700 -8.087600
O -8.004200 -42.245100 -9.126800
C -7.997000 -41.007300 -9.107700
C -7.982200 -38.241400 -9.069200
F -7.966200 -36.900900 -9.067000
N -7.389700 -40.280000 -10.090400
C -7.301800 -38.900400 -10.169600
H -7.021000 -40.768200 -10.751000
O -6.709400 -38.350700 -11.075100
H -14.031700 -39.564000 -4.801400
H -13.954800 -37.196600 -4.856700
C -13.504500 -39.092900 -5.471200
C -13.463500 -37.709700 -5.504500
N -12.892600 -42.392700 -6.427500
C -12.848600 -41.252000 -6.424000
C -12.800300 -39.812300 -6.434400
C -12.730100 -37.051600 -6.474600
H -12.697700 -36.083700 -6.483800
C -12.070800 -39.157100 -7.425500
C -12.040500 -37.774600 -7.435500
H -11.614100 -39.672200 -8.074000
H -11.528300 -37.304700 -8.104700
