12
Fragment
H -12.212000 -10.694200 -15.272500
H -12.183900 -10.694200 -12.922200
C -11.392400 -10.694200 -14.837000
N -11.349400 -10.694200 -13.467200
F -10.264400 -10.694200 -16.868000
C -10.249900 -10.694200 -15.517600
C -10.194800 -10.694200 -12.745300
O -10.167300 -10.694200 -11.518000
N -9.041000 -10.694200 -13.489100
C -8.965300 -10.694200 -14.856300
H -8.339500 -10.694200 -13.057000
O -7.874700 -10.694200 -15.420700
12
Fragment
H -12.258000 -10.694200 -6.848600
H -12.229900 -10.694200 -4.498300
C -11.438400 -10.694200 -6.413100
N -11.395400 -10.694200 -5.043400
F -10.310400 -10.694200 -8.444100
C -10.296000 -10.694200 -7.093700
C -10.240800 -10.694200 -4.321400
O -10.213400 -10.694200 -3.094100
N -9.087100 -10.694200 -5.065300
C -9.011300 -10.694200 -6.432500
H -8.385600 -10.694200 -4.633100
O -7.920700 -10.694200 -6.996900
24
Fragment
H -12.212000 -10.694200 -15.272500
H -12.183900 -10.694200 -12.922200
C -11.392400 -10.694200 -14.837000
N -11.349400 -10.694200 -13.467200
F -10.264400 -10.694200 -16.868000
C -10.249900 -10.694200 -15.517600
C -10.194800 -10.694200 -12.745300
O -10.167300 -10.694200 -11.518000
N -9.041000 -10.694200 -13.489100
C -8.965300 -10.694200 -14.856300
H -8.339500 -10.694200 -13.057000
O -7.874700 -10.694200 -15.420700
H -12.258000 -10.694200 -6.848600
H -12.229900 -10.694200 -4.498300
C -11.438400 -10.694200 -6.413100
N -11.395400 -10.694200 -5.043400
F -10.310400 -10.694200 -8.444100
C -10.296000 -10.694200 -7.093700
C -10.240800 -10.694200 -4.321400
O -10.213400 -10.694200 -3.094100
N -9.087100 -10.694200 -5.065300
C -9.011300 -10.694200 -6.432500
H -8.385600 -10.694200 -4.633100
O -7.920700 -10.694200 -6.996900
