12
Fragment
H -12.212000 -10.694200 -15.272500
H -12.183900 -10.694200 -12.922200
C -11.392400 -10.694200 -14.837000
N -11.349400 -10.694200 -13.467200
F -10.264400 -10.694200 -16.868000
C -10.249900 -10.694200 -15.517600
C -10.194800 -10.694200 -12.745300
O -10.167300 -10.694200 -11.518000
N -9.041000 -10.694200 -13.489100
C -8.965300 -10.694200 -14.856300
H -8.339500 -10.694200 -13.057000
O -7.874700 -10.694200 -15.420700
6
Fragment
H -15.373100 -10.694200 -10.235000
N -14.561100 -10.694200 -9.902300
H -14.464400 -10.694200 -9.123100
O -13.553500 -10.694200 -11.898700
C -13.493400 -10.694200 -10.659600
H -12.649500 -10.694200 -10.159200
18
Fragment
H -12.212000 -10.694200 -15.272500
H -12.183900 -10.694200 -12.922200
C -11.392400 -10.694200 -14.837000
N -11.349400 -10.694200 -13.467200
F -10.264400 -10.694200 -16.868000
C -10.249900 -10.694200 -15.517600
C -10.194800 -10.694200 -12.745300
O -10.167300 -10.694200 -11.518000
N -9.041000 -10.694200 -13.489100
C -8.965300 -10.694200 -14.856300
H -8.339500 -10.694200 -13.057000
O -7.874700 -10.694200 -15.420700
H -15.373100 -10.694200 -10.235000
N -14.561100 -10.694200 -9.902300
H -14.464400 -10.694200 -9.123100
O -13.553500 -10.694200 -11.898700
C -13.493400 -10.694200 -10.659600
H -12.649500 -10.694200 -10.159200
