17
Fragment
H -9.360600 -37.953900 -13.871000
N -8.644300 -38.364100 -13.859100
H -8.297000 -39.443800 -15.475600
N -8.226400 -38.642800 -15.173200
H -8.002900 -37.785900 -13.488500
C -7.724500 -37.694600 -15.960000
O -7.621600 -36.538900 -15.574000
H -7.570000 -40.088900 -17.296000
C -7.277000 -39.382700 -17.824200
C -7.264500 -38.092400 -17.334400
H -6.857100 -40.466300 -19.438800
C -6.845100 -39.596700 -19.111800
C -6.804300 -37.087700 -18.154100
H -6.771800 -36.208300 -17.851000
N -6.409700 -38.629900 -19.920700
C -6.393100 -37.400000 -19.426500
H -6.086100 -36.712300 -19.971300
17
Fragment
H -5.594700 -37.953900 -13.871000
N -4.878400 -38.364100 -13.859100
H -4.531100 -39.443800 -15.475600
N -4.460500 -38.642800 -15.173200
H -4.237000 -37.785900 -13.488500
C -3.958600 -37.694600 -15.960000
O -3.855700 -36.538900 -15.574000
H -3.804100 -40.088900 -17.296000
C -3.511100 -39.382700 -17.824200
C -3.498600 -38.092400 -17.334400
H -3.091200 -40.466300 -19.438800
C -3.079200 -39.596700 -19.111800
C -3.038400 -37.087700 -18.154100
H -3.005900 -36.208300 -17.851000
N -2.643800 -38.629900 -19.920700
C -2.627200 -37.400000 -19.426500
H -2.320200 -36.712300 -19.971300
34
Fragment
H -9.360600 -37.953900 -13.871000
N -8.644300 -38.364100 -13.859100
H -8.297000 -39.443800 -15.475600
N -8.226400 -38.642800 -15.173200
H -8.002900 -37.785900 -13.488500
C -7.724500 -37.694600 -15.960000
O -7.621600 -36.538900 -15.574000
H -7.570000 -40.088900 -17.296000
C -7.277000 -39.382700 -17.824200
C -7.264500 -38.092400 -17.334400
H -6.857100 -40.466300 -19.438800
C -6.845100 -39.596700 -19.111800
C -6.804300 -37.087700 -18.154100
H -6.771800 -36.208300 -17.851000
N -6.409700 -38.629900 -19.920700
C -6.393100 -37.400000 -19.426500
H -6.086100 -36.712300 -19.971300
H -5.594700 -37.953900 -13.871000
N -4.878400 -38.364100 -13.859100
H -4.531100 -39.443800 -15.475600
N -4.460500 -38.642800 -15.173200
H -4.237000 -37.785900 -13.488500
C -3.958600 -37.694600 -15.960000
O -3.855700 -36.538900 -15.574000
H -3.804100 -40.088900 -17.296000
C -3.511100 -39.382700 -17.824200
C -3.498600 -38.092400 -17.334400
H -3.091200 -40.466300 -19.438800
C -3.079200 -39.596700 -19.111800
C -3.038400 -37.087700 -18.154100
H -3.005900 -36.208300 -17.851000
N -2.643800 -38.629900 -19.920700
C -2.627200 -37.400000 -19.426500
H -2.320200 -36.712300 -19.971300
