17
Fragment
H -9.360600 -37.953900 -13.871000
N -8.644300 -38.364100 -13.859100
H -8.297000 -39.443800 -15.475600
N -8.226400 -38.642800 -15.173200
H -8.002900 -37.785900 -13.488500
C -7.724500 -37.694600 -15.960000
O -7.621600 -36.538900 -15.574000
H -7.570000 -40.088900 -17.296000
C -7.277000 -39.382700 -17.824200
C -7.264500 -38.092400 -17.334400
H -6.857100 -40.466300 -19.438800
C -6.845100 -39.596700 -19.111800
C -6.804300 -37.087700 -18.154100
H -6.771800 -36.208300 -17.851000
N -6.409700 -38.629900 -19.920700
C -6.393100 -37.400000 -19.426500
H -6.086100 -36.712300 -19.971300
17
Fragment
H -9.988000 -38.596600 -7.773600
O -9.850000 -38.452000 -8.569500
H -9.392600 -38.818100 -11.015000
C -9.282000 -39.545300 -9.134200
C -9.121400 -39.550600 -10.508200
H -8.966700 -40.619600 -7.459600
C -8.864100 -40.624300 -8.384000
C -8.557800 -40.647400 -11.120600
H -8.478800 -39.935500 -12.792000
O -8.375300 -40.687300 -12.480400
C -8.291500 -41.713900 -9.014200
C -8.149600 -41.739700 -10.391400
O -7.816300 -42.619300 -6.916600
H -7.784900 -42.482000 -10.816000
C -7.779400 -42.841100 -8.216800
H -7.479800 -43.253800 -6.520700
O -7.357600 -43.872100 -8.686600
34
Fragment
H -9.360600 -37.953900 -13.871000
N -8.644300 -38.364100 -13.859100
H -8.297000 -39.443800 -15.475600
N -8.226400 -38.642800 -15.173200
H -8.002900 -37.785900 -13.488500
C -7.724500 -37.694600 -15.960000
O -7.621600 -36.538900 -15.574000
H -7.570000 -40.088900 -17.296000
C -7.277000 -39.382700 -17.824200
C -7.264500 -38.092400 -17.334400
H -6.857100 -40.466300 -19.438800
C -6.845100 -39.596700 -19.111800
C -6.804300 -37.087700 -18.154100
H -6.771800 -36.208300 -17.851000
N -6.409700 -38.629900 -19.920700
C -6.393100 -37.400000 -19.426500
H -6.086100 -36.712300 -19.971300
H -9.988000 -38.596600 -7.773600
O -9.850000 -38.452000 -8.569500
H -9.392600 -38.818100 -11.015000
C -9.282000 -39.545300 -9.134200
C -9.121400 -39.550600 -10.508200
H -8.966700 -40.619600 -7.459600
C -8.864100 -40.624300 -8.384000
C -8.557800 -40.647400 -11.120600
H -8.478800 -39.935500 -12.792000
O -8.375300 -40.687300 -12.480400
C -8.291500 -41.713900 -9.014200
C -8.149600 -41.739700 -10.391400
O -7.816300 -42.619300 -6.916600
H -7.784900 -42.482000 -10.816000
C -7.779400 -42.841100 -8.216800
H -7.479800 -43.253800 -6.520700
O -7.357600 -43.872100 -8.686600
