17
Fragment
H -9.360600 -37.953900 -13.871000
N -8.644300 -38.364100 -13.859100
H -8.297000 -39.443800 -15.475600
N -8.226400 -38.642800 -15.173200
H -8.002900 -37.785900 -13.488500
C -7.724500 -37.694600 -15.960000
O -7.621600 -36.538900 -15.574000
H -7.570000 -40.088900 -17.296000
C -7.277000 -39.382700 -17.824200
C -7.264500 -38.092400 -17.334400
H -6.857100 -40.466300 -19.438800
C -6.845100 -39.596700 -19.111800
C -6.804300 -37.087700 -18.154100
H -6.771800 -36.208300 -17.851000
N -6.409700 -38.629900 -19.920700
C -6.393100 -37.400000 -19.426500
H -6.086100 -36.712300 -19.971300
17
Fragment
H -13.126500 -37.953900 -13.871000
N -12.410200 -38.364100 -13.859100
H -12.062900 -39.443800 -15.475600
N -11.992300 -38.642800 -15.173200
H -11.768800 -37.785900 -13.488500
C -11.490400 -37.694600 -15.960000
O -11.387500 -36.538900 -15.574000
H -11.335900 -40.088900 -17.296000
C -11.042900 -39.382700 -17.824200
C -11.030400 -38.092400 -17.334400
H -10.623000 -40.466300 -19.438800
C -10.611000 -39.596700 -19.111800
C -10.570200 -37.087700 -18.154100
H -10.537700 -36.208300 -17.851000
N -10.175600 -38.629900 -19.920700
C -10.159000 -37.400000 -19.426500
H -9.852000 -36.712300 -19.971300
34
Fragment
H -9.360600 -37.953900 -13.871000
N -8.644300 -38.364100 -13.859100
H -8.297000 -39.443800 -15.475600
N -8.226400 -38.642800 -15.173200
H -8.002900 -37.785900 -13.488500
C -7.724500 -37.694600 -15.960000
O -7.621600 -36.538900 -15.574000
H -7.570000 -40.088900 -17.296000
C -7.277000 -39.382700 -17.824200
C -7.264500 -38.092400 -17.334400
H -6.857100 -40.466300 -19.438800
C -6.845100 -39.596700 -19.111800
C -6.804300 -37.087700 -18.154100
H -6.771800 -36.208300 -17.851000
N -6.409700 -38.629900 -19.920700
C -6.393100 -37.400000 -19.426500
H -6.086100 -36.712300 -19.971300
H -13.126500 -37.953900 -13.871000
N -12.410200 -38.364100 -13.859100
H -12.062900 -39.443800 -15.475600
N -11.992300 -38.642800 -15.173200
H -11.768800 -37.785900 -13.488500
C -11.490400 -37.694600 -15.960000
O -11.387500 -36.538900 -15.574000
H -11.335900 -40.088900 -17.296000
C -11.042900 -39.382700 -17.824200
C -11.030400 -38.092400 -17.334400
H -10.623000 -40.466300 -19.438800
C -10.611000 -39.596700 -19.111800
C -10.570200 -37.087700 -18.154100
H -10.537700 -36.208300 -17.851000
N -10.175600 -38.629900 -19.920700
C -10.159000 -37.400000 -19.426500
H -9.852000 -36.712300 -19.971300
