17
Fragment
H -9.360600 -37.953900 -13.871000
N -8.644300 -38.364100 -13.859100
H -8.297000 -39.443800 -15.475600
N -8.226400 -38.642800 -15.173200
H -8.002900 -37.785900 -13.488500
C -7.724500 -37.694600 -15.960000
O -7.621600 -36.538900 -15.574000
H -7.570000 -40.088900 -17.296000
C -7.277000 -39.382700 -17.824200
C -7.264500 -38.092400 -17.334400
H -6.857100 -40.466300 -19.438800
C -6.845100 -39.596700 -19.111800
C -6.804300 -37.087700 -18.154100
H -6.771800 -36.208300 -17.851000
N -6.409700 -38.629900 -19.920700
C -6.393100 -37.400000 -19.426500
H -6.086100 -36.712300 -19.971300
17
Fragment
H -4.191400 -36.322700 -22.070600
C -3.884500 -35.635000 -22.615500
N -3.867800 -34.405100 -22.121200
H -3.505800 -36.826700 -24.190900
C -3.473200 -35.947300 -23.887800
C -3.432400 -33.438300 -22.930100
H -3.420400 -32.568700 -22.603100
C -3.013100 -34.942600 -24.707500
C -3.000500 -33.652300 -24.217700
H -2.707500 -32.946100 -24.745900
O -2.655900 -36.496100 -26.467900
C -2.553100 -35.340400 -26.082000
H -2.274700 -35.249100 -28.553500
N -2.051200 -34.392200 -26.868700
H -1.980600 -33.591200 -26.566300
N -1.633300 -34.670900 -28.182800
H -0.916900 -35.081100 -28.170900
34
Fragment
H -9.360600 -37.953900 -13.871000
N -8.644300 -38.364100 -13.859100
H -8.297000 -39.443800 -15.475600
N -8.226400 -38.642800 -15.173200
H -8.002900 -37.785900 -13.488500
C -7.724500 -37.694600 -15.960000
O -7.621600 -36.538900 -15.574000
H -7.570000 -40.088900 -17.296000
C -7.277000 -39.382700 -17.824200
C -7.264500 -38.092400 -17.334400
H -6.857100 -40.466300 -19.438800
C -6.845100 -39.596700 -19.111800
C -6.804300 -37.087700 -18.154100
H -6.771800 -36.208300 -17.851000
N -6.409700 -38.629900 -19.920700
C -6.393100 -37.400000 -19.426500
H -6.086100 -36.712300 -19.971300
H -4.191400 -36.322700 -22.070600
C -3.884500 -35.635000 -22.615500
N -3.867800 -34.405100 -22.121200
H -3.505800 -36.826700 -24.190900
C -3.473200 -35.947300 -23.887800
C -3.432400 -33.438300 -22.930100
H -3.420400 -32.568700 -22.603100
C -3.013100 -34.942600 -24.707500
C -3.000500 -33.652300 -24.217700
H -2.707500 -32.946100 -24.745900
O -2.655900 -36.496100 -26.467900
C -2.553100 -35.340400 -26.082000
H -2.274700 -35.249100 -28.553500
N -2.051200 -34.392200 -26.868700
H -1.980600 -33.591200 -26.566300
N -1.633300 -34.670900 -28.182800
H -0.916900 -35.081100 -28.170900
