17
Fragment
O -23.842500 -11.138200 -19.513200
H -23.798600 -11.250500 -20.396400
H -23.301500 -10.848400 -17.074000
C -22.625000 -11.238500 -18.919000
C -22.535100 -11.052600 -17.560400
O -21.589600 -11.681400 -21.002600
C -21.467100 -11.532500 -19.648100
C -21.323300 -11.164300 -16.905100
H -21.278300 -11.023700 -15.986500
H -20.746600 -11.893600 -21.260400
C -20.242800 -11.677300 -18.990300
C -20.185600 -11.483000 -17.605500
H -19.374200 -11.569900 -17.158500
O -19.113000 -12.257100 -20.981600
C -19.051200 -12.064600 -19.767800
O -17.940400 -12.191900 -19.091000
H -17.194900 -12.508400 -19.742300
17
Fragment
H -20.053600 -8.692300 -21.140500
O -19.308000 -9.008800 -21.791700
C -18.197200 -9.136100 -21.115000
O -18.135400 -8.943600 -19.901200
H -17.874200 -9.630800 -23.724300
C -17.062800 -9.717700 -23.277300
C -17.005700 -9.523400 -21.892400
H -16.501900 -9.307100 -19.622400
H -15.970100 -10.177000 -24.896200
C -15.925100 -10.036400 -23.977600
C -15.781300 -9.668200 -21.234600
O -15.658800 -9.519300 -19.880200
C -14.713300 -10.148100 -23.322400
C -14.623400 -9.962200 -21.963700
H -13.946900 -10.352300 -23.808700
H -13.449800 -9.950200 -20.486300
O -13.405900 -10.062500 -21.369500
34
Fragment
O -23.842500 -11.138200 -19.513200
H -23.798600 -11.250500 -20.396400
H -23.301500 -10.848400 -17.074000
C -22.625000 -11.238500 -18.919000
C -22.535100 -11.052600 -17.560400
O -21.589600 -11.681400 -21.002600
C -21.467100 -11.532500 -19.648100
C -21.323300 -11.164300 -16.905100
H -21.278300 -11.023700 -15.986500
H -20.746600 -11.893600 -21.260400
C -20.242800 -11.677300 -18.990300
C -20.185600 -11.483000 -17.605500
H -19.374200 -11.569900 -17.158500
O -19.113000 -12.257100 -20.981600
C -19.051200 -12.064600 -19.767800
O -17.940400 -12.191900 -19.091000
H -17.194900 -12.508400 -19.742300
H -20.053600 -8.692300 -21.140500
O -19.308000 -9.008800 -21.791700
C -18.197200 -9.136100 -21.115000
O -18.135400 -8.943600 -19.901200
H -17.874200 -9.630800 -23.724300
C -17.062800 -9.717700 -23.277300
C -17.005700 -9.523400 -21.892400
H -16.501900 -9.307100 -19.622400
H -15.970100 -10.177000 -24.896200
C -15.925100 -10.036400 -23.977600
C -15.781300 -9.668200 -21.234600
O -15.658800 -9.519300 -19.880200
C -14.713300 -10.148100 -23.322400
C -14.623400 -9.962200 -21.963700
H -13.946900 -10.352300 -23.808700
H -13.449800 -9.950200 -20.486300
O -13.405900 -10.062500 -21.369500
