17
Fragment
H -9.360600 -37.953900 -13.871000
N -8.644300 -38.364100 -13.859100
H -8.297000 -39.443800 -15.475600
N -8.226400 -38.642800 -15.173200
H -8.002900 -37.785900 -13.488500
C -7.724500 -37.694600 -15.960000
O -7.621600 -36.538900 -15.574000
H -7.570000 -40.088900 -17.296000
C -7.277000 -39.382700 -17.824200
C -7.264500 -38.092400 -17.334400
H -6.857100 -40.466300 -19.438800
C -6.845100 -39.596700 -19.111800
C -6.804300 -37.087700 -18.154100
H -6.771800 -36.208300 -17.851000
N -6.409700 -38.629900 -19.920700
C -6.393100 -37.400000 -19.426500
H -6.086100 -36.712300 -19.971300
17
Fragment
H -9.647900 -38.596600 -21.787500
O -9.510000 -38.452000 -22.583500
H -9.052600 -38.818100 -25.029000
C -8.941900 -39.545300 -23.148100
C -8.781300 -39.550600 -24.522200
H -8.626700 -40.619600 -21.473600
C -8.524100 -40.624300 -22.398000
C -8.217800 -40.647400 -25.134600
H -8.138800 -39.935500 -26.805900
O -8.035300 -40.687300 -26.494400
C -7.951400 -41.713900 -23.028200
C -7.809500 -41.739700 -24.405300
O -7.476200 -42.619300 -20.930600
H -7.444900 -42.482000 -24.830000
C -7.439400 -42.841100 -22.230800
H -7.139700 -43.253800 -20.534700
O -7.017500 -43.872100 -22.700500
34
Fragment
H -9.360600 -37.953900 -13.871000
N -8.644300 -38.364100 -13.859100
H -8.297000 -39.443800 -15.475600
N -8.226400 -38.642800 -15.173200
H -8.002900 -37.785900 -13.488500
C -7.724500 -37.694600 -15.960000
O -7.621600 -36.538900 -15.574000
H -7.570000 -40.088900 -17.296000
C -7.277000 -39.382700 -17.824200
C -7.264500 -38.092400 -17.334400
H -6.857100 -40.466300 -19.438800
C -6.845100 -39.596700 -19.111800
C -6.804300 -37.087700 -18.154100
H -6.771800 -36.208300 -17.851000
N -6.409700 -38.629900 -19.920700
C -6.393100 -37.400000 -19.426500
H -6.086100 -36.712300 -19.971300
H -9.647900 -38.596600 -21.787500
O -9.510000 -38.452000 -22.583500
H -9.052600 -38.818100 -25.029000
C -8.941900 -39.545300 -23.148100
C -8.781300 -39.550600 -24.522200
H -8.626700 -40.619600 -21.473600
C -8.524100 -40.624300 -22.398000
C -8.217800 -40.647400 -25.134600
H -8.138800 -39.935500 -26.805900
O -8.035300 -40.687300 -26.494400
C -7.951400 -41.713900 -23.028200
C -7.809500 -41.739700 -24.405300
O -7.476200 -42.619300 -20.930600
H -7.444900 -42.482000 -24.830000
C -7.439400 -42.841100 -22.230800
H -7.139700 -43.253800 -20.534700
O -7.017500 -43.872100 -22.700500
