17
Fragment
O -23.842500 -11.138200 -19.513200
H -23.798600 -11.250500 -20.396400
H -23.301500 -10.848400 -17.074000
C -22.625000 -11.238500 -18.919000
C -22.535100 -11.052600 -17.560400
O -21.589600 -11.681400 -21.002600
C -21.467100 -11.532500 -19.648100
C -21.323300 -11.164300 -16.905100
H -21.278300 -11.023700 -15.986500
H -20.746600 -11.893600 -21.260400
C -20.242800 -11.677300 -18.990300
C -20.185600 -11.483000 -17.605500
H -19.374200 -11.569900 -17.158500
O -19.113000 -12.257100 -20.981600
C -19.051200 -12.064600 -19.767800
O -17.940400 -12.191900 -19.091000
H -17.194900 -12.508400 -19.742300
17
Fragment
H -20.664800 -8.975000 -14.326700
O -19.919300 -8.658400 -14.977900
C -18.808400 -8.531200 -14.301200
O -18.746700 -8.723700 -13.087400
H -18.485400 -8.036500 -16.910500
C -17.674100 -7.949600 -16.463500
C -17.616900 -8.143900 -15.078600
H -17.113100 -8.360100 -12.808600
H -16.581400 -7.490200 -18.082400
C -16.536400 -7.630800 -17.163800
C -16.392500 -7.999000 -14.420800
O -16.270000 -8.148000 -13.066400
C -15.324600 -7.519200 -16.508600
C -15.234700 -7.705000 -15.149900
H -14.558100 -7.314900 -16.995000
H -14.061000 -7.717100 -13.672600
O -14.017100 -7.604800 -14.555800
34
Fragment
O -23.842500 -11.138200 -19.513200
H -23.798600 -11.250500 -20.396400
H -23.301500 -10.848400 -17.074000
C -22.625000 -11.238500 -18.919000
C -22.535100 -11.052600 -17.560400
O -21.589600 -11.681400 -21.002600
C -21.467100 -11.532500 -19.648100
C -21.323300 -11.164300 -16.905100
H -21.278300 -11.023700 -15.986500
H -20.746600 -11.893600 -21.260400
C -20.242800 -11.677300 -18.990300
C -20.185600 -11.483000 -17.605500
H -19.374200 -11.569900 -17.158500
O -19.113000 -12.257100 -20.981600
C -19.051200 -12.064600 -19.767800
O -17.940400 -12.191900 -19.091000
H -17.194900 -12.508400 -19.742300
H -20.664800 -8.975000 -14.326700
O -19.919300 -8.658400 -14.977900
C -18.808400 -8.531200 -14.301200
O -18.746700 -8.723700 -13.087400
H -18.485400 -8.036500 -16.910500
C -17.674100 -7.949600 -16.463500
C -17.616900 -8.143900 -15.078600
H -17.113100 -8.360100 -12.808600
H -16.581400 -7.490200 -18.082400
C -16.536400 -7.630800 -17.163800
C -16.392500 -7.999000 -14.420800
O -16.270000 -8.148000 -13.066400
C -15.324600 -7.519200 -16.508600
C -15.234700 -7.705000 -15.149900
H -14.558100 -7.314900 -16.995000
H -14.061000 -7.717100 -13.672600
O -14.017100 -7.604800 -14.555800
