17
Fragment
O -23.842500 -11.138200 -19.513200
H -23.798600 -11.250500 -20.396400
H -23.301500 -10.848400 -17.074000
C -22.625000 -11.238500 -18.919000
C -22.535100 -11.052600 -17.560400
O -21.589600 -11.681400 -21.002600
C -21.467100 -11.532500 -19.648100
C -21.323300 -11.164300 -16.905100
H -21.278300 -11.023700 -15.986500
H -20.746600 -11.893600 -21.260400
C -20.242800 -11.677300 -18.990300
C -20.185600 -11.483000 -17.605500
H -19.374200 -11.569900 -17.158500
O -19.113000 -12.257100 -20.981600
C -19.051200 -12.064600 -19.767800
O -17.940400 -12.191900 -19.091000
H -17.194900 -12.508400 -19.742300
17
Fragment
H -17.097100 -13.009500 -22.245700
C -16.228500 -13.150800 -21.946300
N -15.973900 -12.987500 -20.655200
H -15.493100 -13.617200 -23.767900
C -15.271000 -13.518300 -22.869800
C -14.727100 -13.191800 -20.241000
H -14.533300 -13.080100 -19.338900
C -13.972900 -13.738800 -22.437700
H -13.966500 -14.400900 -24.836300
C -13.710100 -13.562100 -21.095100
N -13.142500 -14.438400 -24.594000
H -12.849000 -13.692100 -20.767100
C -12.831500 -14.126700 -23.339400
N -12.173800 -14.827800 -25.545300
H -11.858600 -15.639000 -25.271000
O -11.675300 -14.127400 -22.937100
H -11.519300 -14.261000 -25.449500
34
Fragment
O -23.842500 -11.138200 -19.513200
H -23.798600 -11.250500 -20.396400
H -23.301500 -10.848400 -17.074000
C -22.625000 -11.238500 -18.919000
C -22.535100 -11.052600 -17.560400
O -21.589600 -11.681400 -21.002600
C -21.467100 -11.532500 -19.648100
C -21.323300 -11.164300 -16.905100
H -21.278300 -11.023700 -15.986500
H -20.746600 -11.893600 -21.260400
C -20.242800 -11.677300 -18.990300
C -20.185600 -11.483000 -17.605500
H -19.374200 -11.569900 -17.158500
O -19.113000 -12.257100 -20.981600
C -19.051200 -12.064600 -19.767800
O -17.940400 -12.191900 -19.091000
H -17.194900 -12.508400 -19.742300
H -17.097100 -13.009500 -22.245700
C -16.228500 -13.150800 -21.946300
N -15.973900 -12.987500 -20.655200
H -15.493100 -13.617200 -23.767900
C -15.271000 -13.518300 -22.869800
C -14.727100 -13.191800 -20.241000
H -14.533300 -13.080100 -19.338900
C -13.972900 -13.738800 -22.437700
H -13.966500 -14.400900 -24.836300
C -13.710100 -13.562100 -21.095100
N -13.142500 -14.438400 -24.594000
H -12.849000 -13.692100 -20.767100
C -12.831500 -14.126700 -23.339400
N -12.173800 -14.827800 -25.545300
H -11.858600 -15.639000 -25.271000
O -11.675300 -14.127400 -22.937100
H -11.519300 -14.261000 -25.449500
