17
Fragment
H -41.175000 -8.703400 -31.248100
H -41.124600 -8.599300 -29.762200
N -40.805300 -8.396500 -30.534900
O -39.703600 -7.684000 -32.854700
N -39.678200 -7.563900 -30.630300
H -39.305200 -7.255000 -29.919500
C -39.190200 -7.257000 -31.834800
C -38.003900 -6.344600 -31.885800
H -37.906000 -5.683100 -29.970500
H -37.661900 -6.672900 -33.847800
C -37.525500 -5.597500 -30.814400
C -37.377800 -6.189900 -33.106000
C -36.481700 -4.730300 -31.027000
C -36.336200 -5.319800 -33.205900
H -36.177200 -4.220600 -30.310600
H -35.918000 -5.237100 -34.032800
N -35.882000 -4.583900 -32.204700
17
Fragment
H -44.398600 -6.024100 -38.024900
H -44.330700 -6.228300 -39.500100
N -44.012300 -6.368400 -38.713600
O -42.913900 -6.932600 -36.330900
N -42.852200 -7.166500 -38.551000
H -42.463400 -7.512300 -39.236500
C -42.369100 -7.375600 -37.327600
C -41.145300 -8.238500 -37.208600
H -41.066800 -9.026400 -39.051600
H -40.820100 -7.757000 -35.289100
C -40.660900 -9.027800 -38.214100
C -40.515600 -8.278800 -35.994800
C -39.564400 -9.826400 -37.971700
C -39.421000 -9.104200 -35.831100
H -39.242300 -10.357500 -38.664700
H -38.998200 -9.123600 -35.002100
N -38.945600 -9.876500 -36.812400
34
Fragment
H -41.175000 -8.703400 -31.248100
H -41.124600 -8.599300 -29.762200
N -40.805300 -8.396500 -30.534900
O -39.703600 -7.684000 -32.854700
N -39.678200 -7.563900 -30.630300
H -39.305200 -7.255000 -29.919500
C -39.190200 -7.257000 -31.834800
C -38.003900 -6.344600 -31.885800
H -37.906000 -5.683100 -29.970500
H -37.661900 -6.672900 -33.847800
C -37.525500 -5.597500 -30.814400
C -37.377800 -6.189900 -33.106000
C -36.481700 -4.730300 -31.027000
C -36.336200 -5.319800 -33.205900
H -36.177200 -4.220600 -30.310600
H -35.918000 -5.237100 -34.032800
N -35.882000 -4.583900 -32.204700
H -44.398600 -6.024100 -38.024900
H -44.330700 -6.228300 -39.500100
N -44.012300 -6.368400 -38.713600
O -42.913900 -6.932600 -36.330900
N -42.852200 -7.166500 -38.551000
H -42.463400 -7.512300 -39.236500
C -42.369100 -7.375600 -37.327600
C -41.145300 -8.238500 -37.208600
H -41.066800 -9.026400 -39.051600
H -40.820100 -7.757000 -35.289100
C -40.660900 -9.027800 -38.214100
C -40.515600 -8.278800 -35.994800
C -39.564400 -9.826400 -37.971700
C -39.421000 -9.104200 -35.831100
H -39.242300 -10.357500 -38.664700
H -38.998200 -9.123600 -35.002100
N -38.945600 -9.876500 -36.812400
