17
Fragment
H -41.175000 -8.703400 -31.248100
H -41.124600 -8.599300 -29.762200
N -40.805300 -8.396500 -30.534900
O -39.703600 -7.684000 -32.854700
N -39.678200 -7.563900 -30.630300
H -39.305200 -7.255000 -29.919500
C -39.190200 -7.257000 -31.834800
C -38.003900 -6.344600 -31.885800
H -37.906000 -5.683100 -29.970500
H -37.661900 -6.672900 -33.847800
C -37.525500 -5.597500 -30.814400
C -37.377800 -6.189900 -33.106000
C -36.481700 -4.730300 -31.027000
C -36.336200 -5.319800 -33.205900
H -36.177200 -4.220600 -30.310600
H -35.918000 -5.237100 -34.032800
N -35.882000 -4.583900 -32.204700
16
Fragment
H -42.891200 -8.927100 -25.751000
C -42.189900 -9.505400 -25.948700
H -42.176500 -10.450400 -24.175800
O -42.067300 -8.575500 -28.099300
C -41.754800 -10.412000 -25.002700
H -41.602800 -8.601300 -28.775900
C -41.583900 -9.459200 -27.183100
C -40.710700 -11.254400 -25.266300
C -40.529700 -10.314700 -27.473200
H -40.420000 -11.853600 -24.618000
H -40.123100 -10.287500 -28.308200
C -40.085800 -11.211600 -26.509200
C -38.968800 -12.123000 -26.830600
O -38.511300 -12.773300 -25.788200
O -38.501700 -12.255800 -27.951300
H -37.918600 -13.287800 -26.025200
33
Fragment
H -41.175000 -8.703400 -31.248100
H -41.124600 -8.599300 -29.762200
N -40.805300 -8.396500 -30.534900
O -39.703600 -7.684000 -32.854700
N -39.678200 -7.563900 -30.630300
H -39.305200 -7.255000 -29.919500
C -39.190200 -7.257000 -31.834800
C -38.003900 -6.344600 -31.885800
H -37.906000 -5.683100 -29.970500
H -37.661900 -6.672900 -33.847800
C -37.525500 -5.597500 -30.814400
C -37.377800 -6.189900 -33.106000
C -36.481700 -4.730300 -31.027000
C -36.336200 -5.319800 -33.205900
H -36.177200 -4.220600 -30.310600
H -35.918000 -5.237100 -34.032800
N -35.882000 -4.583900 -32.204700
H -42.891200 -8.927100 -25.751000
C -42.189900 -9.505400 -25.948700
H -42.176500 -10.450400 -24.175800
O -42.067300 -8.575500 -28.099300
C -41.754800 -10.412000 -25.002700
H -41.602800 -8.601300 -28.775900
C -41.583900 -9.459200 -27.183100
C -40.710700 -11.254400 -25.266300
C -40.529700 -10.314700 -27.473200
H -40.420000 -11.853600 -24.618000
H -40.123100 -10.287500 -28.308200
C -40.085800 -11.211600 -26.509200
C -38.968800 -12.123000 -26.830600
O -38.511300 -12.773300 -25.788200
O -38.501700 -12.255800 -27.951300
H -37.918600 -13.287800 -26.025200
