17
Fragment
H -41.175000 -8.703400 -31.248100
H -41.124600 -8.599300 -29.762200
N -40.805300 -8.396500 -30.534900
O -39.703600 -7.684000 -32.854700
N -39.678200 -7.563900 -30.630300
H -39.305200 -7.255000 -29.919500
C -39.190200 -7.257000 -31.834800
C -38.003900 -6.344600 -31.885800
H -37.906000 -5.683100 -29.970500
H -37.661900 -6.672900 -33.847800
C -37.525500 -5.597500 -30.814400
C -37.377800 -6.189900 -33.106000
C -36.481700 -4.730300 -31.027000
C -36.336200 -5.319800 -33.205900
H -36.177200 -4.220600 -30.310600
H -35.918000 -5.237100 -34.032800
N -35.882000 -4.583900 -32.204700
16
Fragment
H -47.096300 -1.503800 -32.393800
O -46.527600 -2.027600 -32.667400
O -46.438500 -2.570400 -30.512400
C -46.025800 -2.691500 -31.659200
C -44.915000 -3.591300 -32.048600
H -44.761000 -4.484700 -30.249000
H -44.725800 -2.978000 -33.966900
C -44.405700 -4.468700 -31.107800
C -44.387500 -3.569400 -33.333000
H -43.397000 -6.449600 -30.034300
C -43.369400 -5.320300 -31.441500
C -43.367600 -4.421000 -33.665000
H -43.019600 -4.410800 -34.528100
C -42.847700 -5.305700 -32.717000
O -42.818500 -6.184600 -30.551300
H -42.153900 -5.881100 -32.944400
33
Fragment
H -41.175000 -8.703400 -31.248100
H -41.124600 -8.599300 -29.762200
N -40.805300 -8.396500 -30.534900
O -39.703600 -7.684000 -32.854700
N -39.678200 -7.563900 -30.630300
H -39.305200 -7.255000 -29.919500
C -39.190200 -7.257000 -31.834800
C -38.003900 -6.344600 -31.885800
H -37.906000 -5.683100 -29.970500
H -37.661900 -6.672900 -33.847800
C -37.525500 -5.597500 -30.814400
C -37.377800 -6.189900 -33.106000
C -36.481700 -4.730300 -31.027000
C -36.336200 -5.319800 -33.205900
H -36.177200 -4.220600 -30.310600
H -35.918000 -5.237100 -34.032800
N -35.882000 -4.583900 -32.204700
H -47.096300 -1.503800 -32.393800
O -46.527600 -2.027600 -32.667400
O -46.438500 -2.570400 -30.512400
C -46.025800 -2.691500 -31.659200
C -44.915000 -3.591300 -32.048600
H -44.761000 -4.484700 -30.249000
H -44.725800 -2.978000 -33.966900
C -44.405700 -4.468700 -31.107800
C -44.387500 -3.569400 -33.333000
H -43.397000 -6.449600 -30.034300
C -43.369400 -5.320300 -31.441500
C -43.367600 -4.421000 -33.665000
H -43.019600 -4.410800 -34.528100
C -42.847700 -5.305700 -32.717000
O -42.818500 -6.184600 -30.551300
H -42.153900 -5.881100 -32.944400
