50
Fragment
H -9.403800 -30.990200 -15.252700
H -9.164400 -30.468600 -13.791400
O -9.086500 -33.503500 -15.901900
C -8.735800 -30.881100 -14.557300
C -8.443900 -33.353600 -14.876800
H -8.244400 -36.089700 -14.920700
N -8.217200 -32.187300 -14.176600
O -8.059600 -29.678400 -17.956000
H -8.004600 -29.130600 -15.358400
N -7.794600 -34.329400 -14.171700
C -7.623600 -29.973300 -15.062800
C -7.413700 -35.590600 -14.772200
C -7.327500 -32.396500 -13.129000
H -7.307600 -29.949100 -20.356100
C -7.187600 -30.400000 -17.502800
H -7.063700 -34.515000 -11.400300
H -7.044200 -31.445600 -20.744700
H -7.007100 -29.784600 -14.337900
O -7.006900 -31.573200 -12.290300
N -6.920500 -33.699500 -13.241000
N -6.900400 -30.590800 -16.166300
O -6.819300 -36.342500 -16.965000
C -6.727700 -35.472500 -16.139600
C -6.632600 -30.591400 -20.588200
C -6.605300 -36.394500 -13.792500
C -6.411700 -34.515800 -12.132300
H -6.370000 -37.265300 -14.018700
N -6.312900 -31.206300 -18.215700
C -6.215100 -35.917200 -12.623600
H -6.181300 -34.105700 -18.290600
H -6.177600 -30.304100 -21.384100
O -6.057100 -34.330400 -16.301000
H -5.777700 -36.507000 -12.052500
C -5.765300 -31.380800 -16.001000
C -5.631200 -30.711200 -19.445800
C -5.476400 -34.164500 -17.627000
N -5.373700 -31.699400 -17.266100
H -5.239200 -33.034400 -11.323400
H -5.239000 -29.830700 -19.266300
O -5.221400 -31.687000 -14.956800
C -5.093000 -33.929200 -11.637700
H -4.918900 -34.928200 -17.842300
H -4.751200 -34.468800 -10.921000
C -4.641600 -32.893800 -17.642400
C -4.535600 -31.681500 -19.798600
H -4.458800 -33.915100 -12.357800
H -4.129600 -31.580000 -20.629400
C -4.100300 -32.666900 -19.028900
H -3.888100 -33.006400 -17.025700
H -3.440100 -33.235100 -19.354900
6
Fragment
H -9.073800 -37.881200 -8.876900
H -8.451900 -37.704600 -7.448600
C -8.257600 -37.883800 -8.371300
H -7.835500 -38.741800 -8.447700
C -7.366600 -36.857900 -8.886800
N -6.654800 -36.050600 -9.274600
56
Fragment
H -9.403800 -30.990200 -15.252700
H -9.164400 -30.468600 -13.791400
O -9.086500 -33.503500 -15.901900
C -8.735800 -30.881100 -14.557300
C -8.443900 -33.353600 -14.876800
H -8.244400 -36.089700 -14.920700
N -8.217200 -32.187300 -14.176600
O -8.059600 -29.678400 -17.956000
H -8.004600 -29.130600 -15.358400
N -7.794600 -34.329400 -14.171700
C -7.623600 -29.973300 -15.062800
C -7.413700 -35.590600 -14.772200
C -7.327500 -32.396500 -13.129000
H -7.307600 -29.949100 -20.356100
C -7.187600 -30.400000 -17.502800
H -7.063700 -34.515000 -11.400300
H -7.044200 -31.445600 -20.744700
H -7.007100 -29.784600 -14.337900
O -7.006900 -31.573200 -12.290300
N -6.920500 -33.699500 -13.241000
N -6.900400 -30.590800 -16.166300
O -6.819300 -36.342500 -16.965000
C -6.727700 -35.472500 -16.139600
C -6.632600 -30.591400 -20.588200
C -6.605300 -36.394500 -13.792500
C -6.411700 -34.515800 -12.132300
H -6.370000 -37.265300 -14.018700
N -6.312900 -31.206300 -18.215700
C -6.215100 -35.917200 -12.623600
H -6.181300 -34.105700 -18.290600
H -6.177600 -30.304100 -21.384100
O -6.057100 -34.330400 -16.301000
H -5.777700 -36.507000 -12.052500
C -5.765300 -31.380800 -16.001000
C -5.631200 -30.711200 -19.445800
C -5.476400 -34.164500 -17.627000
N -5.373700 -31.699400 -17.266100
H -5.239200 -33.034400 -11.323400
H -5.239000 -29.830700 -19.266300
O -5.221400 -31.687000 -14.956800
C -5.093000 -33.929200 -11.637700
H -4.918900 -34.928200 -17.842300
H -4.751200 -34.468800 -10.921000
C -4.641600 -32.893800 -17.642400
C -4.535600 -31.681500 -19.798600
H -4.458800 -33.915100 -12.357800
H -4.129600 -31.580000 -20.629400
C -4.100300 -32.666900 -19.028900
H -3.888100 -33.006400 -17.025700
H -3.440100 -33.235100 -19.354900
H -9.073800 -37.881200 -8.876900
H -8.451900 -37.704600 -7.448600
C -8.257600 -37.883800 -8.371300
H -7.835500 -38.741800 -8.447700
C -7.366600 -36.857900 -8.886800
N -6.654800 -36.050600 -9.274600
