22
Fragment
H -16.957600 -19.642900 -15.192500
H -16.588100 -18.441000 -16.185000
H -16.324300 -19.533400 -12.873800
C -16.271600 -18.961200 -15.404900
N -16.103800 -18.061300 -14.252900
C -15.638300 -18.858200 -13.102800
H -15.520000 -18.263700 -12.319800
H -15.369900 -16.540300 -15.346200
H -15.234700 -21.079500 -14.357600
C -15.069000 -17.088100 -14.576900
N -15.013200 -19.629600 -15.744600
H -14.941800 -16.481700 -13.805600
C -14.563300 -20.383400 -14.571000
N -14.366300 -19.535900 -13.395500
H -14.310500 -18.064300 -16.833000
C -14.005700 -18.600100 -16.058700
N -13.788100 -17.716700 -14.908700
H -13.712400 -20.839700 -14.786300
C -13.355800 -18.528400 -13.746900
H -13.201300 -17.933900 -12.969700
H -13.152600 -19.038100 -16.304400
H -12.501900 -18.980700 -13.961200
24
Fragment
H -22.045200 -16.127100 -17.203900
H -21.773600 -16.703300 -15.009500
H -21.480000 -14.609700 -18.875700
C -21.411300 -15.440100 -17.027700
O -21.204500 -16.146900 -14.740300
C -21.077900 -14.541900 -18.018300
C -20.826000 -15.345300 -15.776900
C -20.161200 -13.545900 -17.765700
H -19.936300 -12.921500 -18.446000
C -19.855700 -14.370700 -15.513600
H -19.602900 -12.340100 -13.800700
C -19.570100 -13.454700 -16.521700
C -19.167200 -14.286500 -14.200100
C -19.163900 -13.107900 -13.456200
H -18.953700 -12.752000 -16.349400
H -18.557900 -12.225300 -11.718900
C -18.530800 -13.033600 -12.218000
C -18.451500 -15.382700 -13.684200
O -18.391200 -16.509400 -14.454500
C -17.869700 -14.123400 -11.722800
C -17.812500 -15.295400 -12.452000
H -17.789000 -17.016200 -14.162900
H -17.447000 -14.073900 -10.873200
H -17.335400 -16.042300 -12.111400
46
Fragment
H -16.957600 -19.642900 -15.192500
H -16.588100 -18.441000 -16.185000
H -16.324300 -19.533400 -12.873800
C -16.271600 -18.961200 -15.404900
N -16.103800 -18.061300 -14.252900
C -15.638300 -18.858200 -13.102800
H -15.520000 -18.263700 -12.319800
H -15.369900 -16.540300 -15.346200
H -15.234700 -21.079500 -14.357600
C -15.069000 -17.088100 -14.576900
N -15.013200 -19.629600 -15.744600
H -14.941800 -16.481700 -13.805600
C -14.563300 -20.383400 -14.571000
N -14.366300 -19.535900 -13.395500
H -14.310500 -18.064300 -16.833000
C -14.005700 -18.600100 -16.058700
N -13.788100 -17.716700 -14.908700
H -13.712400 -20.839700 -14.786300
C -13.355800 -18.528400 -13.746900
H -13.201300 -17.933900 -12.969700
H -13.152600 -19.038100 -16.304400
H -12.501900 -18.980700 -13.961200
H -22.045200 -16.127100 -17.203900
H -21.773600 -16.703300 -15.009500
H -21.480000 -14.609700 -18.875700
C -21.411300 -15.440100 -17.027700
O -21.204500 -16.146900 -14.740300
C -21.077900 -14.541900 -18.018300
C -20.826000 -15.345300 -15.776900
C -20.161200 -13.545900 -17.765700
H -19.936300 -12.921500 -18.446000
C -19.855700 -14.370700 -15.513600
H -19.602900 -12.340100 -13.800700
C -19.570100 -13.454700 -16.521700
C -19.167200 -14.286500 -14.200100
C -19.163900 -13.107900 -13.456200
H -18.953700 -12.752000 -16.349400
H -18.557900 -12.225300 -11.718900
C -18.530800 -13.033600 -12.218000
C -18.451500 -15.382700 -13.684200
O -18.391200 -16.509400 -14.454500
C -17.869700 -14.123400 -11.722800
C -17.812500 -15.295400 -12.452000
H -17.789000 -17.016200 -14.162900
H -17.447000 -14.073900 -10.873200
H -17.335400 -16.042300 -12.111400
