22
Fragment
H -16.957600 -19.642900 -15.192500
H -16.588100 -18.441000 -16.185000
H -16.324300 -19.533400 -12.873800
C -16.271600 -18.961200 -15.404900
N -16.103800 -18.061300 -14.252900
C -15.638300 -18.858200 -13.102800
H -15.520000 -18.263700 -12.319800
H -15.369900 -16.540300 -15.346200
H -15.234700 -21.079500 -14.357600
C -15.069000 -17.088100 -14.576900
N -15.013200 -19.629600 -15.744600
H -14.941800 -16.481700 -13.805600
C -14.563300 -20.383400 -14.571000
N -14.366300 -19.535900 -13.395500
H -14.310500 -18.064300 -16.833000
C -14.005700 -18.600100 -16.058700
N -13.788100 -17.716700 -14.908700
H -13.712400 -20.839700 -14.786300
C -13.355800 -18.528400 -13.746900
H -13.201300 -17.933900 -12.969700
H -13.152600 -19.038100 -16.304400
H -12.501900 -18.980700 -13.961200
24
Fragment
H -18.630400 -16.580700 -7.704900
H -18.011200 -18.472300 -8.930300
C -17.783600 -16.614600 -8.132600
C -17.422800 -17.729200 -8.869700
H -17.153200 -14.801300 -7.497400
C -16.911300 -15.554800 -8.022000
C -16.198400 -17.752700 -9.518600
H -15.949700 -18.524400 -10.013800
C -15.683000 -15.575700 -8.668000
C -15.316100 -16.664200 -9.462800
H -15.052000 -14.034800 -7.942800
O -14.784400 -14.572100 -8.531000
O -14.533500 -14.752400 -11.367500
H -14.237500 -14.268100 -11.987000
C -14.009600 -16.709800 -10.154800
C -13.623800 -15.706900 -11.066000
H -13.381800 -18.469700 -9.339500
C -13.123100 -17.761800 -9.917900
C -12.347900 -15.720400 -11.636600
H -12.079400 -15.021600 -12.221000
C -11.874500 -17.790500 -10.512000
C -11.479200 -16.758000 -11.345000
H -11.287400 -18.520500 -10.349600
H -10.606200 -16.760600 -11.718900
46
Fragment
H -16.957600 -19.642900 -15.192500
H -16.588100 -18.441000 -16.185000
H -16.324300 -19.533400 -12.873800
C -16.271600 -18.961200 -15.404900
N -16.103800 -18.061300 -14.252900
C -15.638300 -18.858200 -13.102800
H -15.520000 -18.263700 -12.319800
H -15.369900 -16.540300 -15.346200
H -15.234700 -21.079500 -14.357600
C -15.069000 -17.088100 -14.576900
N -15.013200 -19.629600 -15.744600
H -14.941800 -16.481700 -13.805600
C -14.563300 -20.383400 -14.571000
N -14.366300 -19.535900 -13.395500
H -14.310500 -18.064300 -16.833000
C -14.005700 -18.600100 -16.058700
N -13.788100 -17.716700 -14.908700
H -13.712400 -20.839700 -14.786300
C -13.355800 -18.528400 -13.746900
H -13.201300 -17.933900 -12.969700
H -13.152600 -19.038100 -16.304400
H -12.501900 -18.980700 -13.961200
H -18.630400 -16.580700 -7.704900
H -18.011200 -18.472300 -8.930300
C -17.783600 -16.614600 -8.132600
C -17.422800 -17.729200 -8.869700
H -17.153200 -14.801300 -7.497400
C -16.911300 -15.554800 -8.022000
C -16.198400 -17.752700 -9.518600
H -15.949700 -18.524400 -10.013800
C -15.683000 -15.575700 -8.668000
C -15.316100 -16.664200 -9.462800
H -15.052000 -14.034800 -7.942800
O -14.784400 -14.572100 -8.531000
O -14.533500 -14.752400 -11.367500
H -14.237500 -14.268100 -11.987000
C -14.009600 -16.709800 -10.154800
C -13.623800 -15.706900 -11.066000
H -13.381800 -18.469700 -9.339500
C -13.123100 -17.761800 -9.917900
C -12.347900 -15.720400 -11.636600
H -12.079400 -15.021600 -12.221000
C -11.874500 -17.790500 -10.512000
C -11.479200 -16.758000 -11.345000
H -11.287400 -18.520500 -10.349600
H -10.606200 -16.760600 -11.718900
