22
Fragment
H -16.957600 -19.642900 -15.192500
H -16.588100 -18.441000 -16.185000
H -16.324300 -19.533400 -12.873800
C -16.271600 -18.961200 -15.404900
N -16.103800 -18.061300 -14.252900
C -15.638300 -18.858200 -13.102800
H -15.520000 -18.263700 -12.319800
H -15.369900 -16.540300 -15.346200
H -15.234700 -21.079500 -14.357600
C -15.069000 -17.088100 -14.576900
N -15.013200 -19.629600 -15.744600
H -14.941800 -16.481700 -13.805600
C -14.563300 -20.383400 -14.571000
N -14.366300 -19.535900 -13.395500
H -14.310500 -18.064300 -16.833000
C -14.005700 -18.600100 -16.058700
N -13.788100 -17.716700 -14.908700
H -13.712400 -20.839700 -14.786300
C -13.355800 -18.528400 -13.746900
H -13.201300 -17.933900 -12.969700
H -13.152600 -19.038100 -16.304400
H -12.501900 -18.980700 -13.961200
24
Fragment
H -18.610300 -23.278700 -7.856600
H -17.929100 -25.038600 -9.225900
C -17.737300 -23.276100 -8.230500
C -17.342000 -24.308600 -9.063400
H -17.137100 -21.539700 -7.354500
C -16.868600 -22.238500 -7.938800
C -16.093400 -24.279900 -9.657600
H -15.834700 -24.987800 -10.236000
C -15.592700 -22.225000 -8.509500
C -15.206900 -23.227900 -9.420700
H -14.979000 -20.786200 -7.588400
O -14.683000 -21.270500 -8.208000
O -14.432100 -21.090200 -11.044500
H -14.164500 -20.552900 -11.632700
C -13.900400 -23.182300 -10.112700
C -13.533500 -22.093800 -10.907500
H -13.266800 -25.042500 -9.561600
C -13.018100 -24.270800 -10.056900
C -12.305200 -22.072900 -11.553400
H -12.063300 -21.319400 -12.078100
C -11.793800 -24.247300 -10.705800
C -11.432900 -23.132700 -11.442800
H -11.205300 -24.990400 -10.645100
H -10.586100 -23.098800 -11.870600
46
Fragment
H -16.957600 -19.642900 -15.192500
H -16.588100 -18.441000 -16.185000
H -16.324300 -19.533400 -12.873800
C -16.271600 -18.961200 -15.404900
N -16.103800 -18.061300 -14.252900
C -15.638300 -18.858200 -13.102800
H -15.520000 -18.263700 -12.319800
H -15.369900 -16.540300 -15.346200
H -15.234700 -21.079500 -14.357600
C -15.069000 -17.088100 -14.576900
N -15.013200 -19.629600 -15.744600
H -14.941800 -16.481700 -13.805600
C -14.563300 -20.383400 -14.571000
N -14.366300 -19.535900 -13.395500
H -14.310500 -18.064300 -16.833000
C -14.005700 -18.600100 -16.058700
N -13.788100 -17.716700 -14.908700
H -13.712400 -20.839700 -14.786300
C -13.355800 -18.528400 -13.746900
H -13.201300 -17.933900 -12.969700
H -13.152600 -19.038100 -16.304400
H -12.501900 -18.980700 -13.961200
H -18.610300 -23.278700 -7.856600
H -17.929100 -25.038600 -9.225900
C -17.737300 -23.276100 -8.230500
C -17.342000 -24.308600 -9.063400
H -17.137100 -21.539700 -7.354500
C -16.868600 -22.238500 -7.938800
C -16.093400 -24.279900 -9.657600
H -15.834700 -24.987800 -10.236000
C -15.592700 -22.225000 -8.509500
C -15.206900 -23.227900 -9.420700
H -14.979000 -20.786200 -7.588400
O -14.683000 -21.270500 -8.208000
O -14.432100 -21.090200 -11.044500
H -14.164500 -20.552900 -11.632700
C -13.900400 -23.182300 -10.112700
C -13.533500 -22.093800 -10.907500
H -13.266800 -25.042500 -9.561600
C -13.018100 -24.270800 -10.056900
C -12.305200 -22.072900 -11.553400
H -12.063300 -21.319400 -12.078100
C -11.793800 -24.247300 -10.705800
C -11.432900 -23.132700 -11.442800
H -11.205300 -24.990400 -10.645100
H -10.586100 -23.098800 -11.870600
