14
Fragment
N -10.927500 -12.725200 -23.589400
N -10.248600 -13.332400 -19.614400
C -9.906600 -13.070100 -23.208200
C -9.416300 -13.508700 -20.375100
C -8.610800 -13.494800 -22.724000
C -8.375500 -13.705100 -21.354800
N -7.658300 -13.668700 -23.644300
N -7.181900 -14.091300 -20.900900
C -6.464700 -14.054900 -23.190400
C -6.229300 -14.265200 -21.821200
C -5.423900 -14.251300 -24.170100
C -4.933500 -14.689900 -21.337000
N -4.591600 -14.427600 -24.930800
N -3.912700 -15.034800 -20.955800
26
Fragment
H -4.818300 -15.051500 -30.169000
H -4.418400 -15.142400 -32.452700
H -4.006600 -14.567800 -27.834800
C -3.959600 -14.820400 -30.504700
C -3.721400 -14.875200 -31.864200
C -3.156400 -14.346400 -28.196800
C -2.953800 -14.428300 -29.615300
C -2.479000 -14.545500 -32.381500
H -2.335100 -13.917500 -26.433100
H -2.334200 -14.592000 -33.319800
C -2.164400 -13.961200 -27.366600
C -1.669500 -14.084900 -30.135600
C -1.432500 -14.143700 -31.538600
C -0.860400 -13.616300 -27.855000
C -0.623500 -13.675100 -29.258000
C -0.128500 -13.798800 -32.027000
H 0.041300 -13.168000 -26.073800
H 0.042200 -13.842500 -32.960500
C 0.186100 -13.214500 -27.012100
C 0.660900 -13.331700 -29.778300
C 0.863500 -13.413600 -31.196800
C 1.428500 -12.884800 -27.529400
C 1.666700 -12.939600 -28.888900
H 1.713600 -13.192200 -31.558800
H 2.125500 -12.617600 -26.940900
H 2.525400 -12.708500 -29.224600
40
Fragment
N -10.927500 -12.725200 -23.589400
N -10.248600 -13.332400 -19.614400
C -9.906600 -13.070100 -23.208200
C -9.416300 -13.508700 -20.375100
C -8.610800 -13.494800 -22.724000
C -8.375500 -13.705100 -21.354800
N -7.658300 -13.668700 -23.644300
N -7.181900 -14.091300 -20.900900
C -6.464700 -14.054900 -23.190400
C -6.229300 -14.265200 -21.821200
C -5.423900 -14.251300 -24.170100
C -4.933500 -14.689900 -21.337000
N -4.591600 -14.427600 -24.930800
N -3.912700 -15.034800 -20.955800
H -4.818300 -15.051500 -30.169000
H -4.418400 -15.142400 -32.452700
H -4.006600 -14.567800 -27.834800
C -3.959600 -14.820400 -30.504700
C -3.721400 -14.875200 -31.864200
C -3.156400 -14.346400 -28.196800
C -2.953800 -14.428300 -29.615300
C -2.479000 -14.545500 -32.381500
H -2.335100 -13.917500 -26.433100
H -2.334200 -14.592000 -33.319800
C -2.164400 -13.961200 -27.366600
C -1.669500 -14.084900 -30.135600
C -1.432500 -14.143700 -31.538600
C -0.860400 -13.616300 -27.855000
C -0.623500 -13.675100 -29.258000
C -0.128500 -13.798800 -32.027000
H 0.041300 -13.168000 -26.073800
H 0.042200 -13.842500 -32.960500
C 0.186100 -13.214500 -27.012100
C 0.660900 -13.331700 -29.778300
C 0.863500 -13.413600 -31.196800
C 1.428500 -12.884800 -27.529400
C 1.666700 -12.939600 -28.888900
H 1.713600 -13.192200 -31.558800
H 2.125500 -12.617600 -26.940900
H 2.525400 -12.708500 -29.224600
