20
Fragment
H -16.690000 -9.144900 -19.001500
C -15.736300 -9.460500 -19.010200
H -15.643700 -9.651800 -16.926900
H -15.554600 -9.406700 -21.070900
C -15.099700 -9.726500 -17.808500
C -15.083800 -9.611400 -20.262200
C -13.782200 -10.036000 -20.193300
C -13.754600 -10.172700 -17.746400
H -13.374100 -10.354200 -16.925600
C -13.130300 -10.316800 -18.958700
C -12.523300 -10.402700 -20.938100
H -12.279500 -10.365300 -22.971300
C -11.899000 -10.546800 -22.150500
C -11.871400 -10.683500 -19.703600
C -10.569800 -11.108100 -19.634700
C -10.553900 -10.993000 -22.088400
H -10.099000 -11.312800 -18.826000
H -10.009900 -11.067700 -22.970000
C -9.917300 -11.259000 -20.886700
H -8.963600 -11.574600 -20.895300
20
Fragment
H -21.027800 -15.027900 -12.352100
C -20.074100 -14.712200 -12.360700
H -19.981500 -14.520900 -10.277400
H -19.892400 -14.766100 -14.421400
C -19.437500 -14.446300 -11.159000
C -19.421600 -14.561400 -13.612700
C -18.120000 -14.136700 -13.543800
C -18.092400 -14.000000 -11.096900
H -17.711900 -13.818500 -10.276100
C -17.468100 -13.856000 -12.309200
C -16.861100 -13.770000 -14.288700
H -16.617300 -13.807500 -16.321800
C -16.236800 -13.626000 -15.501000
C -16.209200 -13.489300 -13.054100
C -14.907600 -13.064600 -12.985200
C -14.891700 -13.179700 -15.438900
H -14.436800 -12.859900 -12.176500
H -14.347700 -13.105100 -16.320500
C -14.255100 -12.913800 -14.237200
H -13.301400 -12.598100 -14.245800
40
Fragment
H -16.690000 -9.144900 -19.001500
C -15.736300 -9.460500 -19.010200
H -15.643700 -9.651800 -16.926900
H -15.554600 -9.406700 -21.070900
C -15.099700 -9.726500 -17.808500
C -15.083800 -9.611400 -20.262200
C -13.782200 -10.036000 -20.193300
C -13.754600 -10.172700 -17.746400
H -13.374100 -10.354200 -16.925600
C -13.130300 -10.316800 -18.958700
C -12.523300 -10.402700 -20.938100
H -12.279500 -10.365300 -22.971300
C -11.899000 -10.546800 -22.150500
C -11.871400 -10.683500 -19.703600
C -10.569800 -11.108100 -19.634700
C -10.553900 -10.993000 -22.088400
H -10.099000 -11.312800 -18.826000
H -10.009900 -11.067700 -22.970000
C -9.917300 -11.259000 -20.886700
H -8.963600 -11.574600 -20.895300
H -21.027800 -15.027900 -12.352100
C -20.074100 -14.712200 -12.360700
H -19.981500 -14.520900 -10.277400
H -19.892400 -14.766100 -14.421400
C -19.437500 -14.446300 -11.159000
C -19.421600 -14.561400 -13.612700
C -18.120000 -14.136700 -13.543800
C -18.092400 -14.000000 -11.096900
H -17.711900 -13.818500 -10.276100
C -17.468100 -13.856000 -12.309200
C -16.861100 -13.770000 -14.288700
H -16.617300 -13.807500 -16.321800
C -16.236800 -13.626000 -15.501000
C -16.209200 -13.489300 -13.054100
C -14.907600 -13.064600 -12.985200
C -14.891700 -13.179700 -15.438900
H -14.436800 -12.859900 -12.176500
H -14.347700 -13.105100 -16.320500
C -14.255100 -12.913800 -14.237200
H -13.301400 -12.598100 -14.245800
