20
Fragment
H -16.690000 -9.144900 -19.001500
C -15.736300 -9.460500 -19.010200
H -15.643700 -9.651800 -16.926900
H -15.554600 -9.406700 -21.070900
C -15.099700 -9.726500 -17.808500
C -15.083800 -9.611400 -20.262200
C -13.782200 -10.036000 -20.193300
C -13.754600 -10.172700 -17.746400
H -13.374100 -10.354200 -16.925600
C -13.130300 -10.316800 -18.958700
C -12.523300 -10.402700 -20.938100
H -12.279500 -10.365300 -22.971300
C -11.899000 -10.546800 -22.150500
C -11.871400 -10.683500 -19.703600
C -10.569800 -11.108100 -19.634700
C -10.553900 -10.993000 -22.088400
H -10.099000 -11.312800 -18.826000
H -10.009900 -11.067700 -22.970000
C -9.917300 -11.259000 -20.886700
H -8.963600 -11.574600 -20.895300
14
Fragment
N -20.704000 -11.403600 -25.450100
C -19.638000 -11.126200 -25.779200
N -19.607200 -11.608300 -29.349600
C -18.862100 -11.213000 -28.566800
C -18.312400 -10.743100 -26.194800
C -17.941100 -10.755500 -27.553700
N -17.472100 -10.349500 -25.237800
N -16.732700 -10.370000 -27.958000
C -16.263700 -9.964000 -25.642100
C -15.892400 -9.976400 -27.001000
C -15.342700 -9.506500 -24.629000
N -14.597600 -9.111200 -23.846200
C -14.566700 -9.593300 -27.416600
N -13.500800 -9.315900 -27.745700
34
Fragment
H -16.690000 -9.144900 -19.001500
C -15.736300 -9.460500 -19.010200
H -15.643700 -9.651800 -16.926900
H -15.554600 -9.406700 -21.070900
C -15.099700 -9.726500 -17.808500
C -15.083800 -9.611400 -20.262200
C -13.782200 -10.036000 -20.193300
C -13.754600 -10.172700 -17.746400
H -13.374100 -10.354200 -16.925600
C -13.130300 -10.316800 -18.958700
C -12.523300 -10.402700 -20.938100
H -12.279500 -10.365300 -22.971300
C -11.899000 -10.546800 -22.150500
C -11.871400 -10.683500 -19.703600
C -10.569800 -11.108100 -19.634700
C -10.553900 -10.993000 -22.088400
H -10.099000 -11.312800 -18.826000
H -10.009900 -11.067700 -22.970000
C -9.917300 -11.259000 -20.886700
H -8.963600 -11.574600 -20.895300
N -20.704000 -11.403600 -25.450100
C -19.638000 -11.126200 -25.779200
N -19.607200 -11.608300 -29.349600
C -18.862100 -11.213000 -28.566800
C -18.312400 -10.743100 -26.194800
C -17.941100 -10.755500 -27.553700
N -17.472100 -10.349500 -25.237800
N -16.732700 -10.370000 -27.958000
C -16.263700 -9.964000 -25.642100
C -15.892400 -9.976400 -27.001000
C -15.342700 -9.506500 -24.629000
N -14.597600 -9.111200 -23.846200
C -14.566700 -9.593300 -27.416600
N -13.500800 -9.315900 -27.745700
