14
Fragment
N -10.927500 -12.725200 -23.589400
N -10.248600 -13.332400 -19.614400
C -9.906600 -13.070100 -23.208200
C -9.416300 -13.508700 -20.375100
C -8.610800 -13.494800 -22.724000
C -8.375500 -13.705100 -21.354800
N -7.658300 -13.668700 -23.644300
N -7.181900 -14.091300 -20.900900
C -6.464700 -14.054900 -23.190400
C -6.229300 -14.265200 -21.821200
C -5.423900 -14.251300 -24.170100
C -4.933500 -14.689900 -21.337000
N -4.591600 -14.427600 -24.930800
N -3.912700 -15.034800 -20.955800
26
Fragment
H -19.838900 -9.238500 -22.744800
H -19.439000 -9.147600 -25.028500
H -19.027200 -9.722200 -20.410600
C -18.980200 -9.469600 -23.080500
C -18.742000 -9.414800 -24.440000
C -18.177100 -9.943600 -20.772600
C -17.974400 -9.861700 -22.191100
C -17.499700 -9.744500 -24.957300
H -17.355800 -10.372500 -19.008900
H -17.354900 -9.698000 -25.895600
C -17.185100 -10.328800 -19.942400
C -16.690100 -10.205100 -22.711400
C -16.453100 -10.146300 -24.114400
C -15.881100 -10.673700 -20.430800
C -15.644100 -10.614900 -21.833800
C -15.149100 -10.491200 -24.602800
H -14.979300 -11.122000 -18.649600
H -14.978400 -10.447500 -25.536300
C -14.834500 -11.075500 -19.587900
C -14.359700 -10.958300 -22.354100
C -14.157100 -10.876400 -23.772600
C -13.592100 -11.405200 -20.105200
C -13.354000 -11.350400 -21.464700
H -13.307000 -11.097800 -24.134600
H -12.895200 -11.672400 -19.516700
H -12.495200 -11.581500 -21.800400
40
Fragment
N -10.927500 -12.725200 -23.589400
N -10.248600 -13.332400 -19.614400
C -9.906600 -13.070100 -23.208200
C -9.416300 -13.508700 -20.375100
C -8.610800 -13.494800 -22.724000
C -8.375500 -13.705100 -21.354800
N -7.658300 -13.668700 -23.644300
N -7.181900 -14.091300 -20.900900
C -6.464700 -14.054900 -23.190400
C -6.229300 -14.265200 -21.821200
C -5.423900 -14.251300 -24.170100
C -4.933500 -14.689900 -21.337000
N -4.591600 -14.427600 -24.930800
N -3.912700 -15.034800 -20.955800
H -19.838900 -9.238500 -22.744800
H -19.439000 -9.147600 -25.028500
H -19.027200 -9.722200 -20.410600
C -18.980200 -9.469600 -23.080500
C -18.742000 -9.414800 -24.440000
C -18.177100 -9.943600 -20.772600
C -17.974400 -9.861700 -22.191100
C -17.499700 -9.744500 -24.957300
H -17.355800 -10.372500 -19.008900
H -17.354900 -9.698000 -25.895600
C -17.185100 -10.328800 -19.942400
C -16.690100 -10.205100 -22.711400
C -16.453100 -10.146300 -24.114400
C -15.881100 -10.673700 -20.430800
C -15.644100 -10.614900 -21.833800
C -15.149100 -10.491200 -24.602800
H -14.979300 -11.122000 -18.649600
H -14.978400 -10.447500 -25.536300
C -14.834500 -11.075500 -19.587900
C -14.359700 -10.958300 -22.354100
C -14.157100 -10.876400 -23.772600
C -13.592100 -11.405200 -20.105200
C -13.354000 -11.350400 -21.464700
H -13.307000 -11.097800 -24.134600
H -12.895200 -11.672400 -19.516700
H -12.495200 -11.581500 -21.800400
