20
Fragment
H -16.690000 -9.144900 -19.001500
C -15.736300 -9.460500 -19.010200
H -15.643700 -9.651800 -16.926900
H -15.554600 -9.406700 -21.070900
C -15.099700 -9.726500 -17.808500
C -15.083800 -9.611400 -20.262200
C -13.782200 -10.036000 -20.193300
C -13.754600 -10.172700 -17.746400
H -13.374100 -10.354200 -16.925600
C -13.130300 -10.316800 -18.958700
C -12.523300 -10.402700 -20.938100
H -12.279500 -10.365300 -22.971300
C -11.899000 -10.546800 -22.150500
C -11.871400 -10.683500 -19.703600
C -10.569800 -11.108100 -19.634700
C -10.553900 -10.993000 -22.088400
H -10.099000 -11.312800 -18.826000
H -10.009900 -11.067700 -22.970000
C -9.917300 -11.259000 -20.886700
H -8.963600 -11.574600 -20.895300
20
Fragment
H -25.303400 -9.144900 -19.001500
C -24.349700 -9.460500 -19.010200
H -24.257100 -9.651800 -16.926900
H -24.168000 -9.406700 -21.070900
C -23.713100 -9.726500 -17.808500
C -23.697200 -9.611400 -20.262200
C -22.395600 -10.036000 -20.193300
C -22.368000 -10.172700 -17.746400
H -21.987500 -10.354200 -16.925600
C -21.743700 -10.316800 -18.958700
C -21.136700 -10.402700 -20.938100
H -20.892900 -10.365300 -22.971300
C -20.512400 -10.546800 -22.150500
C -20.484800 -10.683500 -19.703600
C -19.183200 -11.108100 -19.634700
C -19.167300 -10.993000 -22.088400
H -18.712400 -11.312800 -18.826000
H -18.623300 -11.067700 -22.970000
C -18.530700 -11.259000 -20.886700
H -17.577000 -11.574600 -20.895300
40
Fragment
H -16.690000 -9.144900 -19.001500
C -15.736300 -9.460500 -19.010200
H -15.643700 -9.651800 -16.926900
H -15.554600 -9.406700 -21.070900
C -15.099700 -9.726500 -17.808500
C -15.083800 -9.611400 -20.262200
C -13.782200 -10.036000 -20.193300
C -13.754600 -10.172700 -17.746400
H -13.374100 -10.354200 -16.925600
C -13.130300 -10.316800 -18.958700
C -12.523300 -10.402700 -20.938100
H -12.279500 -10.365300 -22.971300
C -11.899000 -10.546800 -22.150500
C -11.871400 -10.683500 -19.703600
C -10.569800 -11.108100 -19.634700
C -10.553900 -10.993000 -22.088400
H -10.099000 -11.312800 -18.826000
H -10.009900 -11.067700 -22.970000
C -9.917300 -11.259000 -20.886700
H -8.963600 -11.574600 -20.895300
H -25.303400 -9.144900 -19.001500
C -24.349700 -9.460500 -19.010200
H -24.257100 -9.651800 -16.926900
H -24.168000 -9.406700 -21.070900
C -23.713100 -9.726500 -17.808500
C -23.697200 -9.611400 -20.262200
C -22.395600 -10.036000 -20.193300
C -22.368000 -10.172700 -17.746400
H -21.987500 -10.354200 -16.925600
C -21.743700 -10.316800 -18.958700
C -21.136700 -10.402700 -20.938100
H -20.892900 -10.365300 -22.971300
C -20.512400 -10.546800 -22.150500
C -20.484800 -10.683500 -19.703600
C -19.183200 -11.108100 -19.634700
C -19.167300 -10.993000 -22.088400
H -18.712400 -11.312800 -18.826000
H -18.623300 -11.067700 -22.970000
C -18.530700 -11.259000 -20.886700
H -17.577000 -11.574600 -20.895300
