20
Fragment
H -16.690000 -9.144900 -19.001500
C -15.736300 -9.460500 -19.010200
H -15.643700 -9.651800 -16.926900
H -15.554600 -9.406700 -21.070900
C -15.099700 -9.726500 -17.808500
C -15.083800 -9.611400 -20.262200
C -13.782200 -10.036000 -20.193300
C -13.754600 -10.172700 -17.746400
H -13.374100 -10.354200 -16.925600
C -13.130300 -10.316800 -18.958700
C -12.523300 -10.402700 -20.938100
H -12.279500 -10.365300 -22.971300
C -11.899000 -10.546800 -22.150500
C -11.871400 -10.683500 -19.703600
C -10.569800 -11.108100 -19.634700
C -10.553900 -10.993000 -22.088400
H -10.099000 -11.312800 -18.826000
H -10.009900 -11.067700 -22.970000
C -9.917300 -11.259000 -20.886700
H -8.963600 -11.574600 -20.895300
14
Fragment
N -25.041800 -5.862700 -18.800600
C -23.975800 -6.140000 -19.129700
N -23.945000 -5.657900 -22.700100
C -23.199900 -6.053300 -21.917300
C -22.650200 -6.523100 -19.545300
C -22.278900 -6.510800 -20.904200
N -21.809900 -6.916800 -18.588300
N -21.070500 -6.896200 -21.308500
C -20.601500 -7.302200 -18.992600
C -20.230200 -7.289900 -20.351500
C -19.680500 -7.759700 -17.979500
N -18.935400 -8.155100 -17.196700
C -18.904500 -7.673000 -20.767100
N -17.838600 -7.950300 -21.096300
34
Fragment
H -16.690000 -9.144900 -19.001500
C -15.736300 -9.460500 -19.010200
H -15.643700 -9.651800 -16.926900
H -15.554600 -9.406700 -21.070900
C -15.099700 -9.726500 -17.808500
C -15.083800 -9.611400 -20.262200
C -13.782200 -10.036000 -20.193300
C -13.754600 -10.172700 -17.746400
H -13.374100 -10.354200 -16.925600
C -13.130300 -10.316800 -18.958700
C -12.523300 -10.402700 -20.938100
H -12.279500 -10.365300 -22.971300
C -11.899000 -10.546800 -22.150500
C -11.871400 -10.683500 -19.703600
C -10.569800 -11.108100 -19.634700
C -10.553900 -10.993000 -22.088400
H -10.099000 -11.312800 -18.826000
H -10.009900 -11.067700 -22.970000
C -9.917300 -11.259000 -20.886700
H -8.963600 -11.574600 -20.895300
N -25.041800 -5.862700 -18.800600
C -23.975800 -6.140000 -19.129700
N -23.945000 -5.657900 -22.700100
C -23.199900 -6.053300 -21.917300
C -22.650200 -6.523100 -19.545300
C -22.278900 -6.510800 -20.904200
N -21.809900 -6.916800 -18.588300
N -21.070500 -6.896200 -21.308500
C -20.601500 -7.302200 -18.992600
C -20.230200 -7.289900 -20.351500
C -19.680500 -7.759700 -17.979500
N -18.935400 -8.155100 -17.196700
C -18.904500 -7.673000 -20.767100
N -17.838600 -7.950300 -21.096300
