20
Fragment
H -16.690000 -9.144900 -19.001500
C -15.736300 -9.460500 -19.010200
H -15.643700 -9.651800 -16.926900
H -15.554600 -9.406700 -21.070900
C -15.099700 -9.726500 -17.808500
C -15.083800 -9.611400 -20.262200
C -13.782200 -10.036000 -20.193300
C -13.754600 -10.172700 -17.746400
H -13.374100 -10.354200 -16.925600
C -13.130300 -10.316800 -18.958700
C -12.523300 -10.402700 -20.938100
H -12.279500 -10.365300 -22.971300
C -11.899000 -10.546800 -22.150500
C -11.871400 -10.683500 -19.703600
C -10.569800 -11.108100 -19.634700
C -10.553900 -10.993000 -22.088400
H -10.099000 -11.312800 -18.826000
H -10.009900 -11.067700 -22.970000
C -9.917300 -11.259000 -20.886700
H -8.963600 -11.574600 -20.895300
20
Fragment
H -12.352200 -15.027900 -25.651000
C -11.398500 -14.712200 -25.659700
H -11.305900 -14.520900 -23.576400
H -11.216800 -14.766100 -27.720300
C -10.761900 -14.446300 -24.458000
C -10.746000 -14.561400 -26.911600
C -9.444400 -14.136700 -26.842700
C -9.416800 -14.000000 -24.395900
H -9.036300 -13.818500 -23.575100
C -8.792500 -13.856000 -25.608200
C -8.185500 -13.770000 -27.587600
H -7.941700 -13.807500 -29.620800
C -7.561200 -13.626000 -28.799900
C -7.533600 -13.489300 -26.353100
C -6.232000 -13.064600 -26.284200
C -6.216100 -13.179700 -28.737800
H -5.761200 -12.859900 -25.475500
H -5.672100 -13.105100 -29.619400
C -5.579500 -12.913800 -27.536200
H -4.625800 -12.598100 -27.544800
40
Fragment
H -16.690000 -9.144900 -19.001500
C -15.736300 -9.460500 -19.010200
H -15.643700 -9.651800 -16.926900
H -15.554600 -9.406700 -21.070900
C -15.099700 -9.726500 -17.808500
C -15.083800 -9.611400 -20.262200
C -13.782200 -10.036000 -20.193300
C -13.754600 -10.172700 -17.746400
H -13.374100 -10.354200 -16.925600
C -13.130300 -10.316800 -18.958700
C -12.523300 -10.402700 -20.938100
H -12.279500 -10.365300 -22.971300
C -11.899000 -10.546800 -22.150500
C -11.871400 -10.683500 -19.703600
C -10.569800 -11.108100 -19.634700
C -10.553900 -10.993000 -22.088400
H -10.099000 -11.312800 -18.826000
H -10.009900 -11.067700 -22.970000
C -9.917300 -11.259000 -20.886700
H -8.963600 -11.574600 -20.895300
H -12.352200 -15.027900 -25.651000
C -11.398500 -14.712200 -25.659700
H -11.305900 -14.520900 -23.576400
H -11.216800 -14.766100 -27.720300
C -10.761900 -14.446300 -24.458000
C -10.746000 -14.561400 -26.911600
C -9.444400 -14.136700 -26.842700
C -9.416800 -14.000000 -24.395900
H -9.036300 -13.818500 -23.575100
C -8.792500 -13.856000 -25.608200
C -8.185500 -13.770000 -27.587600
H -7.941700 -13.807500 -29.620800
C -7.561200 -13.626000 -28.799900
C -7.533600 -13.489300 -26.353100
C -6.232000 -13.064600 -26.284200
C -6.216100 -13.179700 -28.737800
H -5.761200 -12.859900 -25.475500
H -5.672100 -13.105100 -29.619400
C -5.579500 -12.913800 -27.536200
H -4.625800 -12.598100 -27.544800
