20
Fragment
H -16.690000 -9.144900 -19.001500
C -15.736300 -9.460500 -19.010200
H -15.643700 -9.651800 -16.926900
H -15.554600 -9.406700 -21.070900
C -15.099700 -9.726500 -17.808500
C -15.083800 -9.611400 -20.262200
C -13.782200 -10.036000 -20.193300
C -13.754600 -10.172700 -17.746400
H -13.374100 -10.354200 -16.925600
C -13.130300 -10.316800 -18.958700
C -12.523300 -10.402700 -20.938100
H -12.279500 -10.365300 -22.971300
C -11.899000 -10.546800 -22.150500
C -11.871400 -10.683500 -19.703600
C -10.569800 -11.108100 -19.634700
C -10.553900 -10.993000 -22.088400
H -10.099000 -11.312800 -18.826000
H -10.009900 -11.067700 -22.970000
C -9.917300 -11.259000 -20.886700
H -8.963600 -11.574600 -20.895300
20
Fragment
H -8.076600 -9.144900 -19.001500
C -7.122900 -9.460500 -19.010200
H -7.030300 -9.651800 -16.926900
H -6.941200 -9.406700 -21.070900
C -6.486300 -9.726500 -17.808500
C -6.470400 -9.611400 -20.262200
C -5.168800 -10.036000 -20.193300
C -5.141200 -10.172700 -17.746400
H -4.760700 -10.354200 -16.925600
C -4.516900 -10.316800 -18.958700
C -3.909900 -10.402700 -20.938100
H -3.666100 -10.365300 -22.971300
C -3.285600 -10.546800 -22.150500
C -3.258000 -10.683500 -19.703600
C -1.956400 -11.108100 -19.634700
C -1.940500 -10.993000 -22.088400
H -1.485600 -11.312800 -18.826000
H -1.396500 -11.067700 -22.970000
C -1.303900 -11.259000 -20.886700
H -0.350200 -11.574600 -20.895300
40
Fragment
H -16.690000 -9.144900 -19.001500
C -15.736300 -9.460500 -19.010200
H -15.643700 -9.651800 -16.926900
H -15.554600 -9.406700 -21.070900
C -15.099700 -9.726500 -17.808500
C -15.083800 -9.611400 -20.262200
C -13.782200 -10.036000 -20.193300
C -13.754600 -10.172700 -17.746400
H -13.374100 -10.354200 -16.925600
C -13.130300 -10.316800 -18.958700
C -12.523300 -10.402700 -20.938100
H -12.279500 -10.365300 -22.971300
C -11.899000 -10.546800 -22.150500
C -11.871400 -10.683500 -19.703600
C -10.569800 -11.108100 -19.634700
C -10.553900 -10.993000 -22.088400
H -10.099000 -11.312800 -18.826000
H -10.009900 -11.067700 -22.970000
C -9.917300 -11.259000 -20.886700
H -8.963600 -11.574600 -20.895300
H -8.076600 -9.144900 -19.001500
C -7.122900 -9.460500 -19.010200
H -7.030300 -9.651800 -16.926900
H -6.941200 -9.406700 -21.070900
C -6.486300 -9.726500 -17.808500
C -6.470400 -9.611400 -20.262200
C -5.168800 -10.036000 -20.193300
C -5.141200 -10.172700 -17.746400
H -4.760700 -10.354200 -16.925600
C -4.516900 -10.316800 -18.958700
C -3.909900 -10.402700 -20.938100
H -3.666100 -10.365300 -22.971300
C -3.285600 -10.546800 -22.150500
C -3.258000 -10.683500 -19.703600
C -1.956400 -11.108100 -19.634700
C -1.940500 -10.993000 -22.088400
H -1.485600 -11.312800 -18.826000
H -1.396500 -11.067700 -22.970000
C -1.303900 -11.259000 -20.886700
H -0.350200 -11.574600 -20.895300
