14
Fragment
N -10.927500 -12.725200 -23.589400
N -10.248600 -13.332400 -19.614400
C -9.906600 -13.070100 -23.208200
C -9.416300 -13.508700 -20.375100
C -8.610800 -13.494800 -22.724000
C -8.375500 -13.705100 -21.354800
N -7.658300 -13.668700 -23.644300
N -7.181900 -14.091300 -20.900900
C -6.464700 -14.054900 -23.190400
C -6.229300 -14.265200 -21.821200
C -5.423900 -14.251300 -24.170100
C -4.933500 -14.689900 -21.337000
N -4.591600 -14.427600 -24.930800
N -3.912700 -15.034800 -20.955800
26
Fragment
H -2.344900 -16.178500 -22.744800
H -1.945000 -16.087600 -25.028500
H -1.533200 -16.662200 -20.410600
C -1.486200 -16.409600 -23.080500
C -1.248000 -16.354800 -24.440000
C -0.683100 -16.883600 -20.772600
C -0.480400 -16.801700 -22.191100
C -0.005700 -16.684500 -24.957300
H 0.138200 -17.312500 -19.008900
H 0.139100 -16.638000 -25.895600
C 0.308900 -17.268800 -19.942400
C 0.803900 -17.145100 -22.711400
C 1.040900 -17.086300 -24.114400
C 1.612900 -17.613700 -20.430800
C 1.849900 -17.554900 -21.833800
C 2.344900 -17.431200 -24.602800
H 2.514700 -18.062000 -18.649600
H 2.515600 -17.387500 -25.536300
C 2.659500 -18.015500 -19.587900
C 3.134300 -17.898300 -22.354100
C 3.336900 -17.816400 -23.772600
C 3.901900 -18.345200 -20.105200
C 4.140000 -18.290400 -21.464700
H 4.187000 -18.037800 -24.134600
H 4.598800 -18.612400 -19.516700
H 4.998800 -18.521500 -21.800400
40
Fragment
N -10.927500 -12.725200 -23.589400
N -10.248600 -13.332400 -19.614400
C -9.906600 -13.070100 -23.208200
C -9.416300 -13.508700 -20.375100
C -8.610800 -13.494800 -22.724000
C -8.375500 -13.705100 -21.354800
N -7.658300 -13.668700 -23.644300
N -7.181900 -14.091300 -20.900900
C -6.464700 -14.054900 -23.190400
C -6.229300 -14.265200 -21.821200
C -5.423900 -14.251300 -24.170100
C -4.933500 -14.689900 -21.337000
N -4.591600 -14.427600 -24.930800
N -3.912700 -15.034800 -20.955800
H -2.344900 -16.178500 -22.744800
H -1.945000 -16.087600 -25.028500
H -1.533200 -16.662200 -20.410600
C -1.486200 -16.409600 -23.080500
C -1.248000 -16.354800 -24.440000
C -0.683100 -16.883600 -20.772600
C -0.480400 -16.801700 -22.191100
C -0.005700 -16.684500 -24.957300
H 0.138200 -17.312500 -19.008900
H 0.139100 -16.638000 -25.895600
C 0.308900 -17.268800 -19.942400
C 0.803900 -17.145100 -22.711400
C 1.040900 -17.086300 -24.114400
C 1.612900 -17.613700 -20.430800
C 1.849900 -17.554900 -21.833800
C 2.344900 -17.431200 -24.602800
H 2.514700 -18.062000 -18.649600
H 2.515600 -17.387500 -25.536300
C 2.659500 -18.015500 -19.587900
C 3.134300 -17.898300 -22.354100
C 3.336900 -17.816400 -23.772600
C 3.901900 -18.345200 -20.105200
C 4.140000 -18.290400 -21.464700
H 4.187000 -18.037800 -24.134600
H 4.598800 -18.612400 -19.516700
H 4.998800 -18.521500 -21.800400
