42
Fragment
O -24.059700 -15.277900 -8.994200
H -23.481700 -13.084500 -8.141700
N -23.215400 -15.035200 -9.852300
O -22.955000 -15.808500 -10.764500
C -22.805000 -12.877000 -8.775900
C -22.473900 -13.789900 -9.749500
H -22.384600 -10.975600 -8.107500
C -22.103000 -11.653800 -8.709800
H -22.042500 -7.133200 -6.406400
C -21.450400 -13.545000 -10.653000
H -21.428200 -8.505300 -6.791300
H -21.263800 -14.152900 -11.359700
C -21.241200 -7.640400 -6.445500
C -21.039400 -11.433300 -9.563100
H -20.876100 -7.721100 -5.571500
C -20.741100 -12.392600 -10.546200
N -20.533300 -9.336600 -8.531300
H -20.376900 -5.481100 -5.774600
N -20.275300 -10.256700 -9.514500
C -20.170700 -7.326600 -7.418300
H -20.011400 -12.231300 -11.134200
H -19.961100 -3.349800 -4.800300
C -19.801800 -8.254500 -8.516200
N -19.697200 -5.324400 -6.420000
H -19.595600 -10.100000 -10.159800
N -19.439200 -6.244500 -7.403100
C -19.231400 -3.188500 -5.388200
H -19.096400 -7.860000 -10.363000
C -18.933100 -4.147800 -6.371400
C -18.731300 -7.940700 -9.489000
H -18.708700 -1.428200 -4.574800
H -18.544300 -7.075900 -9.143200
C -18.522100 -2.036100 -5.281500
H -17.930000 -8.448000 -9.528000
C -17.869500 -3.927300 -7.224700
H -17.587900 -4.605600 -7.827000
C -17.498600 -1.791200 -6.185000
C -17.167500 -2.704100 -7.158600
O -17.017500 0.227300 -5.169900
N -16.757100 -0.545900 -6.082200
H -16.490800 -2.496600 -7.792700
O -15.912800 -0.303200 -6.940300
42
Fragment
O -26.033500 -29.936100 -16.961400
H -25.455500 -27.742700 -16.108900
N -25.189200 -29.693500 -17.819500
O -24.928800 -30.466700 -18.731700
C -24.778900 -27.535300 -16.743100
C -24.447700 -28.448200 -17.716700
H -24.358400 -25.633800 -16.074700
C -24.076800 -26.312100 -16.677000
H -24.016300 -21.791400 -14.373700
C -23.424200 -28.203200 -18.620200
H -23.402000 -23.163500 -14.758500
H -23.237600 -28.811200 -19.326900
C -23.215000 -22.298600 -14.412700
C -23.013200 -26.091500 -17.530300
H -22.849900 -22.379400 -13.538700
C -22.714900 -27.050800 -18.513400
N -22.507100 -23.994800 -16.498500
H -22.350700 -20.139300 -13.741900
N -22.249100 -24.915000 -17.481700
C -22.144600 -21.984800 -15.385500
H -21.985300 -26.889600 -19.101400
H -21.934900 -18.008100 -12.767500
C -21.775600 -22.912800 -16.483400
N -21.671000 -19.982600 -14.387200
H -21.569400 -24.758300 -18.127000
N -21.413000 -20.902800 -15.370400
C -21.205200 -17.846800 -13.355500
H -21.070200 -22.518200 -18.330200
C -20.906900 -18.806100 -14.338600
C -20.705100 -22.599000 -17.456200
H -20.682500 -16.086500 -12.542000
H -20.518200 -21.734100 -17.110400
C -20.495900 -16.694400 -13.248700
H -19.903800 -23.106200 -17.495200
C -19.843400 -18.585600 -15.191900
H -19.561700 -19.263800 -15.794200
C -19.472400 -16.449500 -14.152200
C -19.141300 -17.362300 -15.125800
O -18.991300 -14.430900 -13.137200
N -18.730900 -15.204100 -14.049400
H -18.464700 -17.154900 -15.760000
O -17.886600 -14.961500 -14.907500
84
Fragment
O -24.059700 -15.277900 -8.994200
H -23.481700 -13.084500 -8.141700
N -23.215400 -15.035200 -9.852300
O -22.955000 -15.808500 -10.764500
C -22.805000 -12.877000 -8.775900
C -22.473900 -13.789900 -9.749500
H -22.384600 -10.975600 -8.107500
C -22.103000 -11.653800 -8.709800
H -22.042500 -7.133200 -6.406400
C -21.450400 -13.545000 -10.653000
H -21.428200 -8.505300 -6.791300
H -21.263800 -14.152900 -11.359700
C -21.241200 -7.640400 -6.445500
C -21.039400 -11.433300 -9.563100
H -20.876100 -7.721100 -5.571500
C -20.741100 -12.392600 -10.546200
N -20.533300 -9.336600 -8.531300
H -20.376900 -5.481100 -5.774600
N -20.275300 -10.256700 -9.514500
C -20.170700 -7.326600 -7.418300
H -20.011400 -12.231300 -11.134200
H -19.961100 -3.349800 -4.800300
C -19.801800 -8.254500 -8.516200
N -19.697200 -5.324400 -6.420000
H -19.595600 -10.100000 -10.159800
N -19.439200 -6.244500 -7.403100
C -19.231400 -3.188500 -5.388200
H -19.096400 -7.860000 -10.363000
C -18.933100 -4.147800 -6.371400
C -18.731300 -7.940700 -9.489000
H -18.708700 -1.428200 -4.574800
H -18.544300 -7.075900 -9.143200
C -18.522100 -2.036100 -5.281500
H -17.930000 -8.448000 -9.528000
C -17.869500 -3.927300 -7.224700
H -17.587900 -4.605600 -7.827000
C -17.498600 -1.791200 -6.185000
C -17.167500 -2.704100 -7.158600
O -17.017500 0.227300 -5.169900
N -16.757100 -0.545900 -6.082200
H -16.490800 -2.496600 -7.792700
O -15.912800 -0.303200 -6.940300
O -26.033500 -29.936100 -16.961400
H -25.455500 -27.742700 -16.108900
N -25.189200 -29.693500 -17.819500
O -24.928800 -30.466700 -18.731700
C -24.778900 -27.535300 -16.743100
C -24.447700 -28.448200 -17.716700
H -24.358400 -25.633800 -16.074700
C -24.076800 -26.312100 -16.677000
H -24.016300 -21.791400 -14.373700
C -23.424200 -28.203200 -18.620200
H -23.402000 -23.163500 -14.758500
H -23.237600 -28.811200 -19.326900
C -23.215000 -22.298600 -14.412700
C -23.013200 -26.091500 -17.530300
H -22.849900 -22.379400 -13.538700
C -22.714900 -27.050800 -18.513400
N -22.507100 -23.994800 -16.498500
H -22.350700 -20.139300 -13.741900
N -22.249100 -24.915000 -17.481700
C -22.144600 -21.984800 -15.385500
H -21.985300 -26.889600 -19.101400
H -21.934900 -18.008100 -12.767500
C -21.775600 -22.912800 -16.483400
N -21.671000 -19.982600 -14.387200
H -21.569400 -24.758300 -18.127000
N -21.413000 -20.902800 -15.370400
C -21.205200 -17.846800 -13.355500
H -21.070200 -22.518200 -18.330200
C -20.906900 -18.806100 -14.338600
C -20.705100 -22.599000 -17.456200
H -20.682500 -16.086500 -12.542000
H -20.518200 -21.734100 -17.110400
C -20.495900 -16.694400 -13.248700
H -19.903800 -23.106200 -17.495200
C -19.843400 -18.585600 -15.191900
H -19.561700 -19.263800 -15.794200
C -19.472400 -16.449500 -14.152200
C -19.141300 -17.362300 -15.125800
O -18.991300 -14.430900 -13.137200
N -18.730900 -15.204100 -14.049400
H -18.464700 -17.154900 -15.760000
O -17.886600 -14.961500 -14.907500
