42
Fragment
O -24.059700 -15.277900 -8.994200
H -23.481700 -13.084500 -8.141700
N -23.215400 -15.035200 -9.852300
O -22.955000 -15.808500 -10.764500
C -22.805000 -12.877000 -8.775900
C -22.473900 -13.789900 -9.749500
H -22.384600 -10.975600 -8.107500
C -22.103000 -11.653800 -8.709800
H -22.042500 -7.133200 -6.406400
C -21.450400 -13.545000 -10.653000
H -21.428200 -8.505300 -6.791300
H -21.263800 -14.152900 -11.359700
C -21.241200 -7.640400 -6.445500
C -21.039400 -11.433300 -9.563100
H -20.876100 -7.721100 -5.571500
C -20.741100 -12.392600 -10.546200
N -20.533300 -9.336600 -8.531300
H -20.376900 -5.481100 -5.774600
N -20.275300 -10.256700 -9.514500
C -20.170700 -7.326600 -7.418300
H -20.011400 -12.231300 -11.134200
H -19.961100 -3.349800 -4.800300
C -19.801800 -8.254500 -8.516200
N -19.697200 -5.324400 -6.420000
H -19.595600 -10.100000 -10.159800
N -19.439200 -6.244500 -7.403100
C -19.231400 -3.188500 -5.388200
H -19.096400 -7.860000 -10.363000
C -18.933100 -4.147800 -6.371400
C -18.731300 -7.940700 -9.489000
H -18.708700 -1.428200 -4.574800
H -18.544300 -7.075900 -9.143200
C -18.522100 -2.036100 -5.281500
H -17.930000 -8.448000 -9.528000
C -17.869500 -3.927300 -7.224700
H -17.587900 -4.605600 -7.827000
C -17.498600 -1.791200 -6.185000
C -17.167500 -2.704100 -7.158600
O -17.017500 0.227300 -5.169900
N -16.757100 -0.545900 -6.082200
H -16.490800 -2.496600 -7.792700
O -15.912800 -0.303200 -6.940300
12
Fragment
H -24.869500 -5.926300 -2.432400
H -24.346800 -4.168600 -1.173600
H -24.279400 -5.990100 -3.866500
H -24.076600 -2.942200 -2.075500
C -24.067200 -5.946100 -2.941500
C -23.712300 -3.745500 -1.741600
H -23.556600 -6.709600 -2.696900
N -23.358800 -4.641500 -2.837100
H -22.922000 -3.558000 -1.249300
C -22.405800 -4.318700 -3.666500
O -22.015000 -4.992900 -4.607400
H -21.957100 -3.493600 -3.521500
54
Fragment
O -24.059700 -15.277900 -8.994200
H -23.481700 -13.084500 -8.141700
N -23.215400 -15.035200 -9.852300
O -22.955000 -15.808500 -10.764500
C -22.805000 -12.877000 -8.775900
C -22.473900 -13.789900 -9.749500
H -22.384600 -10.975600 -8.107500
C -22.103000 -11.653800 -8.709800
H -22.042500 -7.133200 -6.406400
C -21.450400 -13.545000 -10.653000
H -21.428200 -8.505300 -6.791300
H -21.263800 -14.152900 -11.359700
C -21.241200 -7.640400 -6.445500
C -21.039400 -11.433300 -9.563100
H -20.876100 -7.721100 -5.571500
C -20.741100 -12.392600 -10.546200
N -20.533300 -9.336600 -8.531300
H -20.376900 -5.481100 -5.774600
N -20.275300 -10.256700 -9.514500
C -20.170700 -7.326600 -7.418300
H -20.011400 -12.231300 -11.134200
H -19.961100 -3.349800 -4.800300
C -19.801800 -8.254500 -8.516200
N -19.697200 -5.324400 -6.420000
H -19.595600 -10.100000 -10.159800
N -19.439200 -6.244500 -7.403100
C -19.231400 -3.188500 -5.388200
H -19.096400 -7.860000 -10.363000
C -18.933100 -4.147800 -6.371400
C -18.731300 -7.940700 -9.489000
H -18.708700 -1.428200 -4.574800
H -18.544300 -7.075900 -9.143200
C -18.522100 -2.036100 -5.281500
H -17.930000 -8.448000 -9.528000
C -17.869500 -3.927300 -7.224700
H -17.587900 -4.605600 -7.827000
C -17.498600 -1.791200 -6.185000
C -17.167500 -2.704100 -7.158600
O -17.017500 0.227300 -5.169900
N -16.757100 -0.545900 -6.082200
H -16.490800 -2.496600 -7.792700
O -15.912800 -0.303200 -6.940300
H -24.869500 -5.926300 -2.432400
H -24.346800 -4.168600 -1.173600
H -24.279400 -5.990100 -3.866500
H -24.076600 -2.942200 -2.075500
C -24.067200 -5.946100 -2.941500
C -23.712300 -3.745500 -1.741600
H -23.556600 -6.709600 -2.696900
N -23.358800 -4.641500 -2.837100
H -22.922000 -3.558000 -1.249300
C -22.405800 -4.318700 -3.666500
O -22.015000 -4.992900 -4.607400
H -21.957100 -3.493600 -3.521500
