28
Fragment
H -8.762900 -10.091100 -36.259600
H -8.732100 -7.946100 -35.277600
N -8.720300 -10.467700 -35.486800
H -8.708300 -11.324900 -35.427800
C -8.689200 -8.349800 -34.440400
C -8.672100 -9.714700 -34.374200
H -8.662500 -6.620300 -33.424300
H -8.650700 -12.295700 -33.640800
C -8.645600 -7.545500 -33.324100
C -8.625700 -11.741100 -32.894800
H -8.624500 -13.219200 -31.596100
C -8.609900 -10.350500 -33.080900
C -8.606400 -12.292900 -31.676600
C -8.577800 -8.086500 -32.072000
C -8.575900 -9.518000 -31.957500
C -8.558200 -11.476600 -30.487100
H -8.550400 -9.352000 -27.431700
C -8.546800 -10.075700 -30.651600
C -8.544400 -12.053700 -29.204500
H -8.543800 -12.977700 -29.106100
C -8.541100 -9.867700 -28.204500
C -8.535500 -9.243400 -29.490700
C -8.533200 -11.257300 -28.129400
C -8.529500 -7.299500 -30.882400
H -8.518700 -11.653200 -27.286800
H -8.513300 -6.373000 -30.953900
C -8.507000 -7.864900 -29.649900
H -8.472300 -7.318200 -28.898600
20
Fragment
N -10.660400 -3.210500 -24.444400
C -10.620500 -4.343600 -24.569600
H -10.597600 -5.142300 -22.156500
C -10.584200 -5.758000 -24.710900
C -10.579600 -6.257700 -26.052500
C -10.568800 -6.062800 -22.283500
N -10.568200 -6.654800 -27.125800
C -10.564400 -6.606200 -23.621500
H -10.564300 -6.515200 -20.369400
C -10.532300 -6.880100 -21.224500
H -10.526800 -8.394400 -24.632200
C -10.515000 -8.026900 -23.777200
C -10.451100 -8.838100 -22.712800
C -10.445500 -8.299400 -21.373000
H -10.409400 -9.759000 -22.838000
N -10.380100 -8.200100 -17.883000
C -10.369500 -8.617200 -18.940200
C -10.349400 -9.132300 -20.276400
C -10.146900 -10.534200 -20.394500
N -9.951100 -11.653200 -20.464200
48
Fragment
H -8.762900 -10.091100 -36.259600
H -8.732100 -7.946100 -35.277600
N -8.720300 -10.467700 -35.486800
H -8.708300 -11.324900 -35.427800
C -8.689200 -8.349800 -34.440400
C -8.672100 -9.714700 -34.374200
H -8.662500 -6.620300 -33.424300
H -8.650700 -12.295700 -33.640800
C -8.645600 -7.545500 -33.324100
C -8.625700 -11.741100 -32.894800
H -8.624500 -13.219200 -31.596100
C -8.609900 -10.350500 -33.080900
C -8.606400 -12.292900 -31.676600
C -8.577800 -8.086500 -32.072000
C -8.575900 -9.518000 -31.957500
C -8.558200 -11.476600 -30.487100
H -8.550400 -9.352000 -27.431700
C -8.546800 -10.075700 -30.651600
C -8.544400 -12.053700 -29.204500
H -8.543800 -12.977700 -29.106100
C -8.541100 -9.867700 -28.204500
C -8.535500 -9.243400 -29.490700
C -8.533200 -11.257300 -28.129400
C -8.529500 -7.299500 -30.882400
H -8.518700 -11.653200 -27.286800
H -8.513300 -6.373000 -30.953900
C -8.507000 -7.864900 -29.649900
H -8.472300 -7.318200 -28.898600
N -10.660400 -3.210500 -24.444400
C -10.620500 -4.343600 -24.569600
H -10.597600 -5.142300 -22.156500
C -10.584200 -5.758000 -24.710900
C -10.579600 -6.257700 -26.052500
C -10.568800 -6.062800 -22.283500
N -10.568200 -6.654800 -27.125800
C -10.564400 -6.606200 -23.621500
H -10.564300 -6.515200 -20.369400
C -10.532300 -6.880100 -21.224500
H -10.526800 -8.394400 -24.632200
C -10.515000 -8.026900 -23.777200
C -10.451100 -8.838100 -22.712800
C -10.445500 -8.299400 -21.373000
H -10.409400 -9.759000 -22.838000
N -10.380100 -8.200100 -17.883000
C -10.369500 -8.617200 -18.940200
C -10.349400 -9.132300 -20.276400
C -10.146900 -10.534200 -20.394500
N -9.951100 -11.653200 -20.464200
