28
Fragment
H -8.762900 -10.091100 -36.259600
H -8.732100 -7.946100 -35.277600
N -8.720300 -10.467700 -35.486800
H -8.708300 -11.324900 -35.427800
C -8.689200 -8.349800 -34.440400
C -8.672100 -9.714700 -34.374200
H -8.662500 -6.620300 -33.424300
H -8.650700 -12.295700 -33.640800
C -8.645600 -7.545500 -33.324100
C -8.625700 -11.741100 -32.894800
H -8.624500 -13.219200 -31.596100
C -8.609900 -10.350500 -33.080900
C -8.606400 -12.292900 -31.676600
C -8.577800 -8.086500 -32.072000
C -8.575900 -9.518000 -31.957500
C -8.558200 -11.476600 -30.487100
H -8.550400 -9.352000 -27.431700
C -8.546800 -10.075700 -30.651600
C -8.544400 -12.053700 -29.204500
H -8.543800 -12.977700 -29.106100
C -8.541100 -9.867700 -28.204500
C -8.535500 -9.243400 -29.490700
C -8.533200 -11.257300 -28.129400
C -8.529500 -7.299500 -30.882400
H -8.518700 -11.653200 -27.286800
H -8.513300 -6.373000 -30.953900
C -8.507000 -7.864900 -29.649900
H -8.472300 -7.318200 -28.898600
20
Fragment
N -5.717100 -5.398100 -33.200700
C -5.521300 -6.517100 -33.270500
C -5.318800 -7.918900 -33.388500
C -5.298700 -8.434100 -34.724800
N -5.288000 -8.851100 -35.782000
H -5.258800 -7.292300 -30.826900
C -5.222700 -8.751900 -32.292000
C -5.217100 -8.213100 -30.952200
C -5.153100 -9.024400 -29.887800
H -5.141400 -8.656900 -29.032700
C -5.135900 -10.171200 -32.440500
H -5.103900 -10.536000 -33.295500
C -5.103800 -10.445100 -30.043400
N -5.100000 -10.396500 -26.539100
C -5.099400 -10.988400 -31.381500
C -5.088600 -10.793600 -27.612400
C -5.084000 -11.293200 -28.954000
H -5.070600 -11.909000 -31.508500
C -5.047700 -12.707600 -29.095400
N -5.007800 -13.840800 -29.220600
48
Fragment
H -8.762900 -10.091100 -36.259600
H -8.732100 -7.946100 -35.277600
N -8.720300 -10.467700 -35.486800
H -8.708300 -11.324900 -35.427800
C -8.689200 -8.349800 -34.440400
C -8.672100 -9.714700 -34.374200
H -8.662500 -6.620300 -33.424300
H -8.650700 -12.295700 -33.640800
C -8.645600 -7.545500 -33.324100
C -8.625700 -11.741100 -32.894800
H -8.624500 -13.219200 -31.596100
C -8.609900 -10.350500 -33.080900
C -8.606400 -12.292900 -31.676600
C -8.577800 -8.086500 -32.072000
C -8.575900 -9.518000 -31.957500
C -8.558200 -11.476600 -30.487100
H -8.550400 -9.352000 -27.431700
C -8.546800 -10.075700 -30.651600
C -8.544400 -12.053700 -29.204500
H -8.543800 -12.977700 -29.106100
C -8.541100 -9.867700 -28.204500
C -8.535500 -9.243400 -29.490700
C -8.533200 -11.257300 -28.129400
C -8.529500 -7.299500 -30.882400
H -8.518700 -11.653200 -27.286800
H -8.513300 -6.373000 -30.953900
C -8.507000 -7.864900 -29.649900
H -8.472300 -7.318200 -28.898600
N -5.717100 -5.398100 -33.200700
C -5.521300 -6.517100 -33.270500
C -5.318800 -7.918900 -33.388500
C -5.298700 -8.434100 -34.724800
N -5.288000 -8.851100 -35.782000
H -5.258800 -7.292300 -30.826900
C -5.222700 -8.751900 -32.292000
C -5.217100 -8.213100 -30.952200
C -5.153100 -9.024400 -29.887800
H -5.141400 -8.656900 -29.032700
C -5.135900 -10.171200 -32.440500
H -5.103900 -10.536000 -33.295500
C -5.103800 -10.445100 -30.043400
N -5.100000 -10.396500 -26.539100
C -5.099400 -10.988400 -31.381500
C -5.088600 -10.793600 -27.612400
C -5.084000 -11.293200 -28.954000
H -5.070600 -11.909000 -31.508500
C -5.047700 -12.707600 -29.095400
N -5.007800 -13.840800 -29.220600
