12
Fragment
O -24.423600 -29.333600 -8.574700
H -23.904100 -30.430500 -10.158700
C -23.895300 -29.483400 -9.653500
H -23.391100 -27.298300 -8.889600
H -23.349700 -26.521400 -10.311000
N -23.127900 -28.589200 -10.264100
H -22.886100 -28.313700 -11.965700
C -22.880200 -27.328000 -9.633300
H -22.712400 -30.089400 -11.924000
C -22.579700 -28.873500 -11.563600
H -21.891300 -27.056300 -9.677900
H -21.722400 -28.742300 -11.591200
38
Fragment
H -19.924100 -24.579700 -9.074900
H -19.809100 -25.636500 -9.708500
O -19.787600 -26.739700 -7.356800
C -19.420800 -25.174800 -9.120000
C -19.149500 -25.849200 -7.842700
O -18.812100 -32.880800 -5.116800
H -18.749600 -24.782400 -9.526200
H -18.529200 -26.077400 -5.319400
H -18.509300 -28.256700 -5.791500
O -18.287000 -27.569600 -3.430400
N -18.092500 -31.915700 -5.360900
H -18.091500 -32.434200 -2.919200
O -18.059900 -25.317800 -7.212500
O -18.038200 -31.322800 -6.424500
C -17.768600 -25.840100 -5.912500
N -17.638600 -28.601000 -3.417700
C -17.611900 -28.389700 -5.800700
O -17.340600 -29.252500 -2.411200
H -17.335700 -29.046500 -6.566500
H -17.285500 -25.094200 -5.466400
N -17.272300 -31.481300 -4.353300
C -17.267300 -32.221600 -3.122000
N -17.175200 -29.060700 -4.604900
N -17.027500 -27.069400 -5.970900
H -16.882700 -31.565000 -2.464100
O -16.600600 -33.486000 -3.260500
C -16.452000 -30.312200 -4.613900
H -16.070300 -30.323700 -5.564700
H -15.832200 -30.299100 -3.862400
N -15.682300 -27.010200 -6.221700
C -15.237200 -33.427600 -3.214000
O -15.196300 -25.899400 -6.382100
O -15.077500 -28.070300 -6.236500
H -15.059900 -35.305200 -4.124200
H -14.869600 -35.368900 -2.747600
C -14.657200 -34.771800 -3.341800
O -14.654300 -32.401700 -3.097700
H -13.829400 -34.888200 -3.508800
50
Fragment
O -24.423600 -29.333600 -8.574700
H -23.904100 -30.430500 -10.158700
C -23.895300 -29.483400 -9.653500
H -23.391100 -27.298300 -8.889600
H -23.349700 -26.521400 -10.311000
N -23.127900 -28.589200 -10.264100
H -22.886100 -28.313700 -11.965700
C -22.880200 -27.328000 -9.633300
H -22.712400 -30.089400 -11.924000
C -22.579700 -28.873500 -11.563600
H -21.891300 -27.056300 -9.677900
H -21.722400 -28.742300 -11.591200
H -19.924100 -24.579700 -9.074900
H -19.809100 -25.636500 -9.708500
O -19.787600 -26.739700 -7.356800
C -19.420800 -25.174800 -9.120000
C -19.149500 -25.849200 -7.842700
O -18.812100 -32.880800 -5.116800
H -18.749600 -24.782400 -9.526200
H -18.529200 -26.077400 -5.319400
H -18.509300 -28.256700 -5.791500
O -18.287000 -27.569600 -3.430400
N -18.092500 -31.915700 -5.360900
H -18.091500 -32.434200 -2.919200
O -18.059900 -25.317800 -7.212500
O -18.038200 -31.322800 -6.424500
C -17.768600 -25.840100 -5.912500
N -17.638600 -28.601000 -3.417700
C -17.611900 -28.389700 -5.800700
O -17.340600 -29.252500 -2.411200
H -17.335700 -29.046500 -6.566500
H -17.285500 -25.094200 -5.466400
N -17.272300 -31.481300 -4.353300
C -17.267300 -32.221600 -3.122000
N -17.175200 -29.060700 -4.604900
N -17.027500 -27.069400 -5.970900
H -16.882700 -31.565000 -2.464100
O -16.600600 -33.486000 -3.260500
C -16.452000 -30.312200 -4.613900
H -16.070300 -30.323700 -5.564700
H -15.832200 -30.299100 -3.862400
N -15.682300 -27.010200 -6.221700
C -15.237200 -33.427600 -3.214000
O -15.196300 -25.899400 -6.382100
O -15.077500 -28.070300 -6.236500
H -15.059900 -35.305200 -4.124200
H -14.869600 -35.368900 -2.747600
C -14.657200 -34.771800 -3.341800
O -14.654300 -32.401700 -3.097700
H -13.829400 -34.888200 -3.508800
