12
Fragment
O -24.423600 -29.333600 -8.574700
H -23.904100 -30.430500 -10.158700
C -23.895300 -29.483400 -9.653500
H -23.391100 -27.298300 -8.889600
H -23.349700 -26.521400 -10.311000
N -23.127900 -28.589200 -10.264100
H -22.886100 -28.313700 -11.965700
C -22.880200 -27.328000 -9.633300
H -22.712400 -30.089400 -11.924000
C -22.579700 -28.873500 -11.563600
H -21.891300 -27.056300 -9.677900
H -21.722400 -28.742300 -11.591200
12
Fragment
O -23.617800 -29.333600 -14.935800
H -23.098300 -30.430500 -16.519900
C -23.089500 -29.483400 -16.014700
H -22.585200 -27.298300 -15.250800
H -22.543900 -26.521400 -16.672200
N -22.322000 -28.589200 -16.625300
H -22.080200 -28.313700 -18.326800
C -22.074300 -27.328000 -15.994500
H -21.906500 -30.089400 -18.285200
C -21.773900 -28.873500 -17.924800
H -21.085400 -27.056300 -16.039100
H -20.916600 -28.742300 -17.952400
24
Fragment
O -24.423600 -29.333600 -8.574700
H -23.904100 -30.430500 -10.158700
C -23.895300 -29.483400 -9.653500
H -23.391100 -27.298300 -8.889600
H -23.349700 -26.521400 -10.311000
N -23.127900 -28.589200 -10.264100
H -22.886100 -28.313700 -11.965700
C -22.880200 -27.328000 -9.633300
H -22.712400 -30.089400 -11.924000
C -22.579700 -28.873500 -11.563600
H -21.891300 -27.056300 -9.677900
H -21.722400 -28.742300 -11.591200
O -23.617800 -29.333600 -14.935800
H -23.098300 -30.430500 -16.519900
C -23.089500 -29.483400 -16.014700
H -22.585200 -27.298300 -15.250800
H -22.543900 -26.521400 -16.672200
N -22.322000 -28.589200 -16.625300
H -22.080200 -28.313700 -18.326800
C -22.074300 -27.328000 -15.994500
H -21.906500 -30.089400 -18.285200
C -21.773900 -28.873500 -17.924800
H -21.085400 -27.056300 -16.039100
H -20.916600 -28.742300 -17.952400
