12
Fragment
O -24.423600 -29.333600 -8.574700
H -23.904100 -30.430500 -10.158700
C -23.895300 -29.483400 -9.653500
H -23.391100 -27.298300 -8.889600
H -23.349700 -26.521400 -10.311000
N -23.127900 -28.589200 -10.264100
H -22.886100 -28.313700 -11.965700
C -22.880200 -27.328000 -9.633300
H -22.712400 -30.089400 -11.924000
C -22.579700 -28.873500 -11.563600
H -21.891300 -27.056300 -9.677900
H -21.722400 -28.742300 -11.591200
38
Fragment
H -22.553500 -24.993700 -12.394100
O -21.728500 -22.507200 -12.805200
C -21.725700 -24.877300 -12.561100
H -21.513200 -25.474400 -13.155300
H -21.323000 -25.410700 -11.778700
O -21.305400 -18.175800 -9.666400
O -21.186500 -16.004900 -9.520800
C -21.145600 -23.533100 -12.688900
N -20.700500 -17.115700 -9.681200
H -20.550600 -20.404600 -12.040500
H -20.312600 -20.429200 -10.338200
C -19.930900 -20.417700 -11.289000
O -19.782300 -23.591500 -12.642400
H -19.500200 -21.670500 -13.438800
N -19.355400 -17.174900 -9.932000
N -19.207700 -19.166200 -11.298000
C -19.115500 -22.327100 -12.780900
N -19.110500 -21.586800 -11.549600
H -19.097300 -15.199700 -10.436500
H -19.047200 -19.152000 -9.336400
O -19.042200 -19.358000 -13.491700
C -18.770900 -18.495200 -10.102200
N -18.744300 -18.706500 -12.485200
C -18.614300 -15.945600 -9.990400
O -18.344600 -21.428300 -9.478400
O -18.323000 -15.423300 -8.690400
H -18.291300 -22.539700 -12.983700
N -18.290400 -22.021200 -10.542000
O -18.095900 -17.675100 -12.472500
H -17.873600 -18.362200 -10.111400
H -17.853700 -16.182900 -10.583500
H -17.633300 -14.887900 -6.376700
O -17.570800 -22.986300 -10.786100
C -17.233400 -15.954700 -8.060200
C -16.962100 -15.280300 -6.782900
O -16.595200 -16.845200 -8.546100
H -16.573700 -15.742000 -6.194400
H -16.458700 -14.685200 -6.828000
50
Fragment
O -24.423600 -29.333600 -8.574700
H -23.904100 -30.430500 -10.158700
C -23.895300 -29.483400 -9.653500
H -23.391100 -27.298300 -8.889600
H -23.349700 -26.521400 -10.311000
N -23.127900 -28.589200 -10.264100
H -22.886100 -28.313700 -11.965700
C -22.880200 -27.328000 -9.633300
H -22.712400 -30.089400 -11.924000
C -22.579700 -28.873500 -11.563600
H -21.891300 -27.056300 -9.677900
H -21.722400 -28.742300 -11.591200
H -22.553500 -24.993700 -12.394100
O -21.728500 -22.507200 -12.805200
C -21.725700 -24.877300 -12.561100
H -21.513200 -25.474400 -13.155300
H -21.323000 -25.410700 -11.778700
O -21.305400 -18.175800 -9.666400
O -21.186500 -16.004900 -9.520800
C -21.145600 -23.533100 -12.688900
N -20.700500 -17.115700 -9.681200
H -20.550600 -20.404600 -12.040500
H -20.312600 -20.429200 -10.338200
C -19.930900 -20.417700 -11.289000
O -19.782300 -23.591500 -12.642400
H -19.500200 -21.670500 -13.438800
N -19.355400 -17.174900 -9.932000
N -19.207700 -19.166200 -11.298000
C -19.115500 -22.327100 -12.780900
N -19.110500 -21.586800 -11.549600
H -19.097300 -15.199700 -10.436500
H -19.047200 -19.152000 -9.336400
O -19.042200 -19.358000 -13.491700
C -18.770900 -18.495200 -10.102200
N -18.744300 -18.706500 -12.485200
C -18.614300 -15.945600 -9.990400
O -18.344600 -21.428300 -9.478400
O -18.323000 -15.423300 -8.690400
H -18.291300 -22.539700 -12.983700
N -18.290400 -22.021200 -10.542000
O -18.095900 -17.675100 -12.472500
H -17.873600 -18.362200 -10.111400
H -17.853700 -16.182900 -10.583500
H -17.633300 -14.887900 -6.376700
O -17.570800 -22.986300 -10.786100
C -17.233400 -15.954700 -8.060200
C -16.962100 -15.280300 -6.782900
O -16.595200 -16.845200 -8.546100
H -16.573700 -15.742000 -6.194400
H -16.458700 -14.685200 -6.828000
