12
Fragment
O -24.423600 -29.333600 -8.574700
H -23.904100 -30.430500 -10.158700
C -23.895300 -29.483400 -9.653500
H -23.391100 -27.298300 -8.889600
H -23.349700 -26.521400 -10.311000
N -23.127900 -28.589200 -10.264100
H -22.886100 -28.313700 -11.965700
C -22.880200 -27.328000 -9.633300
H -22.712400 -30.089400 -11.924000
C -22.579700 -28.873500 -11.563600
H -21.891300 -27.056300 -9.677900
H -21.722400 -28.742300 -11.591200
38
Fragment
H -27.200700 -24.892800 -12.255500
H -27.085700 -23.836000 -12.889100
O -27.064200 -22.732800 -10.537400
C -26.697400 -24.297700 -12.300600
C -26.426000 -23.623300 -11.023300
O -26.088700 -16.591700 -8.297400
H -26.026200 -24.690100 -12.706700
H -25.805700 -23.395100 -8.500000
H -25.785900 -21.215800 -8.972100
O -25.563500 -21.902900 -6.611000
N -25.369100 -17.556800 -8.541400
H -25.368100 -17.038300 -6.099800
O -25.336400 -24.154700 -10.393100
O -25.314800 -18.149700 -9.605000
C -25.045100 -23.632400 -9.093100
N -24.915200 -20.871500 -6.598300
C -24.888500 -21.082800 -8.981300
O -24.617200 -20.220000 -5.591800
H -24.612200 -20.426000 -9.747100
H -24.562100 -24.378300 -8.647000
N -24.548900 -17.991200 -7.533900
C -24.543900 -17.250900 -6.302600
N -24.451700 -20.411800 -7.785500
N -24.304000 -22.403100 -9.151500
H -24.159300 -17.907500 -5.644600
O -23.877100 -15.986500 -6.441100
C -23.728600 -19.160300 -7.794500
H -23.346900 -19.148800 -8.745300
H -23.108800 -19.173400 -7.043000
N -22.958900 -22.462300 -9.402300
C -22.513800 -16.044900 -6.394600
O -22.472900 -23.573100 -9.562700
O -22.354000 -21.402200 -9.417100
H -22.336400 -14.167300 -7.304800
H -22.146200 -14.103600 -5.928200
C -21.933800 -14.700700 -6.522400
O -21.930900 -17.070800 -6.278300
H -21.106000 -14.584300 -6.689300
50
Fragment
O -24.423600 -29.333600 -8.574700
H -23.904100 -30.430500 -10.158700
C -23.895300 -29.483400 -9.653500
H -23.391100 -27.298300 -8.889600
H -23.349700 -26.521400 -10.311000
N -23.127900 -28.589200 -10.264100
H -22.886100 -28.313700 -11.965700
C -22.880200 -27.328000 -9.633300
H -22.712400 -30.089400 -11.924000
C -22.579700 -28.873500 -11.563600
H -21.891300 -27.056300 -9.677900
H -21.722400 -28.742300 -11.591200
H -27.200700 -24.892800 -12.255500
H -27.085700 -23.836000 -12.889100
O -27.064200 -22.732800 -10.537400
C -26.697400 -24.297700 -12.300600
C -26.426000 -23.623300 -11.023300
O -26.088700 -16.591700 -8.297400
H -26.026200 -24.690100 -12.706700
H -25.805700 -23.395100 -8.500000
H -25.785900 -21.215800 -8.972100
O -25.563500 -21.902900 -6.611000
N -25.369100 -17.556800 -8.541400
H -25.368100 -17.038300 -6.099800
O -25.336400 -24.154700 -10.393100
O -25.314800 -18.149700 -9.605000
C -25.045100 -23.632400 -9.093100
N -24.915200 -20.871500 -6.598300
C -24.888500 -21.082800 -8.981300
O -24.617200 -20.220000 -5.591800
H -24.612200 -20.426000 -9.747100
H -24.562100 -24.378300 -8.647000
N -24.548900 -17.991200 -7.533900
C -24.543900 -17.250900 -6.302600
N -24.451700 -20.411800 -7.785500
N -24.304000 -22.403100 -9.151500
H -24.159300 -17.907500 -5.644600
O -23.877100 -15.986500 -6.441100
C -23.728600 -19.160300 -7.794500
H -23.346900 -19.148800 -8.745300
H -23.108800 -19.173400 -7.043000
N -22.958900 -22.462300 -9.402300
C -22.513800 -16.044900 -6.394600
O -22.472900 -23.573100 -9.562700
O -22.354000 -21.402200 -9.417100
H -22.336400 -14.167300 -7.304800
H -22.146200 -14.103600 -5.928200
C -21.933800 -14.700700 -6.522400
O -21.930900 -17.070800 -6.278300
H -21.106000 -14.584300 -6.689300
