12
Fragment
O -24.423600 -29.333600 -8.574700
H -23.904100 -30.430500 -10.158700
C -23.895300 -29.483400 -9.653500
H -23.391100 -27.298300 -8.889600
H -23.349700 -26.521400 -10.311000
N -23.127900 -28.589200 -10.264100
H -22.886100 -28.313700 -11.965700
C -22.880200 -27.328000 -9.633300
H -22.712400 -30.089400 -11.924000
C -22.579700 -28.873500 -11.563600
H -21.891300 -27.056300 -9.677900
H -21.722400 -28.742300 -11.591200
12
Fragment
H -21.131100 -30.624700 -13.853400
H -20.962300 -32.310700 -15.766700
C -20.273800 -30.493500 -13.881000
H -20.141200 -29.277600 -13.520600
C -19.973400 -32.039000 -15.811300
H -19.967500 -31.053300 -13.479000
N -19.725700 -30.777800 -15.180500
H -19.503900 -32.845600 -15.133600
H -19.462500 -32.068700 -16.555000
C -18.958300 -29.883600 -15.791100
H -18.949500 -28.936500 -15.285900
O -18.429900 -30.033400 -16.870000
24
Fragment
O -24.423600 -29.333600 -8.574700
H -23.904100 -30.430500 -10.158700
C -23.895300 -29.483400 -9.653500
H -23.391100 -27.298300 -8.889600
H -23.349700 -26.521400 -10.311000
N -23.127900 -28.589200 -10.264100
H -22.886100 -28.313700 -11.965700
C -22.880200 -27.328000 -9.633300
H -22.712400 -30.089400 -11.924000
C -22.579700 -28.873500 -11.563600
H -21.891300 -27.056300 -9.677900
H -21.722400 -28.742300 -11.591200
H -21.131100 -30.624700 -13.853400
H -20.962300 -32.310700 -15.766700
C -20.273800 -30.493500 -13.881000
H -20.141200 -29.277600 -13.520600
C -19.973400 -32.039000 -15.811300
H -19.967500 -31.053300 -13.479000
N -19.725700 -30.777800 -15.180500
H -19.503900 -32.845600 -15.133600
H -19.462500 -32.068700 -16.555000
C -18.958300 -29.883600 -15.791100
H -18.949500 -28.936500 -15.285900
O -18.429900 -30.033400 -16.870000
