12
Fragment
O -24.423600 -29.333600 -8.574700
H -23.904100 -30.430500 -10.158700
C -23.895300 -29.483400 -9.653500
H -23.391100 -27.298300 -8.889600
H -23.349700 -26.521400 -10.311000
N -23.127900 -28.589200 -10.264100
H -22.886100 -28.313700 -11.965700
C -22.880200 -27.328000 -9.633300
H -22.712400 -30.089400 -11.924000
C -22.579700 -28.873500 -11.563600
H -21.891300 -27.056300 -9.677900
H -21.722400 -28.742300 -11.591200
38
Fragment
H -29.830000 -24.478800 -15.574700
O -29.005100 -26.965300 -15.985800
C -29.002200 -24.595200 -15.741600
H -28.789800 -23.998100 -16.335800
H -28.599600 -24.061800 -14.959300
O -28.582000 -31.296700 -12.846900
O -28.463100 -33.467600 -12.701400
C -28.422200 -25.939400 -15.869500
N -27.977100 -32.356800 -12.861800
H -27.827200 -29.067900 -15.221000
H -27.589100 -29.043300 -13.518700
C -27.207400 -29.054800 -14.469600
O -27.058900 -25.881000 -15.823000
H -26.776700 -27.802000 -16.619400
N -26.632000 -32.297600 -13.112600
N -26.484300 -30.306300 -14.478600
C -26.392100 -27.145400 -15.961500
N -26.387100 -27.885700 -14.730200
H -26.373900 -34.272800 -13.617100
H -26.323800 -30.320500 -12.517000
O -26.318800 -30.114500 -16.672300
C -26.047500 -30.977300 -13.282700
N -26.020800 -30.766000 -15.665800
C -25.890900 -33.526900 -13.171000
O -25.621200 -28.044200 -12.659000
O -25.599600 -34.049200 -11.870900
H -25.567900 -26.932800 -16.164300
N -25.566900 -27.451300 -13.722600
O -25.372500 -31.797400 -15.653000
H -25.150100 -31.110300 -13.292000
H -25.130300 -33.289600 -13.764100
H -24.909800 -34.584600 -9.557300
O -24.847300 -26.486200 -13.966700
C -24.510000 -33.517800 -11.240700
C -24.238600 -34.192200 -9.963500
O -23.871800 -32.627300 -11.726700
H -23.850300 -33.730500 -9.374900
H -23.735300 -34.787300 -10.008600
50
Fragment
O -24.423600 -29.333600 -8.574700
H -23.904100 -30.430500 -10.158700
C -23.895300 -29.483400 -9.653500
H -23.391100 -27.298300 -8.889600
H -23.349700 -26.521400 -10.311000
N -23.127900 -28.589200 -10.264100
H -22.886100 -28.313700 -11.965700
C -22.880200 -27.328000 -9.633300
H -22.712400 -30.089400 -11.924000
C -22.579700 -28.873500 -11.563600
H -21.891300 -27.056300 -9.677900
H -21.722400 -28.742300 -11.591200
H -29.830000 -24.478800 -15.574700
O -29.005100 -26.965300 -15.985800
C -29.002200 -24.595200 -15.741600
H -28.789800 -23.998100 -16.335800
H -28.599600 -24.061800 -14.959300
O -28.582000 -31.296700 -12.846900
O -28.463100 -33.467600 -12.701400
C -28.422200 -25.939400 -15.869500
N -27.977100 -32.356800 -12.861800
H -27.827200 -29.067900 -15.221000
H -27.589100 -29.043300 -13.518700
C -27.207400 -29.054800 -14.469600
O -27.058900 -25.881000 -15.823000
H -26.776700 -27.802000 -16.619400
N -26.632000 -32.297600 -13.112600
N -26.484300 -30.306300 -14.478600
C -26.392100 -27.145400 -15.961500
N -26.387100 -27.885700 -14.730200
H -26.373900 -34.272800 -13.617100
H -26.323800 -30.320500 -12.517000
O -26.318800 -30.114500 -16.672300
C -26.047500 -30.977300 -13.282700
N -26.020800 -30.766000 -15.665800
C -25.890900 -33.526900 -13.171000
O -25.621200 -28.044200 -12.659000
O -25.599600 -34.049200 -11.870900
H -25.567900 -26.932800 -16.164300
N -25.566900 -27.451300 -13.722600
O -25.372500 -31.797400 -15.653000
H -25.150100 -31.110300 -13.292000
H -25.130300 -33.289600 -13.764100
H -24.909800 -34.584600 -9.557300
O -24.847300 -26.486200 -13.966700
C -24.510000 -33.517800 -11.240700
C -24.238600 -34.192200 -9.963500
O -23.871800 -32.627300 -11.726700
H -23.850300 -33.730500 -9.374900
H -23.735300 -34.787300 -10.008600
