25
Fragment
H -15.999300 -20.018600 -10.443400
H -15.852700 -20.681000 -8.291600
O -15.749400 -18.636100 -12.457000
N -15.399700 -19.287000 -10.301100
O -15.256100 -14.134200 -6.948700
N -15.210300 -20.048900 -8.135300
C -15.177500 -18.425000 -11.376900
H -15.157100 -14.781900 -6.167900
H -14.862200 -20.018600 -7.254300
C -14.843600 -19.149900 -9.045800
C -14.294900 -17.379100 -11.032100
C -14.258200 -14.282100 -7.800300
O -14.222000 -13.616600 -8.811700
N -13.986400 -18.191600 -8.725500
N -13.848700 -16.277800 -11.749800
C -13.767600 -17.342300 -9.757900
H -13.736200 -16.110700 -7.100100
C -13.228100 -15.302200 -7.425300
C -13.073700 -15.623800 -10.922800
N -12.980000 -16.226500 -9.699000
H -12.715900 -14.920700 -6.672500
H -12.548000 -14.790000 -11.088200
C -12.276400 -15.675300 -8.534800
H -11.771300 -14.864700 -8.852300
H -11.623300 -16.352900 -8.242500
25
Fragment
H -14.856700 -20.749500 -17.452300
H -14.710100 -21.411800 -15.300600
O -14.606700 -19.367000 -19.466000
N -14.257000 -20.017900 -17.310000
O -14.113500 -14.865100 -13.957600
N -14.067700 -20.779800 -15.144300
C -14.034900 -19.155900 -18.385900
H -14.014500 -15.512700 -13.176800
H -13.719600 -20.749500 -14.263200
C -13.701000 -19.880800 -16.054700
C -13.152300 -18.110000 -18.041100
C -13.115600 -15.013000 -14.809200
O -13.079400 -14.347500 -15.820600
N -12.843800 -18.922500 -15.734400
N -12.706100 -17.008700 -18.758800
C -12.625000 -18.073200 -16.766800
H -12.593600 -16.841500 -14.109000
C -12.085500 -16.033100 -14.434300
C -11.931100 -16.354700 -17.931700
N -11.837400 -16.957400 -16.708000
H -11.573300 -15.651600 -13.681500
H -11.405400 -15.520900 -18.097100
C -11.133800 -16.406200 -15.543800
H -10.628700 -15.595600 -15.861300
H -10.480600 -17.083800 -15.251500
50
Fragment
H -15.999300 -20.018600 -10.443400
H -15.852700 -20.681000 -8.291600
O -15.749400 -18.636100 -12.457000
N -15.399700 -19.287000 -10.301100
O -15.256100 -14.134200 -6.948700
N -15.210300 -20.048900 -8.135300
C -15.177500 -18.425000 -11.376900
H -15.157100 -14.781900 -6.167900
H -14.862200 -20.018600 -7.254300
C -14.843600 -19.149900 -9.045800
C -14.294900 -17.379100 -11.032100
C -14.258200 -14.282100 -7.800300
O -14.222000 -13.616600 -8.811700
N -13.986400 -18.191600 -8.725500
N -13.848700 -16.277800 -11.749800
C -13.767600 -17.342300 -9.757900
H -13.736200 -16.110700 -7.100100
C -13.228100 -15.302200 -7.425300
C -13.073700 -15.623800 -10.922800
N -12.980000 -16.226500 -9.699000
H -12.715900 -14.920700 -6.672500
H -12.548000 -14.790000 -11.088200
C -12.276400 -15.675300 -8.534800
H -11.771300 -14.864700 -8.852300
H -11.623300 -16.352900 -8.242500
H -14.856700 -20.749500 -17.452300
H -14.710100 -21.411800 -15.300600
O -14.606700 -19.367000 -19.466000
N -14.257000 -20.017900 -17.310000
O -14.113500 -14.865100 -13.957600
N -14.067700 -20.779800 -15.144300
C -14.034900 -19.155900 -18.385900
H -14.014500 -15.512700 -13.176800
H -13.719600 -20.749500 -14.263200
C -13.701000 -19.880800 -16.054700
C -13.152300 -18.110000 -18.041100
C -13.115600 -15.013000 -14.809200
O -13.079400 -14.347500 -15.820600
N -12.843800 -18.922500 -15.734400
N -12.706100 -17.008700 -18.758800
C -12.625000 -18.073200 -16.766800
H -12.593600 -16.841500 -14.109000
C -12.085500 -16.033100 -14.434300
C -11.931100 -16.354700 -17.931700
N -11.837400 -16.957400 -16.708000
H -11.573300 -15.651600 -13.681500
H -11.405400 -15.520900 -18.097100
C -11.133800 -16.406200 -15.543800
H -10.628700 -15.595600 -15.861300
H -10.480600 -17.083800 -15.251500
