25
Fragment
H -15.999300 -20.018600 -10.443400
H -15.852700 -20.681000 -8.291600
O -15.749400 -18.636100 -12.457000
N -15.399700 -19.287000 -10.301100
O -15.256100 -14.134200 -6.948700
N -15.210300 -20.048900 -8.135300
C -15.177500 -18.425000 -11.376900
H -15.157100 -14.781900 -6.167900
H -14.862200 -20.018600 -7.254300
C -14.843600 -19.149900 -9.045800
C -14.294900 -17.379100 -11.032100
C -14.258200 -14.282100 -7.800300
O -14.222000 -13.616600 -8.811700
N -13.986400 -18.191600 -8.725500
N -13.848700 -16.277800 -11.749800
C -13.767600 -17.342300 -9.757900
H -13.736200 -16.110700 -7.100100
C -13.228100 -15.302200 -7.425300
C -13.073700 -15.623800 -10.922800
N -12.980000 -16.226500 -9.699000
H -12.715900 -14.920700 -6.672500
H -12.548000 -14.790000 -11.088200
C -12.276400 -15.675300 -8.534800
H -11.771300 -14.864700 -8.852300
H -11.623300 -16.352900 -8.242500
25
Fragment
H -16.354100 -22.056600 -5.775400
H -16.206000 -23.544800 -5.165600
C -15.700900 -22.734300 -5.483100
H -15.429300 -23.619500 -2.929700
H -15.261400 -23.488800 -7.345400
N -14.997300 -22.183000 -4.318900
C -14.903600 -22.785800 -3.095200
C -14.749200 -23.107400 -6.592600
H -14.241100 -22.298900 -6.917800
C -14.209700 -21.067200 -4.260000
N -14.128600 -22.131700 -2.268100
N -13.990900 -20.217900 -5.292500
O -13.755300 -24.792900 -5.206300
C -13.719100 -24.127400 -6.217600
C -13.682400 -21.030400 -2.985800
C -13.133700 -19.259600 -4.972200
H -13.115100 -18.391000 -6.763600
H -12.820200 -23.627700 -7.850000
C -12.799800 -19.984600 -2.641000
N -12.767000 -18.360700 -5.882600
O -12.721200 -24.275400 -7.069200
N -12.577700 -19.122600 -3.716900
O -12.228000 -19.773400 -1.560900
H -12.124600 -17.728600 -5.726300
H -11.978000 -18.390900 -3.574600
50
Fragment
H -15.999300 -20.018600 -10.443400
H -15.852700 -20.681000 -8.291600
O -15.749400 -18.636100 -12.457000
N -15.399700 -19.287000 -10.301100
O -15.256100 -14.134200 -6.948700
N -15.210300 -20.048900 -8.135300
C -15.177500 -18.425000 -11.376900
H -15.157100 -14.781900 -6.167900
H -14.862200 -20.018600 -7.254300
C -14.843600 -19.149900 -9.045800
C -14.294900 -17.379100 -11.032100
C -14.258200 -14.282100 -7.800300
O -14.222000 -13.616600 -8.811700
N -13.986400 -18.191600 -8.725500
N -13.848700 -16.277800 -11.749800
C -13.767600 -17.342300 -9.757900
H -13.736200 -16.110700 -7.100100
C -13.228100 -15.302200 -7.425300
C -13.073700 -15.623800 -10.922800
N -12.980000 -16.226500 -9.699000
H -12.715900 -14.920700 -6.672500
H -12.548000 -14.790000 -11.088200
C -12.276400 -15.675300 -8.534800
H -11.771300 -14.864700 -8.852300
H -11.623300 -16.352900 -8.242500
H -16.354100 -22.056600 -5.775400
H -16.206000 -23.544800 -5.165600
C -15.700900 -22.734300 -5.483100
H -15.429300 -23.619500 -2.929700
H -15.261400 -23.488800 -7.345400
N -14.997300 -22.183000 -4.318900
C -14.903600 -22.785800 -3.095200
C -14.749200 -23.107400 -6.592600
H -14.241100 -22.298900 -6.917800
C -14.209700 -21.067200 -4.260000
N -14.128600 -22.131700 -2.268100
N -13.990900 -20.217900 -5.292500
O -13.755300 -24.792900 -5.206300
C -13.719100 -24.127400 -6.217600
C -13.682400 -21.030400 -2.985800
C -13.133700 -19.259600 -4.972200
H -13.115100 -18.391000 -6.763600
H -12.820200 -23.627700 -7.850000
C -12.799800 -19.984600 -2.641000
N -12.767000 -18.360700 -5.882600
O -12.721200 -24.275400 -7.069200
N -12.577700 -19.122600 -3.716900
O -12.228000 -19.773400 -1.560900
H -12.124600 -17.728600 -5.726300
H -11.978000 -18.390900 -3.574600
