25
Fragment
H -15.999300 -20.018600 -10.443400
H -15.852700 -20.681000 -8.291600
O -15.749400 -18.636100 -12.457000
N -15.399700 -19.287000 -10.301100
O -15.256100 -14.134200 -6.948700
N -15.210300 -20.048900 -8.135300
C -15.177500 -18.425000 -11.376900
H -15.157100 -14.781900 -6.167900
H -14.862200 -20.018600 -7.254300
C -14.843600 -19.149900 -9.045800
C -14.294900 -17.379100 -11.032100
C -14.258200 -14.282100 -7.800300
O -14.222000 -13.616600 -8.811700
N -13.986400 -18.191600 -8.725500
N -13.848700 -16.277800 -11.749800
C -13.767600 -17.342300 -9.757900
H -13.736200 -16.110700 -7.100100
C -13.228100 -15.302200 -7.425300
C -13.073700 -15.623800 -10.922800
N -12.980000 -16.226500 -9.699000
H -12.715900 -14.920700 -6.672500
H -12.548000 -14.790000 -11.088200
C -12.276400 -15.675300 -8.534800
H -11.771300 -14.864700 -8.852300
H -11.623300 -16.352900 -8.242500
16
Fragment
H -17.834100 -19.623100 -15.272500
O -17.585700 -17.736700 -19.515700
N -17.427500 -18.296300 -17.323300
N -17.222600 -18.797900 -15.106400
C -17.121800 -17.523600 -18.393600
C -16.889400 -18.015900 -16.134600
H -16.878800 -18.603700 -14.354400
H -16.710900 -15.139200 -19.751300
N -16.261200 -16.444100 -18.234500
C -15.999300 -16.929600 -15.945400
C -15.932700 -15.636400 -19.417600
C -15.709500 -16.178900 -17.013600
H -15.599500 -16.783000 -15.083300
H -15.586200 -16.238500 -20.136700
H -15.284400 -14.909000 -19.197500
H -15.066800 -15.360500 -17.031800
41
Fragment
H -15.999300 -20.018600 -10.443400
H -15.852700 -20.681000 -8.291600
O -15.749400 -18.636100 -12.457000
N -15.399700 -19.287000 -10.301100
O -15.256100 -14.134200 -6.948700
N -15.210300 -20.048900 -8.135300
C -15.177500 -18.425000 -11.376900
H -15.157100 -14.781900 -6.167900
H -14.862200 -20.018600 -7.254300
C -14.843600 -19.149900 -9.045800
C -14.294900 -17.379100 -11.032100
C -14.258200 -14.282100 -7.800300
O -14.222000 -13.616600 -8.811700
N -13.986400 -18.191600 -8.725500
N -13.848700 -16.277800 -11.749800
C -13.767600 -17.342300 -9.757900
H -13.736200 -16.110700 -7.100100
C -13.228100 -15.302200 -7.425300
C -13.073700 -15.623800 -10.922800
N -12.980000 -16.226500 -9.699000
H -12.715900 -14.920700 -6.672500
H -12.548000 -14.790000 -11.088200
C -12.276400 -15.675300 -8.534800
H -11.771300 -14.864700 -8.852300
H -11.623300 -16.352900 -8.242500
H -17.834100 -19.623100 -15.272500
O -17.585700 -17.736700 -19.515700
N -17.427500 -18.296300 -17.323300
N -17.222600 -18.797900 -15.106400
C -17.121800 -17.523600 -18.393600
C -16.889400 -18.015900 -16.134600
H -16.878800 -18.603700 -14.354400
H -16.710900 -15.139200 -19.751300
N -16.261200 -16.444100 -18.234500
C -15.999300 -16.929600 -15.945400
C -15.932700 -15.636400 -19.417600
C -15.709500 -16.178900 -17.013600
H -15.599500 -16.783000 -15.083300
H -15.586200 -16.238500 -20.136700
H -15.284400 -14.909000 -19.197500
H -15.066800 -15.360500 -17.031800
