25
Fragment
H -15.999300 -20.018600 -10.443400
H -15.852700 -20.681000 -8.291600
O -15.749400 -18.636100 -12.457000
N -15.399700 -19.287000 -10.301100
O -15.256100 -14.134200 -6.948700
N -15.210300 -20.048900 -8.135300
C -15.177500 -18.425000 -11.376900
H -15.157100 -14.781900 -6.167900
H -14.862200 -20.018600 -7.254300
C -14.843600 -19.149900 -9.045800
C -14.294900 -17.379100 -11.032100
C -14.258200 -14.282100 -7.800300
O -14.222000 -13.616600 -8.811700
N -13.986400 -18.191600 -8.725500
N -13.848700 -16.277800 -11.749800
C -13.767600 -17.342300 -9.757900
H -13.736200 -16.110700 -7.100100
C -13.228100 -15.302200 -7.425300
C -13.073700 -15.623800 -10.922800
N -12.980000 -16.226500 -9.699000
H -12.715900 -14.920700 -6.672500
H -12.548000 -14.790000 -11.088200
C -12.276400 -15.675300 -8.534800
H -11.771300 -14.864700 -8.852300
H -11.623300 -16.352900 -8.242500
25
Fragment
H -15.198500 -9.740700 -5.775400
H -15.050500 -11.228900 -5.165600
C -14.545400 -10.418400 -5.483100
H -14.273800 -11.303600 -2.929700
H -14.105900 -11.172900 -7.345400
N -13.841800 -9.867100 -4.318900
C -13.748100 -10.469800 -3.095200
C -13.593700 -10.791500 -6.592600
H -13.085600 -9.983000 -6.917800
C -13.054200 -8.751300 -4.260000
N -12.973100 -9.815800 -2.268100
N -12.835400 -7.902000 -5.292500
O -12.599800 -12.477000 -5.206300
C -12.563600 -11.811500 -6.217600
C -12.526900 -8.714500 -2.985800
C -11.978200 -6.943700 -4.972200
H -11.959600 -6.075100 -6.763600
H -11.664700 -11.311800 -7.850000
C -11.644300 -7.668600 -2.641000
N -11.611500 -6.044800 -5.882600
O -11.565700 -11.959400 -7.069200
N -11.422100 -6.806600 -3.716900
O -11.072400 -7.457500 -1.560900
H -10.969100 -5.412700 -5.726300
H -10.822500 -6.075000 -3.574600
50
Fragment
H -15.999300 -20.018600 -10.443400
H -15.852700 -20.681000 -8.291600
O -15.749400 -18.636100 -12.457000
N -15.399700 -19.287000 -10.301100
O -15.256100 -14.134200 -6.948700
N -15.210300 -20.048900 -8.135300
C -15.177500 -18.425000 -11.376900
H -15.157100 -14.781900 -6.167900
H -14.862200 -20.018600 -7.254300
C -14.843600 -19.149900 -9.045800
C -14.294900 -17.379100 -11.032100
C -14.258200 -14.282100 -7.800300
O -14.222000 -13.616600 -8.811700
N -13.986400 -18.191600 -8.725500
N -13.848700 -16.277800 -11.749800
C -13.767600 -17.342300 -9.757900
H -13.736200 -16.110700 -7.100100
C -13.228100 -15.302200 -7.425300
C -13.073700 -15.623800 -10.922800
N -12.980000 -16.226500 -9.699000
H -12.715900 -14.920700 -6.672500
H -12.548000 -14.790000 -11.088200
C -12.276400 -15.675300 -8.534800
H -11.771300 -14.864700 -8.852300
H -11.623300 -16.352900 -8.242500
H -15.198500 -9.740700 -5.775400
H -15.050500 -11.228900 -5.165600
C -14.545400 -10.418400 -5.483100
H -14.273800 -11.303600 -2.929700
H -14.105900 -11.172900 -7.345400
N -13.841800 -9.867100 -4.318900
C -13.748100 -10.469800 -3.095200
C -13.593700 -10.791500 -6.592600
H -13.085600 -9.983000 -6.917800
C -13.054200 -8.751300 -4.260000
N -12.973100 -9.815800 -2.268100
N -12.835400 -7.902000 -5.292500
O -12.599800 -12.477000 -5.206300
C -12.563600 -11.811500 -6.217600
C -12.526900 -8.714500 -2.985800
C -11.978200 -6.943700 -4.972200
H -11.959600 -6.075100 -6.763600
H -11.664700 -11.311800 -7.850000
C -11.644300 -7.668600 -2.641000
N -11.611500 -6.044800 -5.882600
O -11.565700 -11.959400 -7.069200
N -11.422100 -6.806600 -3.716900
O -11.072400 -7.457500 -1.560900
H -10.969100 -5.412700 -5.726300
H -10.822500 -6.075000 -3.574600
