25
Fragment
H -15.999300 -20.018600 -10.443400
H -15.852700 -20.681000 -8.291600
O -15.749400 -18.636100 -12.457000
N -15.399700 -19.287000 -10.301100
O -15.256100 -14.134200 -6.948700
N -15.210300 -20.048900 -8.135300
C -15.177500 -18.425000 -11.376900
H -15.157100 -14.781900 -6.167900
H -14.862200 -20.018600 -7.254300
C -14.843600 -19.149900 -9.045800
C -14.294900 -17.379100 -11.032100
C -14.258200 -14.282100 -7.800300
O -14.222000 -13.616600 -8.811700
N -13.986400 -18.191600 -8.725500
N -13.848700 -16.277800 -11.749800
C -13.767600 -17.342300 -9.757900
H -13.736200 -16.110700 -7.100100
C -13.228100 -15.302200 -7.425300
C -13.073700 -15.623800 -10.922800
N -12.980000 -16.226500 -9.699000
H -12.715900 -14.920700 -6.672500
H -12.548000 -14.790000 -11.088200
C -12.276400 -15.675300 -8.534800
H -11.771300 -14.864700 -8.852300
H -11.623300 -16.352900 -8.242500
25
Fragment
H -14.055900 -10.471600 -12.784300
H -13.907900 -11.959800 -12.174600
C -13.402700 -11.149200 -12.492100
H -13.131200 -12.034500 -9.938700
H -12.963300 -11.903800 -14.354400
N -12.699200 -10.598000 -11.327900
C -12.605500 -11.200700 -10.104100
C -12.451100 -11.522300 -13.601600
H -11.943000 -10.713900 -13.926800
C -11.911600 -9.482200 -11.269000
N -11.830500 -10.546700 -9.277100
N -11.692800 -8.632900 -12.301400
O -11.457200 -13.207900 -12.215200
C -11.420900 -12.542400 -13.226600
C -11.384300 -9.445400 -9.994800
C -10.835600 -7.674600 -11.981100
H -10.816900 -6.805900 -13.772600
H -10.522100 -12.042700 -14.859000
C -10.501700 -8.399500 -9.649900
N -10.468800 -6.775700 -12.891600
O -10.423000 -12.690300 -14.078200
N -10.279500 -7.537500 -10.725800
O -9.929800 -8.188400 -8.569900
H -9.826500 -6.143600 -12.735300
H -9.679900 -6.805900 -10.583500
50
Fragment
H -15.999300 -20.018600 -10.443400
H -15.852700 -20.681000 -8.291600
O -15.749400 -18.636100 -12.457000
N -15.399700 -19.287000 -10.301100
O -15.256100 -14.134200 -6.948700
N -15.210300 -20.048900 -8.135300
C -15.177500 -18.425000 -11.376900
H -15.157100 -14.781900 -6.167900
H -14.862200 -20.018600 -7.254300
C -14.843600 -19.149900 -9.045800
C -14.294900 -17.379100 -11.032100
C -14.258200 -14.282100 -7.800300
O -14.222000 -13.616600 -8.811700
N -13.986400 -18.191600 -8.725500
N -13.848700 -16.277800 -11.749800
C -13.767600 -17.342300 -9.757900
H -13.736200 -16.110700 -7.100100
C -13.228100 -15.302200 -7.425300
C -13.073700 -15.623800 -10.922800
N -12.980000 -16.226500 -9.699000
H -12.715900 -14.920700 -6.672500
H -12.548000 -14.790000 -11.088200
C -12.276400 -15.675300 -8.534800
H -11.771300 -14.864700 -8.852300
H -11.623300 -16.352900 -8.242500
H -14.055900 -10.471600 -12.784300
H -13.907900 -11.959800 -12.174600
C -13.402700 -11.149200 -12.492100
H -13.131200 -12.034500 -9.938700
H -12.963300 -11.903800 -14.354400
N -12.699200 -10.598000 -11.327900
C -12.605500 -11.200700 -10.104100
C -12.451100 -11.522300 -13.601600
H -11.943000 -10.713900 -13.926800
C -11.911600 -9.482200 -11.269000
N -11.830500 -10.546700 -9.277100
N -11.692800 -8.632900 -12.301400
O -11.457200 -13.207900 -12.215200
C -11.420900 -12.542400 -13.226600
C -11.384300 -9.445400 -9.994800
C -10.835600 -7.674600 -11.981100
H -10.816900 -6.805900 -13.772600
H -10.522100 -12.042700 -14.859000
C -10.501700 -8.399500 -9.649900
N -10.468800 -6.775700 -12.891600
O -10.423000 -12.690300 -14.078200
N -10.279500 -7.537500 -10.725800
O -9.929800 -8.188400 -8.569900
H -9.826500 -6.143600 -12.735300
H -9.679900 -6.805900 -10.583500
