25
Fragment
H -15.999300 -20.018600 -10.443400
H -15.852700 -20.681000 -8.291600
O -15.749400 -18.636100 -12.457000
N -15.399700 -19.287000 -10.301100
O -15.256100 -14.134200 -6.948700
N -15.210300 -20.048900 -8.135300
C -15.177500 -18.425000 -11.376900
H -15.157100 -14.781900 -6.167900
H -14.862200 -20.018600 -7.254300
C -14.843600 -19.149900 -9.045800
C -14.294900 -17.379100 -11.032100
C -14.258200 -14.282100 -7.800300
O -14.222000 -13.616600 -8.811700
N -13.986400 -18.191600 -8.725500
N -13.848700 -16.277800 -11.749800
C -13.767600 -17.342300 -9.757900
H -13.736200 -16.110700 -7.100100
C -13.228100 -15.302200 -7.425300
C -13.073700 -15.623800 -10.922800
N -12.980000 -16.226500 -9.699000
H -12.715900 -14.920700 -6.672500
H -12.548000 -14.790000 -11.088200
C -12.276400 -15.675300 -8.534800
H -11.771300 -14.864700 -8.852300
H -11.623300 -16.352900 -8.242500
16
Fragment
H -10.044700 -18.892200 -8.263600
O -9.796300 -17.005800 -12.506800
N -9.638100 -17.565400 -10.314400
N -9.433200 -18.067000 -8.097500
C -9.332500 -16.792700 -11.384700
C -9.100000 -17.285000 -9.125700
H -9.089500 -17.872800 -7.345400
H -8.921500 -14.408300 -12.742300
N -8.471800 -15.713200 -11.225600
C -8.210000 -16.198700 -8.936400
C -8.143300 -14.905500 -12.408700
C -7.920100 -15.448000 -10.004600
H -7.810200 -16.052100 -8.074300
H -7.796900 -15.507600 -13.127800
H -7.495000 -14.178100 -12.188600
H -7.277500 -14.629600 -10.022800
41
Fragment
H -15.999300 -20.018600 -10.443400
H -15.852700 -20.681000 -8.291600
O -15.749400 -18.636100 -12.457000
N -15.399700 -19.287000 -10.301100
O -15.256100 -14.134200 -6.948700
N -15.210300 -20.048900 -8.135300
C -15.177500 -18.425000 -11.376900
H -15.157100 -14.781900 -6.167900
H -14.862200 -20.018600 -7.254300
C -14.843600 -19.149900 -9.045800
C -14.294900 -17.379100 -11.032100
C -14.258200 -14.282100 -7.800300
O -14.222000 -13.616600 -8.811700
N -13.986400 -18.191600 -8.725500
N -13.848700 -16.277800 -11.749800
C -13.767600 -17.342300 -9.757900
H -13.736200 -16.110700 -7.100100
C -13.228100 -15.302200 -7.425300
C -13.073700 -15.623800 -10.922800
N -12.980000 -16.226500 -9.699000
H -12.715900 -14.920700 -6.672500
H -12.548000 -14.790000 -11.088200
C -12.276400 -15.675300 -8.534800
H -11.771300 -14.864700 -8.852300
H -11.623300 -16.352900 -8.242500
H -10.044700 -18.892200 -8.263600
O -9.796300 -17.005800 -12.506800
N -9.638100 -17.565400 -10.314400
N -9.433200 -18.067000 -8.097500
C -9.332500 -16.792700 -11.384700
C -9.100000 -17.285000 -9.125700
H -9.089500 -17.872800 -7.345400
H -8.921500 -14.408300 -12.742300
N -8.471800 -15.713200 -11.225600
C -8.210000 -16.198700 -8.936400
C -8.143300 -14.905500 -12.408700
C -7.920100 -15.448000 -10.004600
H -7.810200 -16.052100 -8.074300
H -7.796900 -15.507600 -13.127800
H -7.495000 -14.178100 -12.188600
H -7.277500 -14.629600 -10.022800
