19
Fragment
O -33.351900 -13.271400 -15.930700
N -32.692500 -13.669900 -14.998300
H -32.671600 -11.094300 -15.242700
O -32.563100 -14.863400 -14.741400
O -32.354200 -8.692400 -14.983600
C -32.181000 -11.348200 -14.493900
C -32.026100 -12.678800 -14.157200
N -31.727500 -8.999400 -13.983100
H -31.590700 -14.986500 -13.539500
C -31.586700 -10.415000 -13.685300
C -31.285500 -13.115600 -13.047600
O -31.219700 -8.196900 -13.211200
O -31.083400 -14.419200 -12.722500
C -30.860600 -10.778900 -12.573600
C -30.726200 -12.097500 -12.264200
H -30.465200 -10.128500 -12.038700
N -29.952200 -12.420400 -11.049700
O -29.860600 -13.537400 -10.675300
O -29.504100 -11.525500 -10.425700
19
Fragment
O -33.351900 -14.723400 -21.174500
N -32.692500 -14.324900 -20.242100
H -32.671600 -16.900500 -20.486500
O -32.563100 -13.131400 -19.985200
O -32.354200 -19.302400 -20.227400
C -32.181000 -16.646600 -19.737700
C -32.026100 -15.316000 -19.401000
N -31.727500 -18.995400 -19.226900
H -31.590700 -13.008300 -18.783300
C -31.586700 -17.579800 -18.929100
C -31.285500 -14.879200 -18.291400
O -31.219700 -19.797900 -18.455000
O -31.083400 -13.575600 -17.966300
C -30.860600 -17.215900 -17.817400
C -30.726200 -15.897300 -17.508000
H -30.465200 -17.866300 -17.282500
N -29.952200 -15.574400 -16.293500
O -29.860600 -14.457400 -15.919100
O -29.504100 -16.469300 -15.669500
38
Fragment
O -33.351900 -13.271400 -15.930700
N -32.692500 -13.669900 -14.998300
H -32.671600 -11.094300 -15.242700
O -32.563100 -14.863400 -14.741400
O -32.354200 -8.692400 -14.983600
C -32.181000 -11.348200 -14.493900
C -32.026100 -12.678800 -14.157200
N -31.727500 -8.999400 -13.983100
H -31.590700 -14.986500 -13.539500
C -31.586700 -10.415000 -13.685300
C -31.285500 -13.115600 -13.047600
O -31.219700 -8.196900 -13.211200
O -31.083400 -14.419200 -12.722500
C -30.860600 -10.778900 -12.573600
C -30.726200 -12.097500 -12.264200
H -30.465200 -10.128500 -12.038700
N -29.952200 -12.420400 -11.049700
O -29.860600 -13.537400 -10.675300
O -29.504100 -11.525500 -10.425700
O -33.351900 -14.723400 -21.174500
N -32.692500 -14.324900 -20.242100
H -32.671600 -16.900500 -20.486500
O -32.563100 -13.131400 -19.985200
O -32.354200 -19.302400 -20.227400
C -32.181000 -16.646600 -19.737700
C -32.026100 -15.316000 -19.401000
N -31.727500 -18.995400 -19.226900
H -31.590700 -13.008300 -18.783300
C -31.586700 -17.579800 -18.929100
C -31.285500 -14.879200 -18.291400
O -31.219700 -19.797900 -18.455000
O -31.083400 -13.575600 -17.966300
C -30.860600 -17.215900 -17.817400
C -30.726200 -15.897300 -17.508000
H -30.465200 -17.866300 -17.282500
N -29.952200 -15.574400 -16.293500
O -29.860600 -14.457400 -15.919100
O -29.504100 -16.469300 -15.669500
