19
Fragment
O -33.351900 -13.271400 -15.930700
N -32.692500 -13.669900 -14.998300
H -32.671600 -11.094300 -15.242700
O -32.563100 -14.863400 -14.741400
O -32.354200 -8.692400 -14.983600
C -32.181000 -11.348200 -14.493900
C -32.026100 -12.678800 -14.157200
N -31.727500 -8.999400 -13.983100
H -31.590700 -14.986500 -13.539500
C -31.586700 -10.415000 -13.685300
C -31.285500 -13.115600 -13.047600
O -31.219700 -8.196900 -13.211200
O -31.083400 -14.419200 -12.722500
C -30.860600 -10.778900 -12.573600
C -30.726200 -12.097500 -12.264200
H -30.465200 -10.128500 -12.038700
N -29.952200 -12.420400 -11.049700
O -29.860600 -13.537400 -10.675300
O -29.504100 -11.525500 -10.425700
19
Fragment
O -29.240900 -11.803500 -15.669500
O -28.884400 -9.791600 -15.919100
N -28.792800 -10.908600 -16.293500
H -28.279800 -13.200500 -17.282500
C -28.018800 -11.231500 -17.508000
C -27.884400 -12.550100 -17.817400
O -27.661600 -8.909800 -17.966300
O -27.525300 -15.132100 -18.455000
C -27.459500 -10.213400 -18.291400
C -27.158300 -12.914000 -18.929100
H -27.154300 -8.342500 -18.783300
N -27.017500 -14.329600 -19.226900
C -26.718900 -10.650200 -19.401000
C -26.564000 -11.980800 -19.737700
O -26.390800 -14.636600 -20.227400
O -26.181900 -8.465600 -19.985200
H -26.073400 -12.234700 -20.486500
N -26.052500 -9.659100 -20.242100
O -25.393100 -10.057600 -21.174500
38
Fragment
O -33.351900 -13.271400 -15.930700
N -32.692500 -13.669900 -14.998300
H -32.671600 -11.094300 -15.242700
O -32.563100 -14.863400 -14.741400
O -32.354200 -8.692400 -14.983600
C -32.181000 -11.348200 -14.493900
C -32.026100 -12.678800 -14.157200
N -31.727500 -8.999400 -13.983100
H -31.590700 -14.986500 -13.539500
C -31.586700 -10.415000 -13.685300
C -31.285500 -13.115600 -13.047600
O -31.219700 -8.196900 -13.211200
O -31.083400 -14.419200 -12.722500
C -30.860600 -10.778900 -12.573600
C -30.726200 -12.097500 -12.264200
H -30.465200 -10.128500 -12.038700
N -29.952200 -12.420400 -11.049700
O -29.860600 -13.537400 -10.675300
O -29.504100 -11.525500 -10.425700
O -29.240900 -11.803500 -15.669500
O -28.884400 -9.791600 -15.919100
N -28.792800 -10.908600 -16.293500
H -28.279800 -13.200500 -17.282500
C -28.018800 -11.231500 -17.508000
C -27.884400 -12.550100 -17.817400
O -27.661600 -8.909800 -17.966300
O -27.525300 -15.132100 -18.455000
C -27.459500 -10.213400 -18.291400
C -27.158300 -12.914000 -18.929100
H -27.154300 -8.342500 -18.783300
N -27.017500 -14.329600 -19.226900
C -26.718900 -10.650200 -19.401000
C -26.564000 -11.980800 -19.737700
O -26.390800 -14.636600 -20.227400
O -26.181900 -8.465600 -19.985200
H -26.073400 -12.234700 -20.486500
N -26.052500 -9.659100 -20.242100
O -25.393100 -10.057600 -21.174500
