19
Fragment
O -33.351900 -13.271400 -15.930700
N -32.692500 -13.669900 -14.998300
H -32.671600 -11.094300 -15.242700
O -32.563100 -14.863400 -14.741400
O -32.354200 -8.692400 -14.983600
C -32.181000 -11.348200 -14.493900
C -32.026100 -12.678800 -14.157200
N -31.727500 -8.999400 -13.983100
H -31.590700 -14.986500 -13.539500
C -31.586700 -10.415000 -13.685300
C -31.285500 -13.115600 -13.047600
O -31.219700 -8.196900 -13.211200
O -31.083400 -14.419200 -12.722500
C -30.860600 -10.778900 -12.573600
C -30.726200 -12.097500 -12.264200
H -30.465200 -10.128500 -12.038700
N -29.952200 -12.420400 -11.049700
O -29.860600 -13.537400 -10.675300
O -29.504100 -11.525500 -10.425700
16
Fragment
H -36.198700 -9.718900 -14.873500
H -36.189300 -12.002300 -14.893400
O -35.825100 -7.465300 -14.004100
C -35.814500 -10.187300 -14.167700
C -35.812100 -11.546900 -14.175000
H -35.545400 -14.090700 -13.696800
N -35.247000 -13.623200 -13.109500
C -35.247000 -12.273900 -13.109500
C -35.247000 -9.503300 -13.109500
N -35.247000 -8.049400 -13.109500
H -34.948600 -14.090700 -12.522200
C -34.681900 -11.546900 -12.044000
C -34.679500 -10.187300 -12.051300
O -34.668900 -7.465300 -12.214900
H -34.304700 -12.002300 -11.325600
H -34.295300 -9.718900 -11.345500
35
Fragment
O -33.351900 -13.271400 -15.930700
N -32.692500 -13.669900 -14.998300
H -32.671600 -11.094300 -15.242700
O -32.563100 -14.863400 -14.741400
O -32.354200 -8.692400 -14.983600
C -32.181000 -11.348200 -14.493900
C -32.026100 -12.678800 -14.157200
N -31.727500 -8.999400 -13.983100
H -31.590700 -14.986500 -13.539500
C -31.586700 -10.415000 -13.685300
C -31.285500 -13.115600 -13.047600
O -31.219700 -8.196900 -13.211200
O -31.083400 -14.419200 -12.722500
C -30.860600 -10.778900 -12.573600
C -30.726200 -12.097500 -12.264200
H -30.465200 -10.128500 -12.038700
N -29.952200 -12.420400 -11.049700
O -29.860600 -13.537400 -10.675300
O -29.504100 -11.525500 -10.425700
H -36.198700 -9.718900 -14.873500
H -36.189300 -12.002300 -14.893400
O -35.825100 -7.465300 -14.004100
C -35.814500 -10.187300 -14.167700
C -35.812100 -11.546900 -14.175000
H -35.545400 -14.090700 -13.696800
N -35.247000 -13.623200 -13.109500
C -35.247000 -12.273900 -13.109500
C -35.247000 -9.503300 -13.109500
N -35.247000 -8.049400 -13.109500
H -34.948600 -14.090700 -12.522200
C -34.681900 -11.546900 -12.044000
C -34.679500 -10.187300 -12.051300
O -34.668900 -7.465300 -12.214900
H -34.304700 -12.002300 -11.325600
H -34.295300 -9.718900 -11.345500
