26
Fragment
H -15.184000 -15.388000 -16.006700
H -14.577700 -14.204700 -14.319800
H -14.520500 -16.995000 -16.359200
N -14.404400 -16.058900 -15.929100
N -13.703500 -14.729100 -14.156400
C -13.644200 -15.940000 -14.819800
H -13.354200 -14.725000 -13.190300
N -12.797400 -16.945800 -14.510800
N -12.105000 -16.718500 -13.358900
C -11.145000 -17.586700 -13.085400
H -10.845500 -18.488800 -14.884600
N -10.814800 -18.691200 -13.874900
N -10.506300 -17.350200 -11.875700
H -9.891900 -19.039900 -13.586400
N -9.553700 -18.208200 -11.650000
H -9.176700 -17.249800 -9.749800
C -8.888200 -18.038800 -10.465300
N -7.915400 -18.903200 -10.266500
N -7.211300 -18.800800 -9.121200
H -6.486000 -20.637400 -10.878000
C -6.204500 -19.722600 -9.064300
N -5.963900 -20.657500 -9.997600
N -5.429900 -19.703400 -7.946100
H -5.363400 -18.809300 -7.423200
H -5.109100 -21.220600 -9.901800
H -4.573400 -20.263200 -8.003900
3
Fragment
H -4.132100 -22.786000 -8.040400
O -3.748400 -22.107800 -8.654300
H -3.079700 -22.632300 -9.172700
29
Fragment
H -15.184000 -15.388000 -16.006700
H -14.577700 -14.204700 -14.319800
H -14.520500 -16.995000 -16.359200
N -14.404400 -16.058900 -15.929100
N -13.703500 -14.729100 -14.156400
C -13.644200 -15.940000 -14.819800
H -13.354200 -14.725000 -13.190300
N -12.797400 -16.945800 -14.510800
N -12.105000 -16.718500 -13.358900
C -11.145000 -17.586700 -13.085400
H -10.845500 -18.488800 -14.884600
N -10.814800 -18.691200 -13.874900
N -10.506300 -17.350200 -11.875700
H -9.891900 -19.039900 -13.586400
N -9.553700 -18.208200 -11.650000
H -9.176700 -17.249800 -9.749800
C -8.888200 -18.038800 -10.465300
N -7.915400 -18.903200 -10.266500
N -7.211300 -18.800800 -9.121200
H -6.486000 -20.637400 -10.878000
C -6.204500 -19.722600 -9.064300
N -5.963900 -20.657500 -9.997600
N -5.429900 -19.703400 -7.946100
H -5.363400 -18.809300 -7.423200
H -5.109100 -21.220600 -9.901800
H -4.573400 -20.263200 -8.003900
H -4.132100 -22.786000 -8.040400
O -3.748400 -22.107800 -8.654300
H -3.079700 -22.632300 -9.172700
