26
Fragment
H -15.184000 -15.388000 -16.006700
H -14.577700 -14.204700 -14.319800
H -14.520500 -16.995000 -16.359200
N -14.404400 -16.058900 -15.929100
N -13.703500 -14.729100 -14.156400
C -13.644200 -15.940000 -14.819800
H -13.354200 -14.725000 -13.190300
N -12.797400 -16.945800 -14.510800
N -12.105000 -16.718500 -13.358900
C -11.145000 -17.586700 -13.085400
H -10.845500 -18.488800 -14.884600
N -10.814800 -18.691200 -13.874900
N -10.506300 -17.350200 -11.875700
H -9.891900 -19.039900 -13.586400
N -9.553700 -18.208200 -11.650000
H -9.176700 -17.249800 -9.749800
C -8.888200 -18.038800 -10.465300
N -7.915400 -18.903200 -10.266500
N -7.211300 -18.800800 -9.121200
H -6.486000 -20.637400 -10.878000
C -6.204500 -19.722600 -9.064300
N -5.963900 -20.657500 -9.997600
N -5.429900 -19.703400 -7.946100
H -5.363400 -18.809300 -7.423200
H -5.109100 -21.220600 -9.901800
H -4.573400 -20.263200 -8.003900
26
Fragment
H -14.122200 -27.460800 -19.965300
H -13.515900 -28.644100 -18.278400
H -13.458700 -25.853800 -20.317800
N -13.342600 -26.789900 -19.887700
N -12.641700 -28.119700 -18.115000
C -12.582400 -26.908800 -18.778400
H -12.292400 -28.123800 -17.148900
N -11.735600 -25.903000 -18.469400
N -11.043200 -26.130300 -17.317500
C -10.083200 -25.262100 -17.044000
H -9.783700 -24.360000 -18.843200
N -9.753000 -24.157600 -17.833500
N -9.444500 -25.498600 -15.834300
H -8.830100 -23.808900 -17.545000
N -8.491900 -24.640600 -15.608600
H -8.114900 -25.599000 -13.708400
C -7.826400 -24.810000 -14.423900
N -6.853600 -23.945600 -14.225100
N -6.149500 -24.048000 -13.079800
H -5.424200 -22.211400 -14.836600
C -5.142700 -23.126200 -13.022900
N -4.902100 -22.191200 -13.956100
N -4.368100 -23.145300 -11.904600
H -4.301600 -24.039500 -11.381800
H -4.047300 -21.628200 -13.860400
H -3.511600 -22.585600 -11.962400
52
Fragment
H -15.184000 -15.388000 -16.006700
H -14.577700 -14.204700 -14.319800
H -14.520500 -16.995000 -16.359200
N -14.404400 -16.058900 -15.929100
N -13.703500 -14.729100 -14.156400
C -13.644200 -15.940000 -14.819800
H -13.354200 -14.725000 -13.190300
N -12.797400 -16.945800 -14.510800
N -12.105000 -16.718500 -13.358900
C -11.145000 -17.586700 -13.085400
H -10.845500 -18.488800 -14.884600
N -10.814800 -18.691200 -13.874900
N -10.506300 -17.350200 -11.875700
H -9.891900 -19.039900 -13.586400
N -9.553700 -18.208200 -11.650000
H -9.176700 -17.249800 -9.749800
C -8.888200 -18.038800 -10.465300
N -7.915400 -18.903200 -10.266500
N -7.211300 -18.800800 -9.121200
H -6.486000 -20.637400 -10.878000
C -6.204500 -19.722600 -9.064300
N -5.963900 -20.657500 -9.997600
N -5.429900 -19.703400 -7.946100
H -5.363400 -18.809300 -7.423200
H -5.109100 -21.220600 -9.901800
H -4.573400 -20.263200 -8.003900
H -14.122200 -27.460800 -19.965300
H -13.515900 -28.644100 -18.278400
H -13.458700 -25.853800 -20.317800
N -13.342600 -26.789900 -19.887700
N -12.641700 -28.119700 -18.115000
C -12.582400 -26.908800 -18.778400
H -12.292400 -28.123800 -17.148900
N -11.735600 -25.903000 -18.469400
N -11.043200 -26.130300 -17.317500
C -10.083200 -25.262100 -17.044000
H -9.783700 -24.360000 -18.843200
N -9.753000 -24.157600 -17.833500
N -9.444500 -25.498600 -15.834300
H -8.830100 -23.808900 -17.545000
N -8.491900 -24.640600 -15.608600
H -8.114900 -25.599000 -13.708400
C -7.826400 -24.810000 -14.423900
N -6.853600 -23.945600 -14.225100
N -6.149500 -24.048000 -13.079800
H -5.424200 -22.211400 -14.836600
C -5.142700 -23.126200 -13.022900
N -4.902100 -22.191200 -13.956100
N -4.368100 -23.145300 -11.904600
H -4.301600 -24.039500 -11.381800
H -4.047300 -21.628200 -13.860400
H -3.511600 -22.585600 -11.962400
