12
Fragment
O 1.808500 -9.248000 -38.088300
H 1.833700 -11.478800 -38.331300
C 2.529300 -9.834800 -38.853700
N 2.544400 -11.210900 -38.918900
O 3.353200 -13.164200 -39.748600
C 3.353200 -11.953300 -39.748600
N 3.353200 -9.218800 -39.748600
H 3.353200 -8.358700 -39.748600
N 4.161900 -11.210900 -40.578400
C 4.177000 -9.834800 -40.643500
H 4.872600 -11.478800 -41.166000
O 4.897900 -9.248000 -41.409000
22
Fragment
N 6.072800 -12.228700 -42.444700
H 6.206300 -14.118100 -41.965500
H 6.283700 -10.448000 -43.210200
C 6.539200 -13.467500 -42.540100
C 6.597200 -11.321700 -43.273800
C 7.513700 -13.827800 -43.475900
C 7.548200 -11.576700 -44.198200
H 7.814100 -14.706200 -43.528200
H 7.877600 -10.900800 -44.745600
C 8.017000 -12.871900 -44.307200
N 9.062100 -13.039100 -45.374800
N 9.305200 -14.156900 -45.479200
C 10.350200 -14.324100 -46.546800
H 10.489700 -16.295200 -46.108400
H 10.553200 -12.489800 -47.325900
C 10.819000 -15.619300 -46.655800
C 10.853600 -13.368200 -47.378100
C 11.770100 -15.874300 -47.580200
C 11.828000 -13.728500 -48.313900
H 12.083500 -16.748000 -47.643800
H 12.161000 -13.077900 -48.888500
N 12.294500 -14.967300 -48.409300
34
Fragment
O 1.808500 -9.248000 -38.088300
H 1.833700 -11.478800 -38.331300
C 2.529300 -9.834800 -38.853700
N 2.544400 -11.210900 -38.918900
O 3.353200 -13.164200 -39.748600
C 3.353200 -11.953300 -39.748600
N 3.353200 -9.218800 -39.748600
H 3.353200 -8.358700 -39.748600
N 4.161900 -11.210900 -40.578400
C 4.177000 -9.834800 -40.643500
H 4.872600 -11.478800 -41.166000
O 4.897900 -9.248000 -41.409000
N 6.072800 -12.228700 -42.444700
H 6.206300 -14.118100 -41.965500
H 6.283700 -10.448000 -43.210200
C 6.539200 -13.467500 -42.540100
C 6.597200 -11.321700 -43.273800
C 7.513700 -13.827800 -43.475900
C 7.548200 -11.576700 -44.198200
H 7.814100 -14.706200 -43.528200
H 7.877600 -10.900800 -44.745600
C 8.017000 -12.871900 -44.307200
N 9.062100 -13.039100 -45.374800
N 9.305200 -14.156900 -45.479200
C 10.350200 -14.324100 -46.546800
H 10.489700 -16.295200 -46.108400
H 10.553200 -12.489800 -47.325900
C 10.819000 -15.619300 -46.655800
C 10.853600 -13.368200 -47.378100
C 11.770100 -15.874300 -47.580200
C 11.828000 -13.728500 -48.313900
H 12.083500 -16.748000 -47.643800
H 12.161000 -13.077900 -48.888500
N 12.294500 -14.967300 -48.409300
