12
Fragment
O 1.808500 -9.248000 -38.088300
H 1.833700 -11.478800 -38.331300
C 2.529300 -9.834800 -38.853700
N 2.544400 -11.210900 -38.918900
O 3.353200 -13.164200 -39.748600
C 3.353200 -11.953300 -39.748600
N 3.353200 -9.218800 -39.748600
H 3.353200 -8.358700 -39.748600
N 4.161900 -11.210900 -40.578400
C 4.177000 -9.834800 -40.643500
H 4.872600 -11.478800 -41.166000
O 4.897900 -9.248000 -41.409000
22
Fragment
N 1.390300 -12.228700 -42.444700
H 1.523800 -14.118100 -41.965500
H 1.601200 -10.448000 -43.210200
C 1.856700 -13.467500 -42.540100
C 1.914700 -11.321700 -43.273800
C 2.831200 -13.827800 -43.475900
C 2.865700 -11.576700 -44.198200
H 3.131600 -14.706200 -43.528200
H 3.195100 -10.900800 -44.745600
C 3.334500 -12.871900 -44.307200
N 4.379600 -13.039100 -45.374800
N 4.622700 -14.156900 -45.479200
C 5.667700 -14.324100 -46.546800
H 5.807200 -16.295200 -46.108400
H 5.870700 -12.489800 -47.325900
C 6.136500 -15.619300 -46.655800
C 6.171100 -13.368200 -47.378100
C 7.087600 -15.874300 -47.580200
C 7.145500 -13.728500 -48.313900
H 7.401000 -16.748000 -47.643800
H 7.478500 -13.077900 -48.888500
N 7.612000 -14.967300 -48.409300
34
Fragment
O 1.808500 -9.248000 -38.088300
H 1.833700 -11.478800 -38.331300
C 2.529300 -9.834800 -38.853700
N 2.544400 -11.210900 -38.918900
O 3.353200 -13.164200 -39.748600
C 3.353200 -11.953300 -39.748600
N 3.353200 -9.218800 -39.748600
H 3.353200 -8.358700 -39.748600
N 4.161900 -11.210900 -40.578400
C 4.177000 -9.834800 -40.643500
H 4.872600 -11.478800 -41.166000
O 4.897900 -9.248000 -41.409000
N 1.390300 -12.228700 -42.444700
H 1.523800 -14.118100 -41.965500
H 1.601200 -10.448000 -43.210200
C 1.856700 -13.467500 -42.540100
C 1.914700 -11.321700 -43.273800
C 2.831200 -13.827800 -43.475900
C 2.865700 -11.576700 -44.198200
H 3.131600 -14.706200 -43.528200
H 3.195100 -10.900800 -44.745600
C 3.334500 -12.871900 -44.307200
N 4.379600 -13.039100 -45.374800
N 4.622700 -14.156900 -45.479200
C 5.667700 -14.324100 -46.546800
H 5.807200 -16.295200 -46.108400
H 5.870700 -12.489800 -47.325900
C 6.136500 -15.619300 -46.655800
C 6.171100 -13.368200 -47.378100
C 7.087600 -15.874300 -47.580200
C 7.145500 -13.728500 -48.313900
H 7.401000 -16.748000 -47.643800
H 7.478500 -13.077900 -48.888500
N 7.612000 -14.967300 -48.409300
