12
Fragment
O 1.808500 -9.248000 -38.088300
H 1.833700 -11.478800 -38.331300
C 2.529300 -9.834800 -38.853700
N 2.544400 -11.210900 -38.918900
O 3.353200 -13.164200 -39.748600
C 3.353200 -11.953300 -39.748600
N 3.353200 -9.218800 -39.748600
H 3.353200 -8.358700 -39.748600
N 4.161900 -11.210900 -40.578400
C 4.177000 -9.834800 -40.643500
H 4.872600 -11.478800 -41.166000
O 4.897900 -9.248000 -41.409000
22
Fragment
N -0.905600 -14.967300 -31.088000
H -0.772100 -13.077900 -30.608700
H -0.694700 -16.748000 -31.853400
C -0.439200 -13.728500 -31.183400
C -0.381200 -15.874300 -31.917000
C 0.535300 -13.368200 -32.119200
C 0.569800 -15.619300 -32.841500
H 0.835700 -12.489800 -32.171400
H 0.899200 -16.295200 -33.388800
C 1.038600 -14.324100 -32.950500
N 2.083700 -14.156900 -34.018000
N 2.326800 -13.039100 -34.122500
C 3.371800 -12.871900 -35.190000
H 3.511300 -10.900800 -34.751700
H 3.574800 -14.706200 -35.969100
C 3.840600 -11.576700 -35.299100
C 3.875200 -13.827800 -36.021300
C 4.791700 -11.321700 -36.223500
C 4.849600 -13.467500 -36.957100
H 5.105100 -10.448000 -36.287100
H 5.182600 -14.118100 -37.531800
N 5.316100 -12.228700 -37.052500
34
Fragment
O 1.808500 -9.248000 -38.088300
H 1.833700 -11.478800 -38.331300
C 2.529300 -9.834800 -38.853700
N 2.544400 -11.210900 -38.918900
O 3.353200 -13.164200 -39.748600
C 3.353200 -11.953300 -39.748600
N 3.353200 -9.218800 -39.748600
H 3.353200 -8.358700 -39.748600
N 4.161900 -11.210900 -40.578400
C 4.177000 -9.834800 -40.643500
H 4.872600 -11.478800 -41.166000
O 4.897900 -9.248000 -41.409000
N -0.905600 -14.967300 -31.088000
H -0.772100 -13.077900 -30.608700
H -0.694700 -16.748000 -31.853400
C -0.439200 -13.728500 -31.183400
C -0.381200 -15.874300 -31.917000
C 0.535300 -13.368200 -32.119200
C 0.569800 -15.619300 -32.841500
H 0.835700 -12.489800 -32.171400
H 0.899200 -16.295200 -33.388800
C 1.038600 -14.324100 -32.950500
N 2.083700 -14.156900 -34.018000
N 2.326800 -13.039100 -34.122500
C 3.371800 -12.871900 -35.190000
H 3.511300 -10.900800 -34.751700
H 3.574800 -14.706200 -35.969100
C 3.840600 -11.576700 -35.299100
C 3.875200 -13.827800 -36.021300
C 4.791700 -11.321700 -36.223500
C 4.849600 -13.467500 -36.957100
H 5.105100 -10.448000 -36.287100
H 5.182600 -14.118100 -37.531800
N 5.316100 -12.228700 -37.052500
