12
Fragment
O 1.808500 -9.248000 -38.088300
H 1.833700 -11.478800 -38.331300
C 2.529300 -9.834800 -38.853700
N 2.544400 -11.210900 -38.918900
O 3.353200 -13.164200 -39.748600
C 3.353200 -11.953300 -39.748600
N 3.353200 -9.218800 -39.748600
H 3.353200 -8.358700 -39.748600
N 4.161900 -11.210900 -40.578400
C 4.177000 -9.834800 -40.643500
H 4.872600 -11.478800 -41.166000
O 4.897900 -9.248000 -41.409000
22
Fragment
N -5.588100 -8.168300 -31.088000
H -5.454600 -6.278900 -30.608700
H -5.377200 -9.949000 -31.853400
C -5.121700 -6.929500 -31.183400
C -5.063700 -9.075300 -31.917000
C -4.147200 -6.569200 -32.119200
C -4.112700 -8.820300 -32.841500
H -3.846800 -5.690800 -32.171400
H -3.783300 -9.496200 -33.388800
C -3.643900 -7.525100 -32.950500
N -2.598800 -7.357900 -34.018000
N -2.355700 -6.240100 -34.122500
C -1.310700 -6.072900 -35.190000
H -1.171200 -4.101800 -34.751700
H -1.107700 -7.907200 -35.969100
C -0.841900 -4.777700 -35.299100
C -0.807300 -7.028800 -36.021300
C 0.109200 -4.522700 -36.223500
C 0.167100 -6.668500 -36.957100
H 0.422600 -3.649000 -36.287100
H 0.500100 -7.319100 -37.531800
N 0.633600 -5.429700 -37.052500
34
Fragment
O 1.808500 -9.248000 -38.088300
H 1.833700 -11.478800 -38.331300
C 2.529300 -9.834800 -38.853700
N 2.544400 -11.210900 -38.918900
O 3.353200 -13.164200 -39.748600
C 3.353200 -11.953300 -39.748600
N 3.353200 -9.218800 -39.748600
H 3.353200 -8.358700 -39.748600
N 4.161900 -11.210900 -40.578400
C 4.177000 -9.834800 -40.643500
H 4.872600 -11.478800 -41.166000
O 4.897900 -9.248000 -41.409000
N -5.588100 -8.168300 -31.088000
H -5.454600 -6.278900 -30.608700
H -5.377200 -9.949000 -31.853400
C -5.121700 -6.929500 -31.183400
C -5.063700 -9.075300 -31.917000
C -4.147200 -6.569200 -32.119200
C -4.112700 -8.820300 -32.841500
H -3.846800 -5.690800 -32.171400
H -3.783300 -9.496200 -33.388800
C -3.643900 -7.525100 -32.950500
N -2.598800 -7.357900 -34.018000
N -2.355700 -6.240100 -34.122500
C -1.310700 -6.072900 -35.190000
H -1.171200 -4.101800 -34.751700
H -1.107700 -7.907200 -35.969100
C -0.841900 -4.777700 -35.299100
C -0.807300 -7.028800 -36.021300
C 0.109200 -4.522700 -36.223500
C 0.167100 -6.668500 -36.957100
H 0.422600 -3.649000 -36.287100
H 0.500100 -7.319100 -37.531800
N 0.633600 -5.429700 -37.052500
