12
Fragment
O 1.808500 -9.248000 -38.088300
H 1.833700 -11.478800 -38.331300
C 2.529300 -9.834800 -38.853700
N 2.544400 -11.210900 -38.918900
O 3.353200 -13.164200 -39.748600
C 3.353200 -11.953300 -39.748600
N 3.353200 -9.218800 -39.748600
H 3.353200 -8.358700 -39.748600
N 4.161900 -11.210900 -40.578400
C 4.177000 -9.834800 -40.643500
H 4.872600 -11.478800 -41.166000
O 4.897900 -9.248000 -41.409000
12
Fragment
O 1.808500 -2.449000 -38.088300
H 1.833700 -4.679800 -38.331300
C 2.529300 -3.035800 -38.853700
N 2.544400 -4.411900 -38.918900
O 3.353200 -6.365200 -39.748600
C 3.353200 -5.154300 -39.748600
N 3.353200 -2.419800 -39.748600
H 3.353200 -1.559700 -39.748600
N 4.161900 -4.411900 -40.578400
C 4.177000 -3.035800 -40.643500
H 4.872600 -4.679800 -41.166000
O 4.897900 -2.449000 -41.409000
24
Fragment
O 1.808500 -9.248000 -38.088300
H 1.833700 -11.478800 -38.331300
C 2.529300 -9.834800 -38.853700
N 2.544400 -11.210900 -38.918900
O 3.353200 -13.164200 -39.748600
C 3.353200 -11.953300 -39.748600
N 3.353200 -9.218800 -39.748600
H 3.353200 -8.358700 -39.748600
N 4.161900 -11.210900 -40.578400
C 4.177000 -9.834800 -40.643500
H 4.872600 -11.478800 -41.166000
O 4.897900 -9.248000 -41.409000
O 1.808500 -2.449000 -38.088300
H 1.833700 -4.679800 -38.331300
C 2.529300 -3.035800 -38.853700
N 2.544400 -4.411900 -38.918900
O 3.353200 -6.365200 -39.748600
C 3.353200 -5.154300 -39.748600
N 3.353200 -2.419800 -39.748600
H 3.353200 -1.559700 -39.748600
N 4.161900 -4.411900 -40.578400
C 4.177000 -3.035800 -40.643500
H 4.872600 -4.679800 -41.166000
O 4.897900 -2.449000 -41.409000
