16
Fragment
H -40.409400 -7.926500 -21.270900
O -39.910300 -8.476200 -21.664900
O -39.115100 -8.727500 -19.593400
C -39.078700 -9.022500 -20.791000
H -38.656200 -9.851300 -23.298900
C -38.126500 -10.000900 -21.330600
C -38.068800 -10.296000 -22.700500
H -37.791900 -9.822600 -18.944500
C -37.229800 -10.649900 -20.456200
O -37.191500 -10.379800 -19.133500
C -37.172800 -11.221200 -23.191900
H -37.132400 -11.403400 -24.123100
C -36.347500 -11.605700 -20.958600
C -36.323600 -11.888500 -22.304600
H -35.762000 -12.064100 -20.368000
H -35.721000 -12.545100 -22.635000
16
Fragment
H -41.392900 -15.604000 -14.812300
O -40.893700 -15.054300 -15.206300
O -40.098500 -14.803000 -13.134700
C -40.062100 -14.508000 -14.332400
H -39.639700 -13.679200 -16.840300
C -39.110000 -13.529600 -14.872000
C -39.052300 -13.234500 -16.241800
H -38.775400 -13.707900 -12.485900
C -38.213300 -12.880600 -13.997600
O -38.175000 -13.150700 -12.674800
C -38.156300 -12.309300 -16.733200
H -38.115900 -12.127100 -17.664400
C -37.331000 -11.924800 -14.499900
C -37.307100 -11.642000 -15.845900
H -36.745400 -11.466400 -13.909400
H -36.704500 -10.985400 -16.176300
32
Fragment
H -40.409400 -7.926500 -21.270900
O -39.910300 -8.476200 -21.664900
O -39.115100 -8.727500 -19.593400
C -39.078700 -9.022500 -20.791000
H -38.656200 -9.851300 -23.298900
C -38.126500 -10.000900 -21.330600
C -38.068800 -10.296000 -22.700500
H -37.791900 -9.822600 -18.944500
C -37.229800 -10.649900 -20.456200
O -37.191500 -10.379800 -19.133500
C -37.172800 -11.221200 -23.191900
H -37.132400 -11.403400 -24.123100
C -36.347500 -11.605700 -20.958600
C -36.323600 -11.888500 -22.304600
H -35.762000 -12.064100 -20.368000
H -35.721000 -12.545100 -22.635000
H -41.392900 -15.604000 -14.812300
O -40.893700 -15.054300 -15.206300
O -40.098500 -14.803000 -13.134700
C -40.062100 -14.508000 -14.332400
H -39.639700 -13.679200 -16.840300
C -39.110000 -13.529600 -14.872000
C -39.052300 -13.234500 -16.241800
H -38.775400 -13.707900 -12.485900
C -38.213300 -12.880600 -13.997600
O -38.175000 -13.150700 -12.674800
C -38.156300 -12.309300 -16.733200
H -38.115900 -12.127100 -17.664400
C -37.331000 -11.924800 -14.499900
C -37.307100 -11.642000 -15.845900
H -36.745400 -11.466400 -13.909400
H -36.704500 -10.985400 -16.176300
