16
Fragment
H -40.409400 -7.926500 -21.270900
O -39.910300 -8.476200 -21.664900
O -39.115100 -8.727500 -19.593400
C -39.078700 -9.022500 -20.791000
H -38.656200 -9.851300 -23.298900
C -38.126500 -10.000900 -21.330600
C -38.068800 -10.296000 -22.700500
H -37.791900 -9.822600 -18.944500
C -37.229800 -10.649900 -20.456200
O -37.191500 -10.379800 -19.133500
C -37.172800 -11.221200 -23.191900
H -37.132400 -11.403400 -24.123100
C -36.347500 -11.605700 -20.958600
C -36.323600 -11.888500 -22.304600
H -35.762000 -12.064100 -20.368000
H -35.721000 -12.545100 -22.635000
31
Fragment
H -49.842100 -17.174000 -23.968100
C -49.045700 -16.741000 -23.686500
H -48.987900 -17.585800 -21.848300
H -48.749000 -15.706100 -25.414800
C -48.541200 -16.983800 -22.432200
C -48.395000 -15.866100 -24.546800
C -47.379400 -16.346200 -22.021400
C -47.231100 -15.223300 -24.147900
H -47.031600 -16.509000 -21.153400
H -47.025900 -14.177600 -25.913400
C -46.728600 -15.472200 -22.876500
C -46.513100 -14.272200 -25.071200
H -46.450600 -13.380400 -24.646200
H -45.933700 -15.039300 -22.591100
N -45.168900 -14.768200 -25.367500
H -45.032200 -15.637400 -25.363100
O -44.219700 -12.744100 -25.738400
C -44.148000 -13.968200 -25.642000
H -42.862100 -15.247300 -26.657400
C -42.823200 -14.702300 -25.831200
H -42.671000 -15.312200 -25.067300
O -42.461500 -14.096200 -28.616300
N -41.721100 -13.749300 -25.924500
N -41.666200 -13.201600 -28.340000
C -41.259500 -13.027400 -26.976200
O -41.165800 -12.443900 -29.165700
H -41.152600 -13.546000 -23.938300
C -41.048300 -13.263200 -24.839600
N -40.335800 -12.155400 -26.646500
C -40.198700 -12.296100 -25.292600
H -39.600100 -11.795400 -24.749600
47
Fragment
H -40.409400 -7.926500 -21.270900
O -39.910300 -8.476200 -21.664900
O -39.115100 -8.727500 -19.593400
C -39.078700 -9.022500 -20.791000
H -38.656200 -9.851300 -23.298900
C -38.126500 -10.000900 -21.330600
C -38.068800 -10.296000 -22.700500
H -37.791900 -9.822600 -18.944500
C -37.229800 -10.649900 -20.456200
O -37.191500 -10.379800 -19.133500
C -37.172800 -11.221200 -23.191900
H -37.132400 -11.403400 -24.123100
C -36.347500 -11.605700 -20.958600
C -36.323600 -11.888500 -22.304600
H -35.762000 -12.064100 -20.368000
H -35.721000 -12.545100 -22.635000
H -49.842100 -17.174000 -23.968100
C -49.045700 -16.741000 -23.686500
H -48.987900 -17.585800 -21.848300
H -48.749000 -15.706100 -25.414800
C -48.541200 -16.983800 -22.432200
C -48.395000 -15.866100 -24.546800
C -47.379400 -16.346200 -22.021400
C -47.231100 -15.223300 -24.147900
H -47.031600 -16.509000 -21.153400
H -47.025900 -14.177600 -25.913400
C -46.728600 -15.472200 -22.876500
C -46.513100 -14.272200 -25.071200
H -46.450600 -13.380400 -24.646200
H -45.933700 -15.039300 -22.591100
N -45.168900 -14.768200 -25.367500
H -45.032200 -15.637400 -25.363100
O -44.219700 -12.744100 -25.738400
C -44.148000 -13.968200 -25.642000
H -42.862100 -15.247300 -26.657400
C -42.823200 -14.702300 -25.831200
H -42.671000 -15.312200 -25.067300
O -42.461500 -14.096200 -28.616300
N -41.721100 -13.749300 -25.924500
N -41.666200 -13.201600 -28.340000
C -41.259500 -13.027400 -26.976200
O -41.165800 -12.443900 -29.165700
H -41.152600 -13.546000 -23.938300
C -41.048300 -13.263200 -24.839600
N -40.335800 -12.155400 -26.646500
C -40.198700 -12.296100 -25.292600
H -39.600100 -11.795400 -24.749600
