30
Fragment
H -13.808100 -7.959400 -8.660600
O -13.237300 -5.677300 -8.022900
N -13.052900 -7.912500 -8.260100
O -12.902200 -10.159700 -8.364500
C -12.576000 -6.673000 -7.854400
C -12.352000 -9.096500 -8.161700
H -11.386500 -6.972300 -6.267300
C -11.223400 -6.703500 -7.205600
C -10.890800 -9.002900 -7.761300
H -10.864500 -5.844700 -7.301400
H -10.849900 -9.222200 -6.816400
H -10.836700 -7.126300 -9.784500
H -10.589500 -10.858100 -8.580000
N -10.314600 -7.654600 -7.849200
C -10.088200 -10.014900 -8.557500
C -10.015500 -7.231100 -9.241400
N -9.858500 -9.554300 -9.939100
H -9.676300 -11.291100 -10.755800
H -9.542200 -6.313300 -9.207700
C -9.154500 -8.249600 -9.933800
C -9.126800 -10.576800 -10.670600
H -8.977700 -7.977000 -10.853000
H -8.953400 -10.234200 -11.532900
C -8.796200 -10.377200 -7.844500
O -8.662300 -10.318000 -6.647900
H -8.227700 -8.308400 -9.470000
C -7.852500 -11.023000 -10.004600
N -7.769300 -10.820800 -8.657900
H -7.004900 -11.049500 -8.293800
O -6.935400 -11.538900 -10.617100
30
Fragment
O -18.532700 -5.765800 -9.205700
H -18.463300 -6.255200 -11.528900
N -17.698800 -6.483900 -11.164800
C -17.615600 -6.281700 -9.818200
H -17.240400 -8.996200 -10.352800
O -16.805800 -6.986600 -13.174900
C -16.671900 -6.927400 -11.978200
H -16.514700 -7.070400 -8.289900
H -16.490400 -9.327700 -8.969800
C -16.341300 -6.727800 -9.152200
C -16.313700 -9.055000 -9.888900
H -15.926000 -10.991300 -10.615100
H -15.791900 -6.013500 -9.066900
N -15.609600 -7.750300 -9.883600
C -15.452600 -10.073600 -10.581400
C -15.380000 -7.289700 -11.265300
N -15.153500 -9.650100 -11.973600
H -14.878600 -6.446500 -11.242800
H -14.631500 -10.178400 -10.038200
H -14.618200 -8.082400 -13.006400
H -14.603700 -11.460000 -12.521400
C -14.577400 -8.301700 -12.061500
C -14.244800 -10.601100 -12.617200
H -14.081700 -10.332400 -13.555500
C -13.116100 -8.208100 -11.661100
C -12.892200 -10.631700 -11.968300
O -12.565900 -7.145000 -11.458200
N -12.415200 -9.392200 -11.562600
O -12.230800 -11.627300 -11.799800
H -11.660000 -9.345300 -11.162200
60
Fragment
H -13.808100 -7.959400 -8.660600
O -13.237300 -5.677300 -8.022900
N -13.052900 -7.912500 -8.260100
O -12.902200 -10.159700 -8.364500
C -12.576000 -6.673000 -7.854400
C -12.352000 -9.096500 -8.161700
H -11.386500 -6.972300 -6.267300
C -11.223400 -6.703500 -7.205600
C -10.890800 -9.002900 -7.761300
H -10.864500 -5.844700 -7.301400
H -10.849900 -9.222200 -6.816400
H -10.836700 -7.126300 -9.784500
H -10.589500 -10.858100 -8.580000
N -10.314600 -7.654600 -7.849200
C -10.088200 -10.014900 -8.557500
C -10.015500 -7.231100 -9.241400
N -9.858500 -9.554300 -9.939100
H -9.676300 -11.291100 -10.755800
H -9.542200 -6.313300 -9.207700
C -9.154500 -8.249600 -9.933800
C -9.126800 -10.576800 -10.670600
H -8.977700 -7.977000 -10.853000
H -8.953400 -10.234200 -11.532900
C -8.796200 -10.377200 -7.844500
O -8.662300 -10.318000 -6.647900
H -8.227700 -8.308400 -9.470000
C -7.852500 -11.023000 -10.004600
N -7.769300 -10.820800 -8.657900
H -7.004900 -11.049500 -8.293800
O -6.935400 -11.538900 -10.617100
O -18.532700 -5.765800 -9.205700
H -18.463300 -6.255200 -11.528900
N -17.698800 -6.483900 -11.164800
C -17.615600 -6.281700 -9.818200
H -17.240400 -8.996200 -10.352800
O -16.805800 -6.986600 -13.174900
C -16.671900 -6.927400 -11.978200
H -16.514700 -7.070400 -8.289900
H -16.490400 -9.327700 -8.969800
C -16.341300 -6.727800 -9.152200
C -16.313700 -9.055000 -9.888900
H -15.926000 -10.991300 -10.615100
H -15.791900 -6.013500 -9.066900
N -15.609600 -7.750300 -9.883600
C -15.452600 -10.073600 -10.581400
C -15.380000 -7.289700 -11.265300
N -15.153500 -9.650100 -11.973600
H -14.878600 -6.446500 -11.242800
H -14.631500 -10.178400 -10.038200
H -14.618200 -8.082400 -13.006400
H -14.603700 -11.460000 -12.521400
C -14.577400 -8.301700 -12.061500
C -14.244800 -10.601100 -12.617200
H -14.081700 -10.332400 -13.555500
C -13.116100 -8.208100 -11.661100
C -12.892200 -10.631700 -11.968300
O -12.565900 -7.145000 -11.458200
N -12.415200 -9.392200 -11.562600
O -12.230800 -11.627300 -11.799800
H -11.660000 -9.345300 -11.162200
