30
Fragment
H -13.808100 -7.959400 -8.660600
O -13.237300 -5.677300 -8.022900
N -13.052900 -7.912500 -8.260100
O -12.902200 -10.159700 -8.364500
C -12.576000 -6.673000 -7.854400
C -12.352000 -9.096500 -8.161700
H -11.386500 -6.972300 -6.267300
C -11.223400 -6.703500 -7.205600
C -10.890800 -9.002900 -7.761300
H -10.864500 -5.844700 -7.301400
H -10.849900 -9.222200 -6.816400
H -10.836700 -7.126300 -9.784500
H -10.589500 -10.858100 -8.580000
N -10.314600 -7.654600 -7.849200
C -10.088200 -10.014900 -8.557500
C -10.015500 -7.231100 -9.241400
N -9.858500 -9.554300 -9.939100
H -9.676300 -11.291100 -10.755800
H -9.542200 -6.313300 -9.207700
C -9.154500 -8.249600 -9.933800
C -9.126800 -10.576800 -10.670600
H -8.977700 -7.977000 -10.853000
H -8.953400 -10.234200 -11.532900
C -8.796200 -10.377200 -7.844500
O -8.662300 -10.318000 -6.647900
H -8.227700 -8.308400 -9.470000
C -7.852500 -11.023000 -10.004600
N -7.769300 -10.820800 -8.657900
H -7.004900 -11.049500 -8.293800
O -6.935400 -11.538900 -10.617100
30
Fragment
O -18.560200 -7.525700 -2.598100
H -18.490700 -8.015100 -4.921300
N -17.726300 -8.243800 -4.557300
C -17.643100 -8.041600 -3.210600
H -17.267900 -10.756100 -3.745200
O -16.833300 -8.746500 -6.567300
C -16.699400 -8.687300 -5.370600
H -16.542200 -8.830300 -1.682300
H -16.517900 -11.087600 -2.362200
C -16.368800 -8.487700 -2.544600
C -16.341100 -10.814900 -3.281300
H -15.953400 -12.751200 -4.007500
H -15.819300 -7.773400 -2.459300
N -15.637100 -9.510200 -3.276000
C -15.480100 -11.833500 -3.973800
C -15.407400 -9.049600 -4.657700
N -15.181000 -11.410000 -5.366000
H -14.906100 -8.206400 -4.635200
H -14.658900 -11.938300 -3.430700
H -14.645700 -9.842300 -6.398800
H -14.631100 -13.219900 -5.913800
C -14.604800 -10.061600 -5.453900
C -14.272200 -12.361000 -6.009600
H -14.109100 -12.092300 -6.947900
C -13.143600 -9.968000 -5.053500
C -12.919600 -12.391600 -5.360700
O -12.593300 -8.904900 -4.850600
N -12.442700 -11.152100 -4.955000
O -12.258300 -13.387200 -5.192200
H -11.687500 -11.105200 -4.554600
60
Fragment
H -13.808100 -7.959400 -8.660600
O -13.237300 -5.677300 -8.022900
N -13.052900 -7.912500 -8.260100
O -12.902200 -10.159700 -8.364500
C -12.576000 -6.673000 -7.854400
C -12.352000 -9.096500 -8.161700
H -11.386500 -6.972300 -6.267300
C -11.223400 -6.703500 -7.205600
C -10.890800 -9.002900 -7.761300
H -10.864500 -5.844700 -7.301400
H -10.849900 -9.222200 -6.816400
H -10.836700 -7.126300 -9.784500
H -10.589500 -10.858100 -8.580000
N -10.314600 -7.654600 -7.849200
C -10.088200 -10.014900 -8.557500
C -10.015500 -7.231100 -9.241400
N -9.858500 -9.554300 -9.939100
H -9.676300 -11.291100 -10.755800
H -9.542200 -6.313300 -9.207700
C -9.154500 -8.249600 -9.933800
C -9.126800 -10.576800 -10.670600
H -8.977700 -7.977000 -10.853000
H -8.953400 -10.234200 -11.532900
C -8.796200 -10.377200 -7.844500
O -8.662300 -10.318000 -6.647900
H -8.227700 -8.308400 -9.470000
C -7.852500 -11.023000 -10.004600
N -7.769300 -10.820800 -8.657900
H -7.004900 -11.049500 -8.293800
O -6.935400 -11.538900 -10.617100
O -18.560200 -7.525700 -2.598100
H -18.490700 -8.015100 -4.921300
N -17.726300 -8.243800 -4.557300
C -17.643100 -8.041600 -3.210600
H -17.267900 -10.756100 -3.745200
O -16.833300 -8.746500 -6.567300
C -16.699400 -8.687300 -5.370600
H -16.542200 -8.830300 -1.682300
H -16.517900 -11.087600 -2.362200
C -16.368800 -8.487700 -2.544600
C -16.341100 -10.814900 -3.281300
H -15.953400 -12.751200 -4.007500
H -15.819300 -7.773400 -2.459300
N -15.637100 -9.510200 -3.276000
C -15.480100 -11.833500 -3.973800
C -15.407400 -9.049600 -4.657700
N -15.181000 -11.410000 -5.366000
H -14.906100 -8.206400 -4.635200
H -14.658900 -11.938300 -3.430700
H -14.645700 -9.842300 -6.398800
H -14.631100 -13.219900 -5.913800
C -14.604800 -10.061600 -5.453900
C -14.272200 -12.361000 -6.009600
H -14.109100 -12.092300 -6.947900
C -13.143600 -9.968000 -5.053500
C -12.919600 -12.391600 -5.360700
O -12.593300 -8.904900 -4.850600
N -12.442700 -11.152100 -4.955000
O -12.258300 -13.387200 -5.192200
H -11.687500 -11.105200 -4.554600
