30
Fragment
H -13.808100 -7.959400 -8.660600
O -13.237300 -5.677300 -8.022900
N -13.052900 -7.912500 -8.260100
O -12.902200 -10.159700 -8.364500
C -12.576000 -6.673000 -7.854400
C -12.352000 -9.096500 -8.161700
H -11.386500 -6.972300 -6.267300
C -11.223400 -6.703500 -7.205600
C -10.890800 -9.002900 -7.761300
H -10.864500 -5.844700 -7.301400
H -10.849900 -9.222200 -6.816400
H -10.836700 -7.126300 -9.784500
H -10.589500 -10.858100 -8.580000
N -10.314600 -7.654600 -7.849200
C -10.088200 -10.014900 -8.557500
C -10.015500 -7.231100 -9.241400
N -9.858500 -9.554300 -9.939100
H -9.676300 -11.291100 -10.755800
H -9.542200 -6.313300 -9.207700
C -9.154500 -8.249600 -9.933800
C -9.126800 -10.576800 -10.670600
H -8.977700 -7.977000 -10.853000
H -8.953400 -10.234200 -11.532900
C -8.796200 -10.377200 -7.844500
O -8.662300 -10.318000 -6.647900
H -8.227700 -8.308400 -9.470000
C -7.852500 -11.023000 -10.004600
N -7.769300 -10.820800 -8.657900
H -7.004900 -11.049500 -8.293800
O -6.935400 -11.538900 -10.617100
30
Fragment
H -17.004700 -2.191200 -2.053000
O -16.433900 0.090900 -1.415300
N -16.249500 -2.144300 -1.652600
O -16.098900 -4.391400 -1.757000
C -15.772600 -0.904800 -1.246900
C -15.548700 -3.328300 -1.554100
H -14.583100 -1.204000 0.340300
C -14.420000 -0.935300 -0.598000
C -14.087400 -3.234700 -1.153700
H -14.061100 -0.076400 -0.693800
H -14.046500 -3.454000 -0.208800
H -14.033300 -1.358100 -3.176900
H -13.786200 -5.089900 -1.972400
N -13.511300 -1.886300 -1.241600
C -13.284800 -4.246700 -1.949900
C -13.212100 -1.462800 -2.633800
N -13.055100 -3.786100 -3.331500
H -12.872900 -5.522900 -4.148200
H -12.738800 -0.545100 -2.600100
C -12.351100 -2.481400 -3.326300
C -12.323400 -4.808600 -4.063000
H -12.174300 -2.208700 -4.245400
H -12.150000 -4.466000 -4.925300
C -11.992800 -4.609000 -1.236900
O -11.858900 -4.549800 -0.040300
H -11.424300 -2.540200 -2.862400
C -11.049100 -5.254700 -3.397000
N -10.966000 -5.052600 -2.050300
H -10.201500 -5.281300 -1.686300
O -10.132000 -5.770600 -4.009500
60
Fragment
H -13.808100 -7.959400 -8.660600
O -13.237300 -5.677300 -8.022900
N -13.052900 -7.912500 -8.260100
O -12.902200 -10.159700 -8.364500
C -12.576000 -6.673000 -7.854400
C -12.352000 -9.096500 -8.161700
H -11.386500 -6.972300 -6.267300
C -11.223400 -6.703500 -7.205600
C -10.890800 -9.002900 -7.761300
H -10.864500 -5.844700 -7.301400
H -10.849900 -9.222200 -6.816400
H -10.836700 -7.126300 -9.784500
H -10.589500 -10.858100 -8.580000
N -10.314600 -7.654600 -7.849200
C -10.088200 -10.014900 -8.557500
C -10.015500 -7.231100 -9.241400
N -9.858500 -9.554300 -9.939100
H -9.676300 -11.291100 -10.755800
H -9.542200 -6.313300 -9.207700
C -9.154500 -8.249600 -9.933800
C -9.126800 -10.576800 -10.670600
H -8.977700 -7.977000 -10.853000
H -8.953400 -10.234200 -11.532900
C -8.796200 -10.377200 -7.844500
O -8.662300 -10.318000 -6.647900
H -8.227700 -8.308400 -9.470000
C -7.852500 -11.023000 -10.004600
N -7.769300 -10.820800 -8.657900
H -7.004900 -11.049500 -8.293800
O -6.935400 -11.538900 -10.617100
H -17.004700 -2.191200 -2.053000
O -16.433900 0.090900 -1.415300
N -16.249500 -2.144300 -1.652600
O -16.098900 -4.391400 -1.757000
C -15.772600 -0.904800 -1.246900
C -15.548700 -3.328300 -1.554100
H -14.583100 -1.204000 0.340300
C -14.420000 -0.935300 -0.598000
C -14.087400 -3.234700 -1.153700
H -14.061100 -0.076400 -0.693800
H -14.046500 -3.454000 -0.208800
H -14.033300 -1.358100 -3.176900
H -13.786200 -5.089900 -1.972400
N -13.511300 -1.886300 -1.241600
C -13.284800 -4.246700 -1.949900
C -13.212100 -1.462800 -2.633800
N -13.055100 -3.786100 -3.331500
H -12.872900 -5.522900 -4.148200
H -12.738800 -0.545100 -2.600100
C -12.351100 -2.481400 -3.326300
C -12.323400 -4.808600 -4.063000
H -12.174300 -2.208700 -4.245400
H -12.150000 -4.466000 -4.925300
C -11.992800 -4.609000 -1.236900
O -11.858900 -4.549800 -0.040300
H -11.424300 -2.540200 -2.862400
C -11.049100 -5.254700 -3.397000
N -10.966000 -5.052600 -2.050300
H -10.201500 -5.281300 -1.686300
O -10.132000 -5.770600 -4.009500
