20
Fragment
N -19.981400 -21.125700 -10.480200
N -19.981400 -16.911300 -10.480200
C -19.308200 -20.223000 -10.311200
C -19.308200 -17.814000 -10.311200
C -18.560200 -19.018500 -10.073900
C -17.229600 -19.018500 -9.740800
H -17.047000 -21.021800 -9.566700
H -17.047000 -17.015200 -9.566700
C -16.509300 -20.249600 -9.560500
C -16.509300 -17.787400 -9.560500
C -15.207000 -20.249600 -9.222400
C -15.207000 -17.787400 -9.222400
H -14.669300 -21.021800 -9.216100
H -14.669300 -17.015200 -9.216100
C -14.486700 -19.018500 -9.042100
C -13.156100 -19.018500 -8.709000
C -12.408100 -20.223000 -8.471700
C -12.408100 -17.814000 -8.471700
N -11.734900 -21.125700 -8.302700
N -11.734900 -16.911300 -8.302700
26
Fragment
H -21.875700 -19.766600 -7.406700
H -21.875700 -18.270400 -7.406700
N -21.462900 -19.018500 -7.543200
C -20.128100 -19.018500 -7.198200
H -19.968600 -20.971100 -7.218900
H -19.968600 -17.065900 -7.218900
C -19.461400 -20.204000 -6.986600
C -19.461400 -17.833000 -6.986600
C -18.122500 -20.197600 -6.634100
C -18.122500 -17.839400 -6.634100
H -17.684900 -20.983700 -6.605300
H -17.684900 -17.053300 -6.605300
C -17.410800 -19.018500 -6.448800
C -15.964400 -19.018500 -6.073100
H -15.690300 -20.983700 -5.916600
H -15.690300 -17.053300 -5.916600
C -15.252700 -20.197600 -5.887800
C -15.252700 -17.839400 -5.887800
C -13.913900 -20.204000 -5.535300
C -13.913900 -17.833000 -5.535300
H -13.406700 -20.971100 -5.303000
H -13.406700 -17.065900 -5.303000
C -13.247100 -19.018500 -5.323700
N -11.912300 -19.018500 -4.978700
H -11.499500 -19.766600 -5.115200
H -11.499500 -18.270400 -5.115200
46
Fragment
N -19.981400 -21.125700 -10.480200
N -19.981400 -16.911300 -10.480200
C -19.308200 -20.223000 -10.311200
C -19.308200 -17.814000 -10.311200
C -18.560200 -19.018500 -10.073900
C -17.229600 -19.018500 -9.740800
H -17.047000 -21.021800 -9.566700
H -17.047000 -17.015200 -9.566700
C -16.509300 -20.249600 -9.560500
C -16.509300 -17.787400 -9.560500
C -15.207000 -20.249600 -9.222400
C -15.207000 -17.787400 -9.222400
H -14.669300 -21.021800 -9.216100
H -14.669300 -17.015200 -9.216100
C -14.486700 -19.018500 -9.042100
C -13.156100 -19.018500 -8.709000
C -12.408100 -20.223000 -8.471700
C -12.408100 -17.814000 -8.471700
N -11.734900 -21.125700 -8.302700
N -11.734900 -16.911300 -8.302700
H -21.875700 -19.766600 -7.406700
H -21.875700 -18.270400 -7.406700
N -21.462900 -19.018500 -7.543200
C -20.128100 -19.018500 -7.198200
H -19.968600 -20.971100 -7.218900
H -19.968600 -17.065900 -7.218900
C -19.461400 -20.204000 -6.986600
C -19.461400 -17.833000 -6.986600
C -18.122500 -20.197600 -6.634100
C -18.122500 -17.839400 -6.634100
H -17.684900 -20.983700 -6.605300
H -17.684900 -17.053300 -6.605300
C -17.410800 -19.018500 -6.448800
C -15.964400 -19.018500 -6.073100
H -15.690300 -20.983700 -5.916600
H -15.690300 -17.053300 -5.916600
C -15.252700 -20.197600 -5.887800
C -15.252700 -17.839400 -5.887800
C -13.913900 -20.204000 -5.535300
C -13.913900 -17.833000 -5.535300
H -13.406700 -20.971100 -5.303000
H -13.406700 -17.065900 -5.303000
C -13.247100 -19.018500 -5.323700
N -11.912300 -19.018500 -4.978700
H -11.499500 -19.766600 -5.115200
H -11.499500 -18.270400 -5.115200
