20
Fragment
N -19.981400 -21.125700 -10.480200
N -19.981400 -16.911300 -10.480200
C -19.308200 -20.223000 -10.311200
C -19.308200 -17.814000 -10.311200
C -18.560200 -19.018500 -10.073900
C -17.229600 -19.018500 -9.740800
H -17.047000 -21.021800 -9.566700
H -17.047000 -17.015200 -9.566700
C -16.509300 -20.249600 -9.560500
C -16.509300 -17.787400 -9.560500
C -15.207000 -20.249600 -9.222400
C -15.207000 -17.787400 -9.222400
H -14.669300 -21.021800 -9.216100
H -14.669300 -17.015200 -9.216100
C -14.486700 -19.018500 -9.042100
C -13.156100 -19.018500 -8.709000
C -12.408100 -20.223000 -8.471700
C -12.408100 -17.814000 -8.471700
N -11.734900 -21.125700 -8.302700
N -11.734900 -16.911300 -8.302700
26
Fragment
H -32.447900 -19.766600 -13.667700
H -32.447900 -18.270400 -13.667700
N -32.035000 -19.018500 -13.804200
C -30.700200 -19.018500 -13.459200
H -30.540700 -20.971100 -13.479800
H -30.540700 -17.065900 -13.479800
C -30.033500 -20.204000 -13.247600
C -30.033500 -17.833000 -13.247600
C -28.694600 -20.197600 -12.895100
C -28.694600 -17.839400 -12.895100
H -28.257000 -20.983700 -12.866300
H -28.257000 -17.053300 -12.866300
C -27.982900 -19.018500 -12.709700
C -26.536500 -19.018500 -12.334100
H -26.262400 -20.983700 -12.177600
H -26.262400 -17.053300 -12.177600
C -25.824800 -20.197600 -12.148800
C -25.824800 -17.839400 -12.148800
C -24.486000 -20.204000 -11.796300
C -24.486000 -17.833000 -11.796300
H -23.978800 -20.971100 -11.564000
H -23.978800 -17.065900 -11.564000
C -23.819200 -19.018500 -11.584700
N -22.484500 -19.018500 -11.239700
H -22.071600 -19.766600 -11.376200
H -22.071600 -18.270400 -11.376200
46
Fragment
N -19.981400 -21.125700 -10.480200
N -19.981400 -16.911300 -10.480200
C -19.308200 -20.223000 -10.311200
C -19.308200 -17.814000 -10.311200
C -18.560200 -19.018500 -10.073900
C -17.229600 -19.018500 -9.740800
H -17.047000 -21.021800 -9.566700
H -17.047000 -17.015200 -9.566700
C -16.509300 -20.249600 -9.560500
C -16.509300 -17.787400 -9.560500
C -15.207000 -20.249600 -9.222400
C -15.207000 -17.787400 -9.222400
H -14.669300 -21.021800 -9.216100
H -14.669300 -17.015200 -9.216100
C -14.486700 -19.018500 -9.042100
C -13.156100 -19.018500 -8.709000
C -12.408100 -20.223000 -8.471700
C -12.408100 -17.814000 -8.471700
N -11.734900 -21.125700 -8.302700
N -11.734900 -16.911300 -8.302700
H -32.447900 -19.766600 -13.667700
H -32.447900 -18.270400 -13.667700
N -32.035000 -19.018500 -13.804200
C -30.700200 -19.018500 -13.459200
H -30.540700 -20.971100 -13.479800
H -30.540700 -17.065900 -13.479800
C -30.033500 -20.204000 -13.247600
C -30.033500 -17.833000 -13.247600
C -28.694600 -20.197600 -12.895100
C -28.694600 -17.839400 -12.895100
H -28.257000 -20.983700 -12.866300
H -28.257000 -17.053300 -12.866300
C -27.982900 -19.018500 -12.709700
C -26.536500 -19.018500 -12.334100
H -26.262400 -20.983700 -12.177600
H -26.262400 -17.053300 -12.177600
C -25.824800 -20.197600 -12.148800
C -25.824800 -17.839400 -12.148800
C -24.486000 -20.204000 -11.796300
C -24.486000 -17.833000 -11.796300
H -23.978800 -20.971100 -11.564000
H -23.978800 -17.065900 -11.564000
C -23.819200 -19.018500 -11.584700
N -22.484500 -19.018500 -11.239700
H -22.071600 -19.766600 -11.376200
H -22.071600 -18.270400 -11.376200
