20
Fragment
N -19.981400 -21.125700 -10.480200
N -19.981400 -16.911300 -10.480200
C -19.308200 -20.223000 -10.311200
C -19.308200 -17.814000 -10.311200
C -18.560200 -19.018500 -10.073900
C -17.229600 -19.018500 -9.740800
H -17.047000 -21.021800 -9.566700
H -17.047000 -17.015200 -9.566700
C -16.509300 -20.249600 -9.560500
C -16.509300 -17.787400 -9.560500
C -15.207000 -20.249600 -9.222400
C -15.207000 -17.787400 -9.222400
H -14.669300 -21.021800 -9.216100
H -14.669300 -17.015200 -9.216100
C -14.486700 -19.018500 -9.042100
C -13.156100 -19.018500 -8.709000
C -12.408100 -20.223000 -8.471700
C -12.408100 -17.814000 -8.471700
N -11.734900 -21.125700 -8.302700
N -11.734900 -16.911300 -8.302700
26
Fragment
H -15.760200 -13.427100 -7.406700
H -15.760200 -11.930900 -7.406700
N -15.347400 -12.679000 -7.543200
C -14.012600 -12.679000 -7.198200
H -13.853100 -14.631600 -7.218900
H -13.853100 -10.726400 -7.218900
C -13.345900 -13.864500 -6.986600
C -13.345900 -11.493500 -6.986600
C -12.007000 -13.858100 -6.634100
C -12.007000 -11.499900 -6.634100
H -11.569400 -14.644200 -6.605300
H -11.569400 -10.713800 -6.605300
C -11.295300 -12.679000 -6.448800
C -9.848900 -12.679000 -6.073100
H -9.574800 -14.644200 -5.916600
H -9.574800 -10.713800 -5.916600
C -9.137200 -13.858100 -5.887800
C -9.137200 -11.499900 -5.887800
C -7.798400 -13.864500 -5.535300
C -7.798400 -11.493500 -5.535300
H -7.291200 -14.631600 -5.303000
H -7.291200 -10.726400 -5.303000
C -7.131600 -12.679000 -5.323700
N -5.796800 -12.679000 -4.978700
H -5.384000 -13.427100 -5.115200
H -5.384000 -11.930900 -5.115200
46
Fragment
N -19.981400 -21.125700 -10.480200
N -19.981400 -16.911300 -10.480200
C -19.308200 -20.223000 -10.311200
C -19.308200 -17.814000 -10.311200
C -18.560200 -19.018500 -10.073900
C -17.229600 -19.018500 -9.740800
H -17.047000 -21.021800 -9.566700
H -17.047000 -17.015200 -9.566700
C -16.509300 -20.249600 -9.560500
C -16.509300 -17.787400 -9.560500
C -15.207000 -20.249600 -9.222400
C -15.207000 -17.787400 -9.222400
H -14.669300 -21.021800 -9.216100
H -14.669300 -17.015200 -9.216100
C -14.486700 -19.018500 -9.042100
C -13.156100 -19.018500 -8.709000
C -12.408100 -20.223000 -8.471700
C -12.408100 -17.814000 -8.471700
N -11.734900 -21.125700 -8.302700
N -11.734900 -16.911300 -8.302700
H -15.760200 -13.427100 -7.406700
H -15.760200 -11.930900 -7.406700
N -15.347400 -12.679000 -7.543200
C -14.012600 -12.679000 -7.198200
H -13.853100 -14.631600 -7.218900
H -13.853100 -10.726400 -7.218900
C -13.345900 -13.864500 -6.986600
C -13.345900 -11.493500 -6.986600
C -12.007000 -13.858100 -6.634100
C -12.007000 -11.499900 -6.634100
H -11.569400 -14.644200 -6.605300
H -11.569400 -10.713800 -6.605300
C -11.295300 -12.679000 -6.448800
C -9.848900 -12.679000 -6.073100
H -9.574800 -14.644200 -5.916600
H -9.574800 -10.713800 -5.916600
C -9.137200 -13.858100 -5.887800
C -9.137200 -11.499900 -5.887800
C -7.798400 -13.864500 -5.535300
C -7.798400 -11.493500 -5.535300
H -7.291200 -14.631600 -5.303000
H -7.291200 -10.726400 -5.303000
C -7.131600 -12.679000 -5.323700
N -5.796800 -12.679000 -4.978700
H -5.384000 -13.427100 -5.115200
H -5.384000 -11.930900 -5.115200
