30
Fragment
H -15.260700 -11.019100 -22.537200
H -15.244300 -11.633700 -20.219000
C -14.948300 -11.874500 -22.218400
C -14.926800 -12.235400 -20.893000
C -14.498800 -12.814900 -23.152400
H -14.488600 -13.691700 -19.539500
C -14.483700 -13.483800 -20.481800
N -14.397700 -12.729200 -24.544100
C -14.058500 -14.056200 -22.718200
C -14.045400 -14.425600 -21.377000
C -13.925200 -13.887500 -24.905400
H -13.740700 -15.299600 -21.096100
H -13.707500 -14.192000 -25.783000
N -13.689900 -14.739300 -23.864600
H -13.577000 -16.628700 -23.311600
H -13.226800 -16.442900 -24.830200
C -13.135900 -16.062800 -23.935300
N -11.724800 -16.108400 -23.596500
N -11.346600 -16.250000 -22.302400
H -11.261200 -15.828400 -26.377200
C -10.633100 -16.023500 -24.404300
C -10.458800 -15.891300 -25.783000
N -10.051600 -16.259300 -22.251400
C -9.549900 -16.127800 -23.530400
C -9.177700 -15.891300 -26.226400
H -8.986600 -15.771200 -27.132600
C -8.251800 -16.118500 -24.011800
C -8.073000 -16.004900 -25.358400
H -7.522400 -16.185700 -23.444300
H -7.182800 -16.007000 -25.754600
30
Fragment
H -22.453500 -21.137900 -14.636100
H -22.437200 -20.523300 -12.317900
C -22.141100 -20.282500 -14.317200
C -22.119600 -19.921600 -12.991900
C -21.691600 -19.342100 -15.251300
H -21.681500 -18.465300 -11.638400
C -21.676600 -18.673200 -12.580700
N -21.590500 -19.427800 -16.643000
C -21.251300 -18.100800 -14.817000
C -21.238200 -17.731400 -13.475900
C -21.118000 -18.269500 -17.004200
H -20.933600 -16.857400 -13.194900
H -20.900300 -17.965000 -17.881900
N -20.882700 -17.417700 -15.963500
H -20.769800 -15.528300 -15.410400
H -20.419600 -15.714100 -16.929000
C -20.328700 -16.094200 -16.034100
N -18.917600 -16.048600 -15.695300
N -18.539400 -15.907000 -14.401300
H -18.454100 -16.328600 -18.476100
C -17.825900 -16.133500 -16.503100
C -17.651700 -16.265700 -17.881900
N -17.244400 -15.897700 -14.350200
C -16.742700 -16.029200 -15.629300
C -16.370600 -16.265700 -18.325300
H -16.179500 -16.385800 -19.231400
C -15.444600 -16.038500 -16.110600
C -15.265900 -16.152100 -17.457300
H -14.715300 -15.971300 -15.543100
H -14.375700 -16.150000 -17.853400
60
Fragment
H -15.260700 -11.019100 -22.537200
H -15.244300 -11.633700 -20.219000
C -14.948300 -11.874500 -22.218400
C -14.926800 -12.235400 -20.893000
C -14.498800 -12.814900 -23.152400
H -14.488600 -13.691700 -19.539500
C -14.483700 -13.483800 -20.481800
N -14.397700 -12.729200 -24.544100
C -14.058500 -14.056200 -22.718200
C -14.045400 -14.425600 -21.377000
C -13.925200 -13.887500 -24.905400
H -13.740700 -15.299600 -21.096100
H -13.707500 -14.192000 -25.783000
N -13.689900 -14.739300 -23.864600
H -13.577000 -16.628700 -23.311600
H -13.226800 -16.442900 -24.830200
C -13.135900 -16.062800 -23.935300
N -11.724800 -16.108400 -23.596500
N -11.346600 -16.250000 -22.302400
H -11.261200 -15.828400 -26.377200
C -10.633100 -16.023500 -24.404300
C -10.458800 -15.891300 -25.783000
N -10.051600 -16.259300 -22.251400
C -9.549900 -16.127800 -23.530400
C -9.177700 -15.891300 -26.226400
H -8.986600 -15.771200 -27.132600
C -8.251800 -16.118500 -24.011800
C -8.073000 -16.004900 -25.358400
H -7.522400 -16.185700 -23.444300
H -7.182800 -16.007000 -25.754600
H -22.453500 -21.137900 -14.636100
H -22.437200 -20.523300 -12.317900
C -22.141100 -20.282500 -14.317200
C -22.119600 -19.921600 -12.991900
C -21.691600 -19.342100 -15.251300
H -21.681500 -18.465300 -11.638400
C -21.676600 -18.673200 -12.580700
N -21.590500 -19.427800 -16.643000
C -21.251300 -18.100800 -14.817000
C -21.238200 -17.731400 -13.475900
C -21.118000 -18.269500 -17.004200
H -20.933600 -16.857400 -13.194900
H -20.900300 -17.965000 -17.881900
N -20.882700 -17.417700 -15.963500
H -20.769800 -15.528300 -15.410400
H -20.419600 -15.714100 -16.929000
C -20.328700 -16.094200 -16.034100
N -18.917600 -16.048600 -15.695300
N -18.539400 -15.907000 -14.401300
H -18.454100 -16.328600 -18.476100
C -17.825900 -16.133500 -16.503100
C -17.651700 -16.265700 -17.881900
N -17.244400 -15.897700 -14.350200
C -16.742700 -16.029200 -15.629300
C -16.370600 -16.265700 -18.325300
H -16.179500 -16.385800 -19.231400
C -15.444600 -16.038500 -16.110600
C -15.265900 -16.152100 -17.457300
H -14.715300 -15.971300 -15.543100
H -14.375700 -16.150000 -17.853400
