30
Fragment
H -15.260700 -11.019100 -22.537200
H -15.244300 -11.633700 -20.219000
C -14.948300 -11.874500 -22.218400
C -14.926800 -12.235400 -20.893000
C -14.498800 -12.814900 -23.152400
H -14.488600 -13.691700 -19.539500
C -14.483700 -13.483800 -20.481800
N -14.397700 -12.729200 -24.544100
C -14.058500 -14.056200 -22.718200
C -14.045400 -14.425600 -21.377000
C -13.925200 -13.887500 -24.905400
H -13.740700 -15.299600 -21.096100
H -13.707500 -14.192000 -25.783000
N -13.689900 -14.739300 -23.864600
H -13.577000 -16.628700 -23.311600
H -13.226800 -16.442900 -24.830200
C -13.135900 -16.062800 -23.935300
N -11.724800 -16.108400 -23.596500
N -11.346600 -16.250000 -22.302400
H -11.261200 -15.828400 -26.377200
C -10.633100 -16.023500 -24.404300
C -10.458800 -15.891300 -25.783000
N -10.051600 -16.259300 -22.251400
C -9.549900 -16.127800 -23.530400
C -9.177700 -15.891300 -26.226400
H -8.986600 -15.771200 -27.132600
C -8.251800 -16.118500 -24.011800
C -8.073000 -16.004900 -25.358400
H -7.522400 -16.185700 -23.444300
H -7.182800 -16.007000 -25.754600
30
Fragment
H -24.282100 -5.431000 -21.652300
H -23.942500 -5.252300 -23.962600
C -23.391900 -5.433100 -22.048500
C -23.213200 -5.319500 -23.395100
H -22.478300 -5.666800 -20.274400
C -22.287200 -5.546700 -21.180500
C -21.915100 -5.310200 -23.876500
N -21.413400 -5.178700 -25.155500
C -21.006100 -5.546700 -21.623900
C -20.831900 -5.414500 -23.002600
H -20.203700 -5.609600 -21.029700
N -20.118400 -5.188000 -25.104500
N -19.740200 -5.329600 -23.810400
C -18.329100 -5.375200 -23.471600
H -18.238200 -4.995100 -22.576700
H -17.888000 -4.809300 -24.095300
N -17.775100 -6.698700 -23.542300
H -17.757500 -7.246000 -21.623900
H -17.724200 -6.138400 -26.310800
C -17.539800 -7.550500 -22.501500
C -17.419600 -7.012400 -26.029900
C -17.406500 -7.381800 -24.688700
N -17.067300 -8.708800 -22.862800
C -16.981200 -7.954200 -26.925100
H -16.976400 -7.746300 -27.867400
C -16.966200 -8.623100 -24.254500
C -16.538200 -9.202600 -26.513900
C -16.516700 -9.563500 -25.188600
H -16.220700 -9.804300 -27.187900
H -16.204300 -10.418900 -24.869700
60
Fragment
H -15.260700 -11.019100 -22.537200
H -15.244300 -11.633700 -20.219000
C -14.948300 -11.874500 -22.218400
C -14.926800 -12.235400 -20.893000
C -14.498800 -12.814900 -23.152400
H -14.488600 -13.691700 -19.539500
C -14.483700 -13.483800 -20.481800
N -14.397700 -12.729200 -24.544100
C -14.058500 -14.056200 -22.718200
C -14.045400 -14.425600 -21.377000
C -13.925200 -13.887500 -24.905400
H -13.740700 -15.299600 -21.096100
H -13.707500 -14.192000 -25.783000
N -13.689900 -14.739300 -23.864600
H -13.577000 -16.628700 -23.311600
H -13.226800 -16.442900 -24.830200
C -13.135900 -16.062800 -23.935300
N -11.724800 -16.108400 -23.596500
N -11.346600 -16.250000 -22.302400
H -11.261200 -15.828400 -26.377200
C -10.633100 -16.023500 -24.404300
C -10.458800 -15.891300 -25.783000
N -10.051600 -16.259300 -22.251400
C -9.549900 -16.127800 -23.530400
C -9.177700 -15.891300 -26.226400
H -8.986600 -15.771200 -27.132600
C -8.251800 -16.118500 -24.011800
C -8.073000 -16.004900 -25.358400
H -7.522400 -16.185700 -23.444300
H -7.182800 -16.007000 -25.754600
H -24.282100 -5.431000 -21.652300
H -23.942500 -5.252300 -23.962600
C -23.391900 -5.433100 -22.048500
C -23.213200 -5.319500 -23.395100
H -22.478300 -5.666800 -20.274400
C -22.287200 -5.546700 -21.180500
C -21.915100 -5.310200 -23.876500
N -21.413400 -5.178700 -25.155500
C -21.006100 -5.546700 -21.623900
C -20.831900 -5.414500 -23.002600
H -20.203700 -5.609600 -21.029700
N -20.118400 -5.188000 -25.104500
N -19.740200 -5.329600 -23.810400
C -18.329100 -5.375200 -23.471600
H -18.238200 -4.995100 -22.576700
H -17.888000 -4.809300 -24.095300
N -17.775100 -6.698700 -23.542300
H -17.757500 -7.246000 -21.623900
H -17.724200 -6.138400 -26.310800
C -17.539800 -7.550500 -22.501500
C -17.419600 -7.012400 -26.029900
C -17.406500 -7.381800 -24.688700
N -17.067300 -8.708800 -22.862800
C -16.981200 -7.954200 -26.925100
H -16.976400 -7.746300 -27.867400
C -16.966200 -8.623100 -24.254500
C -16.538200 -9.202600 -26.513900
C -16.516700 -9.563500 -25.188600
H -16.220700 -9.804300 -27.187900
H -16.204300 -10.418900 -24.869700
