30
Fragment
H -15.260700 -11.019100 -22.537200
H -15.244300 -11.633700 -20.219000
C -14.948300 -11.874500 -22.218400
C -14.926800 -12.235400 -20.893000
C -14.498800 -12.814900 -23.152400
H -14.488600 -13.691700 -19.539500
C -14.483700 -13.483800 -20.481800
N -14.397700 -12.729200 -24.544100
C -14.058500 -14.056200 -22.718200
C -14.045400 -14.425600 -21.377000
C -13.925200 -13.887500 -24.905400
H -13.740700 -15.299600 -21.096100
H -13.707500 -14.192000 -25.783000
N -13.689900 -14.739300 -23.864600
H -13.577000 -16.628700 -23.311600
H -13.226800 -16.442900 -24.830200
C -13.135900 -16.062800 -23.935300
N -11.724800 -16.108400 -23.596500
N -11.346600 -16.250000 -22.302400
H -11.261200 -15.828400 -26.377200
C -10.633100 -16.023500 -24.404300
C -10.458800 -15.891300 -25.783000
N -10.051600 -16.259300 -22.251400
C -9.549900 -16.127800 -23.530400
C -9.177700 -15.891300 -26.226400
H -8.986600 -15.771200 -27.132600
C -8.251800 -16.118500 -24.011800
C -8.073000 -16.004900 -25.358400
H -7.522400 -16.185700 -23.444300
H -7.182800 -16.007000 -25.754600
30
Fragment
H -19.038000 -12.434000 -13.751200
H -18.698400 -12.612700 -16.061500
C -18.147800 -12.431900 -14.147300
C -17.969000 -12.545500 -15.494000
H -17.234200 -12.198200 -12.373200
C -17.043100 -12.318300 -13.279300
C -16.670900 -12.554800 -15.975300
N -16.169200 -12.686300 -17.254400
C -15.762000 -12.318300 -13.722700
C -15.587700 -12.450500 -15.101500
H -14.959600 -12.255400 -13.128600
N -14.874200 -12.677000 -17.203300
N -14.496000 -12.535400 -15.909300
C -13.084900 -12.489800 -15.570500
H -12.994000 -12.869900 -14.675600
H -12.643800 -13.055700 -16.194200
N -12.531000 -11.166300 -15.641100
H -12.513300 -10.619000 -13.722700
H -12.480100 -11.726600 -18.409700
C -12.295600 -10.314500 -14.600400
C -12.175400 -10.852600 -18.128700
C -12.162400 -10.483200 -16.787600
N -11.823100 -9.156200 -14.961600
C -11.737100 -9.910800 -19.023900
H -11.732200 -10.118700 -19.966200
C -11.722000 -9.241900 -16.353300
C -11.294000 -8.662400 -18.612700
C -11.272500 -8.301500 -17.287400
H -10.976500 -8.060700 -19.286700
H -10.960100 -7.446100 -16.968500
60
Fragment
H -15.260700 -11.019100 -22.537200
H -15.244300 -11.633700 -20.219000
C -14.948300 -11.874500 -22.218400
C -14.926800 -12.235400 -20.893000
C -14.498800 -12.814900 -23.152400
H -14.488600 -13.691700 -19.539500
C -14.483700 -13.483800 -20.481800
N -14.397700 -12.729200 -24.544100
C -14.058500 -14.056200 -22.718200
C -14.045400 -14.425600 -21.377000
C -13.925200 -13.887500 -24.905400
H -13.740700 -15.299600 -21.096100
H -13.707500 -14.192000 -25.783000
N -13.689900 -14.739300 -23.864600
H -13.577000 -16.628700 -23.311600
H -13.226800 -16.442900 -24.830200
C -13.135900 -16.062800 -23.935300
N -11.724800 -16.108400 -23.596500
N -11.346600 -16.250000 -22.302400
H -11.261200 -15.828400 -26.377200
C -10.633100 -16.023500 -24.404300
C -10.458800 -15.891300 -25.783000
N -10.051600 -16.259300 -22.251400
C -9.549900 -16.127800 -23.530400
C -9.177700 -15.891300 -26.226400
H -8.986600 -15.771200 -27.132600
C -8.251800 -16.118500 -24.011800
C -8.073000 -16.004900 -25.358400
H -7.522400 -16.185700 -23.444300
H -7.182800 -16.007000 -25.754600
H -19.038000 -12.434000 -13.751200
H -18.698400 -12.612700 -16.061500
C -18.147800 -12.431900 -14.147300
C -17.969000 -12.545500 -15.494000
H -17.234200 -12.198200 -12.373200
C -17.043100 -12.318300 -13.279300
C -16.670900 -12.554800 -15.975300
N -16.169200 -12.686300 -17.254400
C -15.762000 -12.318300 -13.722700
C -15.587700 -12.450500 -15.101500
H -14.959600 -12.255400 -13.128600
N -14.874200 -12.677000 -17.203300
N -14.496000 -12.535400 -15.909300
C -13.084900 -12.489800 -15.570500
H -12.994000 -12.869900 -14.675600
H -12.643800 -13.055700 -16.194200
N -12.531000 -11.166300 -15.641100
H -12.513300 -10.619000 -13.722700
H -12.480100 -11.726600 -18.409700
C -12.295600 -10.314500 -14.600400
C -12.175400 -10.852600 -18.128700
C -12.162400 -10.483200 -16.787600
N -11.823100 -9.156200 -14.961600
C -11.737100 -9.910800 -19.023900
H -11.732200 -10.118700 -19.966200
C -11.722000 -9.241900 -16.353300
C -11.294000 -8.662400 -18.612700
C -11.272500 -8.301500 -17.287400
H -10.976500 -8.060700 -19.286700
H -10.960100 -7.446100 -16.968500
