30
Fragment
H -15.260700 -11.019100 -22.537200
H -15.244300 -11.633700 -20.219000
C -14.948300 -11.874500 -22.218400
C -14.926800 -12.235400 -20.893000
C -14.498800 -12.814900 -23.152400
H -14.488600 -13.691700 -19.539500
C -14.483700 -13.483800 -20.481800
N -14.397700 -12.729200 -24.544100
C -14.058500 -14.056200 -22.718200
C -14.045400 -14.425600 -21.377000
C -13.925200 -13.887500 -24.905400
H -13.740700 -15.299600 -21.096100
H -13.707500 -14.192000 -25.783000
N -13.689900 -14.739300 -23.864600
H -13.577000 -16.628700 -23.311600
H -13.226800 -16.442900 -24.830200
C -13.135900 -16.062800 -23.935300
N -11.724800 -16.108400 -23.596500
N -11.346600 -16.250000 -22.302400
H -11.261200 -15.828400 -26.377200
C -10.633100 -16.023500 -24.404300
C -10.458800 -15.891300 -25.783000
N -10.051600 -16.259300 -22.251400
C -9.549900 -16.127800 -23.530400
C -9.177700 -15.891300 -26.226400
H -8.986600 -15.771200 -27.132600
C -8.251800 -16.118500 -24.011800
C -8.073000 -16.004900 -25.358400
H -7.522400 -16.185700 -23.444300
H -7.182800 -16.007000 -25.754600
30
Fragment
H -22.453500 -13.991900 -14.636100
H -22.437200 -13.377300 -12.317900
C -22.141100 -13.136500 -14.317200
C -22.119600 -12.775600 -12.991900
C -21.691600 -12.196100 -15.251300
H -21.681500 -11.319300 -11.638400
C -21.676600 -11.527200 -12.580700
N -21.590500 -12.281800 -16.643000
C -21.251300 -10.954800 -14.817000
C -21.238200 -10.585400 -13.475900
C -21.118000 -11.123500 -17.004200
H -20.933600 -9.711400 -13.194900
H -20.900300 -10.819000 -17.881900
N -20.882700 -10.271700 -15.963500
H -20.769800 -8.382300 -15.410400
H -20.419600 -8.568100 -16.929000
C -20.328700 -8.948200 -16.034100
N -18.917600 -8.902600 -15.695300
N -18.539400 -8.761000 -14.401300
H -18.454100 -9.182600 -18.476100
C -17.825900 -8.987500 -16.503100
C -17.651700 -9.119700 -17.881900
N -17.244400 -8.751700 -14.350200
C -16.742700 -8.883200 -15.629300
C -16.370600 -9.119700 -18.325300
H -16.179500 -9.239800 -19.231400
C -15.444600 -8.892500 -16.110600
C -15.265900 -9.006100 -17.457300
H -14.715300 -8.825300 -15.543100
H -14.375700 -9.004000 -17.853400
60
Fragment
H -15.260700 -11.019100 -22.537200
H -15.244300 -11.633700 -20.219000
C -14.948300 -11.874500 -22.218400
C -14.926800 -12.235400 -20.893000
C -14.498800 -12.814900 -23.152400
H -14.488600 -13.691700 -19.539500
C -14.483700 -13.483800 -20.481800
N -14.397700 -12.729200 -24.544100
C -14.058500 -14.056200 -22.718200
C -14.045400 -14.425600 -21.377000
C -13.925200 -13.887500 -24.905400
H -13.740700 -15.299600 -21.096100
H -13.707500 -14.192000 -25.783000
N -13.689900 -14.739300 -23.864600
H -13.577000 -16.628700 -23.311600
H -13.226800 -16.442900 -24.830200
C -13.135900 -16.062800 -23.935300
N -11.724800 -16.108400 -23.596500
N -11.346600 -16.250000 -22.302400
H -11.261200 -15.828400 -26.377200
C -10.633100 -16.023500 -24.404300
C -10.458800 -15.891300 -25.783000
N -10.051600 -16.259300 -22.251400
C -9.549900 -16.127800 -23.530400
C -9.177700 -15.891300 -26.226400
H -8.986600 -15.771200 -27.132600
C -8.251800 -16.118500 -24.011800
C -8.073000 -16.004900 -25.358400
H -7.522400 -16.185700 -23.444300
H -7.182800 -16.007000 -25.754600
H -22.453500 -13.991900 -14.636100
H -22.437200 -13.377300 -12.317900
C -22.141100 -13.136500 -14.317200
C -22.119600 -12.775600 -12.991900
C -21.691600 -12.196100 -15.251300
H -21.681500 -11.319300 -11.638400
C -21.676600 -11.527200 -12.580700
N -21.590500 -12.281800 -16.643000
C -21.251300 -10.954800 -14.817000
C -21.238200 -10.585400 -13.475900
C -21.118000 -11.123500 -17.004200
H -20.933600 -9.711400 -13.194900
H -20.900300 -10.819000 -17.881900
N -20.882700 -10.271700 -15.963500
H -20.769800 -8.382300 -15.410400
H -20.419600 -8.568100 -16.929000
C -20.328700 -8.948200 -16.034100
N -18.917600 -8.902600 -15.695300
N -18.539400 -8.761000 -14.401300
H -18.454100 -9.182600 -18.476100
C -17.825900 -8.987500 -16.503100
C -17.651700 -9.119700 -17.881900
N -17.244400 -8.751700 -14.350200
C -16.742700 -8.883200 -15.629300
C -16.370600 -9.119700 -18.325300
H -16.179500 -9.239800 -19.231400
C -15.444600 -8.892500 -16.110600
C -15.265900 -9.006100 -17.457300
H -14.715300 -8.825300 -15.543100
H -14.375700 -9.004000 -17.853400
