30
Fragment
H -15.260700 -11.019100 -22.537200
H -15.244300 -11.633700 -20.219000
C -14.948300 -11.874500 -22.218400
C -14.926800 -12.235400 -20.893000
C -14.498800 -12.814900 -23.152400
H -14.488600 -13.691700 -19.539500
C -14.483700 -13.483800 -20.481800
N -14.397700 -12.729200 -24.544100
C -14.058500 -14.056200 -22.718200
C -14.045400 -14.425600 -21.377000
C -13.925200 -13.887500 -24.905400
H -13.740700 -15.299600 -21.096100
H -13.707500 -14.192000 -25.783000
N -13.689900 -14.739300 -23.864600
H -13.577000 -16.628700 -23.311600
H -13.226800 -16.442900 -24.830200
C -13.135900 -16.062800 -23.935300
N -11.724800 -16.108400 -23.596500
N -11.346600 -16.250000 -22.302400
H -11.261200 -15.828400 -26.377200
C -10.633100 -16.023500 -24.404300
C -10.458800 -15.891300 -25.783000
N -10.051600 -16.259300 -22.251400
C -9.549900 -16.127800 -23.530400
C -9.177700 -15.891300 -26.226400
H -8.986600 -15.771200 -27.132600
C -8.251800 -16.118500 -24.011800
C -8.073000 -16.004900 -25.358400
H -7.522400 -16.185700 -23.444300
H -7.182800 -16.007000 -25.754600
30
Fragment
H -15.260700 -3.873100 -22.537200
H -15.244300 -4.487700 -20.219000
C -14.948300 -4.728500 -22.218400
C -14.926800 -5.089400 -20.893000
C -14.498800 -5.668900 -23.152400
H -14.488600 -6.545700 -19.539500
C -14.483700 -6.337800 -20.481800
N -14.397700 -5.583200 -24.544100
C -14.058500 -6.910200 -22.718200
C -14.045400 -7.279600 -21.377000
C -13.925200 -6.741500 -24.905400
H -13.740700 -8.153600 -21.096100
H -13.707500 -7.046000 -25.783000
N -13.689900 -7.593300 -23.864600
H -13.577000 -9.482700 -23.311600
H -13.226800 -9.296900 -24.830200
C -13.135900 -8.916800 -23.935300
N -11.724800 -8.962400 -23.596500
N -11.346600 -9.104000 -22.302400
H -11.261200 -8.682400 -26.377200
C -10.633100 -8.877500 -24.404300
C -10.458800 -8.745300 -25.783000
N -10.051600 -9.113300 -22.251400
C -9.549900 -8.981800 -23.530400
C -9.177700 -8.745300 -26.226400
H -8.986600 -8.625200 -27.132600
C -8.251800 -8.972500 -24.011800
C -8.073000 -8.858900 -25.358400
H -7.522400 -9.039700 -23.444300
H -7.182800 -8.861000 -25.754600
60
Fragment
H -15.260700 -11.019100 -22.537200
H -15.244300 -11.633700 -20.219000
C -14.948300 -11.874500 -22.218400
C -14.926800 -12.235400 -20.893000
C -14.498800 -12.814900 -23.152400
H -14.488600 -13.691700 -19.539500
C -14.483700 -13.483800 -20.481800
N -14.397700 -12.729200 -24.544100
C -14.058500 -14.056200 -22.718200
C -14.045400 -14.425600 -21.377000
C -13.925200 -13.887500 -24.905400
H -13.740700 -15.299600 -21.096100
H -13.707500 -14.192000 -25.783000
N -13.689900 -14.739300 -23.864600
H -13.577000 -16.628700 -23.311600
H -13.226800 -16.442900 -24.830200
C -13.135900 -16.062800 -23.935300
N -11.724800 -16.108400 -23.596500
N -11.346600 -16.250000 -22.302400
H -11.261200 -15.828400 -26.377200
C -10.633100 -16.023500 -24.404300
C -10.458800 -15.891300 -25.783000
N -10.051600 -16.259300 -22.251400
C -9.549900 -16.127800 -23.530400
C -9.177700 -15.891300 -26.226400
H -8.986600 -15.771200 -27.132600
C -8.251800 -16.118500 -24.011800
C -8.073000 -16.004900 -25.358400
H -7.522400 -16.185700 -23.444300
H -7.182800 -16.007000 -25.754600
H -15.260700 -3.873100 -22.537200
H -15.244300 -4.487700 -20.219000
C -14.948300 -4.728500 -22.218400
C -14.926800 -5.089400 -20.893000
C -14.498800 -5.668900 -23.152400
H -14.488600 -6.545700 -19.539500
C -14.483700 -6.337800 -20.481800
N -14.397700 -5.583200 -24.544100
C -14.058500 -6.910200 -22.718200
C -14.045400 -7.279600 -21.377000
C -13.925200 -6.741500 -24.905400
H -13.740700 -8.153600 -21.096100
H -13.707500 -7.046000 -25.783000
N -13.689900 -7.593300 -23.864600
H -13.577000 -9.482700 -23.311600
H -13.226800 -9.296900 -24.830200
C -13.135900 -8.916800 -23.935300
N -11.724800 -8.962400 -23.596500
N -11.346600 -9.104000 -22.302400
H -11.261200 -8.682400 -26.377200
C -10.633100 -8.877500 -24.404300
C -10.458800 -8.745300 -25.783000
N -10.051600 -9.113300 -22.251400
C -9.549900 -8.981800 -23.530400
C -9.177700 -8.745300 -26.226400
H -8.986600 -8.625200 -27.132600
C -8.251800 -8.972500 -24.011800
C -8.073000 -8.858900 -25.358400
H -7.522400 -9.039700 -23.444300
H -7.182800 -8.861000 -25.754600
