30
Fragment
H -15.260700 -11.019100 -22.537200
H -15.244300 -11.633700 -20.219000
C -14.948300 -11.874500 -22.218400
C -14.926800 -12.235400 -20.893000
C -14.498800 -12.814900 -23.152400
H -14.488600 -13.691700 -19.539500
C -14.483700 -13.483800 -20.481800
N -14.397700 -12.729200 -24.544100
C -14.058500 -14.056200 -22.718200
C -14.045400 -14.425600 -21.377000
C -13.925200 -13.887500 -24.905400
H -13.740700 -15.299600 -21.096100
H -13.707500 -14.192000 -25.783000
N -13.689900 -14.739300 -23.864600
H -13.577000 -16.628700 -23.311600
H -13.226800 -16.442900 -24.830200
C -13.135900 -16.062800 -23.935300
N -11.724800 -16.108400 -23.596500
N -11.346600 -16.250000 -22.302400
H -11.261200 -15.828400 -26.377200
C -10.633100 -16.023500 -24.404300
C -10.458800 -15.891300 -25.783000
N -10.051600 -16.259300 -22.251400
C -9.549900 -16.127800 -23.530400
C -9.177700 -15.891300 -26.226400
H -8.986600 -15.771200 -27.132600
C -8.251800 -16.118500 -24.011800
C -8.073000 -16.004900 -25.358400
H -7.522400 -16.185700 -23.444300
H -7.182800 -16.007000 -25.754600
30
Fragment
H -11.845100 -19.723000 -21.652300
H -11.505500 -19.544300 -23.962600
C -10.954900 -19.725100 -22.048500
C -10.776200 -19.611500 -23.395100
H -10.041300 -19.958800 -20.274400
C -9.850200 -19.838700 -21.180500
C -9.478100 -19.602200 -23.876500
N -8.976400 -19.470700 -25.155500
C -8.569100 -19.838700 -21.623900
C -8.394900 -19.706500 -23.002600
H -7.766700 -19.901600 -21.029700
N -7.681400 -19.480000 -25.104500
N -7.303200 -19.621600 -23.810400
C -5.892100 -19.667200 -23.471600
H -5.801200 -19.287100 -22.576700
H -5.451000 -19.101300 -24.095300
N -5.338100 -20.990700 -23.542300
H -5.320500 -21.538000 -21.623900
H -5.287200 -20.430400 -26.310800
C -5.102800 -21.842500 -22.501500
C -4.982600 -21.304400 -26.029900
C -4.969500 -21.673800 -24.688700
N -4.630300 -23.000800 -22.862800
C -4.544200 -22.246200 -26.925100
H -4.539400 -22.038300 -27.867400
C -4.529200 -22.915100 -24.254500
C -4.101200 -23.494600 -26.513900
C -4.079700 -23.855500 -25.188600
H -3.783700 -24.096300 -27.187900
H -3.767300 -24.710900 -24.869700
60
Fragment
H -15.260700 -11.019100 -22.537200
H -15.244300 -11.633700 -20.219000
C -14.948300 -11.874500 -22.218400
C -14.926800 -12.235400 -20.893000
C -14.498800 -12.814900 -23.152400
H -14.488600 -13.691700 -19.539500
C -14.483700 -13.483800 -20.481800
N -14.397700 -12.729200 -24.544100
C -14.058500 -14.056200 -22.718200
C -14.045400 -14.425600 -21.377000
C -13.925200 -13.887500 -24.905400
H -13.740700 -15.299600 -21.096100
H -13.707500 -14.192000 -25.783000
N -13.689900 -14.739300 -23.864600
H -13.577000 -16.628700 -23.311600
H -13.226800 -16.442900 -24.830200
C -13.135900 -16.062800 -23.935300
N -11.724800 -16.108400 -23.596500
N -11.346600 -16.250000 -22.302400
H -11.261200 -15.828400 -26.377200
C -10.633100 -16.023500 -24.404300
C -10.458800 -15.891300 -25.783000
N -10.051600 -16.259300 -22.251400
C -9.549900 -16.127800 -23.530400
C -9.177700 -15.891300 -26.226400
H -8.986600 -15.771200 -27.132600
C -8.251800 -16.118500 -24.011800
C -8.073000 -16.004900 -25.358400
H -7.522400 -16.185700 -23.444300
H -7.182800 -16.007000 -25.754600
H -11.845100 -19.723000 -21.652300
H -11.505500 -19.544300 -23.962600
C -10.954900 -19.725100 -22.048500
C -10.776200 -19.611500 -23.395100
H -10.041300 -19.958800 -20.274400
C -9.850200 -19.838700 -21.180500
C -9.478100 -19.602200 -23.876500
N -8.976400 -19.470700 -25.155500
C -8.569100 -19.838700 -21.623900
C -8.394900 -19.706500 -23.002600
H -7.766700 -19.901600 -21.029700
N -7.681400 -19.480000 -25.104500
N -7.303200 -19.621600 -23.810400
C -5.892100 -19.667200 -23.471600
H -5.801200 -19.287100 -22.576700
H -5.451000 -19.101300 -24.095300
N -5.338100 -20.990700 -23.542300
H -5.320500 -21.538000 -21.623900
H -5.287200 -20.430400 -26.310800
C -5.102800 -21.842500 -22.501500
C -4.982600 -21.304400 -26.029900
C -4.969500 -21.673800 -24.688700
N -4.630300 -23.000800 -22.862800
C -4.544200 -22.246200 -26.925100
H -4.539400 -22.038300 -27.867400
C -4.529200 -22.915100 -24.254500
C -4.101200 -23.494600 -26.513900
C -4.079700 -23.855500 -25.188600
H -3.783700 -24.096300 -27.187900
H -3.767300 -24.710900 -24.869700
