25
Fragment
H -22.112400 -18.992000 -8.880400
O -21.429900 -16.684800 -9.265100
H -21.326700 -16.307600 -6.446000
N -21.248800 -18.843100 -8.705500
O -21.057800 -21.067600 -8.340700
C -20.752100 -17.568300 -8.791200
C -20.568500 -19.959000 -8.285100
C -20.404100 -16.391700 -6.102400
H -20.309400 -17.231800 -5.712200
H -20.304600 -15.679100 -5.389900
H -19.626700 -15.328900 -7.707700
C -19.398900 -16.184100 -7.212600
C -19.344600 -17.309600 -8.277600
N -19.289300 -19.740200 -7.816100
H -18.963600 -18.283400 -10.896500
H -18.926700 -16.081500 -9.854100
H -18.862000 -20.445300 -7.467700
C -18.676000 -18.530700 -7.673500
H -18.509200 -16.124700 -6.871100
C -18.461500 -16.839600 -9.463200
C -18.169100 -17.876300 -10.513100
H -17.677100 -16.484900 -9.044900
H -17.668400 -18.683200 -10.121600
H -17.629700 -17.530800 -11.314800
O -17.595300 -18.453000 -7.118700
25
Fragment
H -16.616200 -12.876400 -12.741100
H -16.464200 -13.115900 -15.141200
H -15.945800 -14.454200 -14.304600
O -15.832100 -15.059300 -11.457400
C -15.738100 -13.495600 -14.548700
C -15.685900 -12.739500 -13.246500
H -15.589400 -11.788100 -13.447400
H -15.537000 -12.659600 -10.526200
H -14.915500 -13.397200 -14.976600
C -14.812100 -14.677100 -11.966900
H -14.666800 -11.514900 -11.239300
C -14.636200 -12.398400 -10.967800
C -14.568800 -13.200000 -12.287800
H -13.940100 -16.401900 -12.144500
N -13.829000 -15.571000 -12.309800
H -13.620500 -12.076800 -9.161500
C -13.485100 -12.616800 -10.023500
H -13.424000 -13.567100 -9.819800
C -13.230100 -12.920100 -12.938600
O -12.924100 -11.805500 -13.319200
H -12.587900 -12.279900 -10.430100
C -12.581600 -15.276400 -12.778800
N -12.340900 -13.946900 -13.058600
O -11.734100 -16.114400 -12.962600
H -11.533400 -13.754500 -13.399400
50
Fragment
H -22.112400 -18.992000 -8.880400
O -21.429900 -16.684800 -9.265100
H -21.326700 -16.307600 -6.446000
N -21.248800 -18.843100 -8.705500
O -21.057800 -21.067600 -8.340700
C -20.752100 -17.568300 -8.791200
C -20.568500 -19.959000 -8.285100
C -20.404100 -16.391700 -6.102400
H -20.309400 -17.231800 -5.712200
H -20.304600 -15.679100 -5.389900
H -19.626700 -15.328900 -7.707700
C -19.398900 -16.184100 -7.212600
C -19.344600 -17.309600 -8.277600
N -19.289300 -19.740200 -7.816100
H -18.963600 -18.283400 -10.896500
H -18.926700 -16.081500 -9.854100
H -18.862000 -20.445300 -7.467700
C -18.676000 -18.530700 -7.673500
H -18.509200 -16.124700 -6.871100
C -18.461500 -16.839600 -9.463200
C -18.169100 -17.876300 -10.513100
H -17.677100 -16.484900 -9.044900
H -17.668400 -18.683200 -10.121600
H -17.629700 -17.530800 -11.314800
O -17.595300 -18.453000 -7.118700
H -16.616200 -12.876400 -12.741100
H -16.464200 -13.115900 -15.141200
H -15.945800 -14.454200 -14.304600
O -15.832100 -15.059300 -11.457400
C -15.738100 -13.495600 -14.548700
C -15.685900 -12.739500 -13.246500
H -15.589400 -11.788100 -13.447400
H -15.537000 -12.659600 -10.526200
H -14.915500 -13.397200 -14.976600
C -14.812100 -14.677100 -11.966900
H -14.666800 -11.514900 -11.239300
C -14.636200 -12.398400 -10.967800
C -14.568800 -13.200000 -12.287800
H -13.940100 -16.401900 -12.144500
N -13.829000 -15.571000 -12.309800
H -13.620500 -12.076800 -9.161500
C -13.485100 -12.616800 -10.023500
H -13.424000 -13.567100 -9.819800
C -13.230100 -12.920100 -12.938600
O -12.924100 -11.805500 -13.319200
H -12.587900 -12.279900 -10.430100
C -12.581600 -15.276400 -12.778800
N -12.340900 -13.946900 -13.058600
O -11.734100 -16.114400 -12.962600
H -11.533400 -13.754500 -13.399400
