25
Fragment
H -22.112400 -18.992000 -8.880400
O -21.429900 -16.684800 -9.265100
H -21.326700 -16.307600 -6.446000
N -21.248800 -18.843100 -8.705500
O -21.057800 -21.067600 -8.340700
C -20.752100 -17.568300 -8.791200
C -20.568500 -19.959000 -8.285100
C -20.404100 -16.391700 -6.102400
H -20.309400 -17.231800 -5.712200
H -20.304600 -15.679100 -5.389900
H -19.626700 -15.328900 -7.707700
C -19.398900 -16.184100 -7.212600
C -19.344600 -17.309600 -8.277600
N -19.289300 -19.740200 -7.816100
H -18.963600 -18.283400 -10.896500
H -18.926700 -16.081500 -9.854100
H -18.862000 -20.445300 -7.467700
C -18.676000 -18.530700 -7.673500
H -18.509200 -16.124700 -6.871100
C -18.461500 -16.839600 -9.463200
C -18.169100 -17.876300 -10.513100
H -17.677100 -16.484900 -9.044900
H -17.668400 -18.683200 -10.121600
H -17.629700 -17.530800 -11.314800
O -17.595300 -18.453000 -7.118700
25
Fragment
H -26.053800 -11.947900 -7.172900
O -25.853100 -9.588000 -7.609700
N -25.246300 -11.755600 -7.513700
C -25.005600 -10.426000 -7.793500
H -24.999200 -13.422500 -10.142100
O -24.663100 -13.897000 -7.253100
C -24.357100 -12.782400 -7.633700
H -24.163100 -12.135400 -10.752400
C -24.102000 -13.085700 -10.548800
H -23.966600 -13.625700 -11.410800
N -23.758200 -10.131500 -8.262500
H -23.647100 -9.300600 -8.427800
C -23.018300 -12.502500 -8.284500
C -22.950900 -13.304100 -9.604500
H -22.920300 -14.187600 -9.333000
C -22.775000 -11.025400 -8.605400
H -22.671600 -12.305300 -5.595700
H -22.050100 -13.042900 -10.046100
H -21.997700 -13.914400 -7.124900
C -21.901200 -12.963000 -7.325800
C -21.849100 -12.206900 -6.023600
O -21.755000 -10.643200 -9.114900
H -21.641300 -11.248300 -6.267700
H -21.122900 -12.586500 -5.431100
H -20.971000 -12.826100 -7.831200
50
Fragment
H -22.112400 -18.992000 -8.880400
O -21.429900 -16.684800 -9.265100
H -21.326700 -16.307600 -6.446000
N -21.248800 -18.843100 -8.705500
O -21.057800 -21.067600 -8.340700
C -20.752100 -17.568300 -8.791200
C -20.568500 -19.959000 -8.285100
C -20.404100 -16.391700 -6.102400
H -20.309400 -17.231800 -5.712200
H -20.304600 -15.679100 -5.389900
H -19.626700 -15.328900 -7.707700
C -19.398900 -16.184100 -7.212600
C -19.344600 -17.309600 -8.277600
N -19.289300 -19.740200 -7.816100
H -18.963600 -18.283400 -10.896500
H -18.926700 -16.081500 -9.854100
H -18.862000 -20.445300 -7.467700
C -18.676000 -18.530700 -7.673500
H -18.509200 -16.124700 -6.871100
C -18.461500 -16.839600 -9.463200
C -18.169100 -17.876300 -10.513100
H -17.677100 -16.484900 -9.044900
H -17.668400 -18.683200 -10.121600
H -17.629700 -17.530800 -11.314800
O -17.595300 -18.453000 -7.118700
H -26.053800 -11.947900 -7.172900
O -25.853100 -9.588000 -7.609700
N -25.246300 -11.755600 -7.513700
C -25.005600 -10.426000 -7.793500
H -24.999200 -13.422500 -10.142100
O -24.663100 -13.897000 -7.253100
C -24.357100 -12.782400 -7.633700
H -24.163100 -12.135400 -10.752400
C -24.102000 -13.085700 -10.548800
H -23.966600 -13.625700 -11.410800
N -23.758200 -10.131500 -8.262500
H -23.647100 -9.300600 -8.427800
C -23.018300 -12.502500 -8.284500
C -22.950900 -13.304100 -9.604500
H -22.920300 -14.187600 -9.333000
C -22.775000 -11.025400 -8.605400
H -22.671600 -12.305300 -5.595700
H -22.050100 -13.042900 -10.046100
H -21.997700 -13.914400 -7.124900
C -21.901200 -12.963000 -7.325800
C -21.849100 -12.206900 -6.023600
O -21.755000 -10.643200 -9.114900
H -21.641300 -11.248300 -6.267700
H -21.122900 -12.586500 -5.431100
H -20.971000 -12.826100 -7.831200
