25
Fragment
H -22.112400 -18.992000 -8.880400
O -21.429900 -16.684800 -9.265100
H -21.326700 -16.307600 -6.446000
N -21.248800 -18.843100 -8.705500
O -21.057800 -21.067600 -8.340700
C -20.752100 -17.568300 -8.791200
C -20.568500 -19.959000 -8.285100
C -20.404100 -16.391700 -6.102400
H -20.309400 -17.231800 -5.712200
H -20.304600 -15.679100 -5.389900
H -19.626700 -15.328900 -7.707700
C -19.398900 -16.184100 -7.212600
C -19.344600 -17.309600 -8.277600
N -19.289300 -19.740200 -7.816100
H -18.963600 -18.283400 -10.896500
H -18.926700 -16.081500 -9.854100
H -18.862000 -20.445300 -7.467700
C -18.676000 -18.530700 -7.673500
H -18.509200 -16.124700 -6.871100
C -18.461500 -16.839600 -9.463200
C -18.169100 -17.876300 -10.513100
H -17.677100 -16.484900 -9.044900
H -17.668400 -18.683200 -10.121600
H -17.629700 -17.530800 -11.314800
O -17.595300 -18.453000 -7.118700
24
Fragment
H -26.232500 -18.978300 -5.369400
H -25.995900 -23.387900 -4.292700
N -25.722600 -20.917700 -4.962700
C -25.528400 -19.624700 -5.252100
C -25.111300 -23.761300 -4.449100
H -25.083600 -24.411100 -5.163600
H -24.890100 -24.291200 -3.627600
C -24.459300 -21.421800 -4.903700
H -24.390500 -17.365300 -5.767100
N -24.234500 -19.298000 -5.358400
N -24.107800 -22.717300 -4.630800
C -23.673100 -17.981700 -5.671100
C -23.520900 -20.460900 -5.143800
H -23.156000 -18.054800 -6.500800
H -23.114200 -17.688000 -4.930500
C -22.776600 -23.073900 -4.626700
O -22.431500 -24.222000 -4.434000
C -22.122200 -20.712000 -5.136200
N -21.849000 -22.056900 -4.843400
O -21.227800 -19.902300 -5.339900
C -20.432800 -22.459200 -4.800200
H -20.251300 -23.082300 -4.018500
H -20.212300 -22.689400 -5.671100
H -19.885400 -21.666700 -4.525900
49
Fragment
H -22.112400 -18.992000 -8.880400
O -21.429900 -16.684800 -9.265100
H -21.326700 -16.307600 -6.446000
N -21.248800 -18.843100 -8.705500
O -21.057800 -21.067600 -8.340700
C -20.752100 -17.568300 -8.791200
C -20.568500 -19.959000 -8.285100
C -20.404100 -16.391700 -6.102400
H -20.309400 -17.231800 -5.712200
H -20.304600 -15.679100 -5.389900
H -19.626700 -15.328900 -7.707700
C -19.398900 -16.184100 -7.212600
C -19.344600 -17.309600 -8.277600
N -19.289300 -19.740200 -7.816100
H -18.963600 -18.283400 -10.896500
H -18.926700 -16.081500 -9.854100
H -18.862000 -20.445300 -7.467700
C -18.676000 -18.530700 -7.673500
H -18.509200 -16.124700 -6.871100
C -18.461500 -16.839600 -9.463200
C -18.169100 -17.876300 -10.513100
H -17.677100 -16.484900 -9.044900
H -17.668400 -18.683200 -10.121600
H -17.629700 -17.530800 -11.314800
O -17.595300 -18.453000 -7.118700
H -26.232500 -18.978300 -5.369400
H -25.995900 -23.387900 -4.292700
N -25.722600 -20.917700 -4.962700
C -25.528400 -19.624700 -5.252100
C -25.111300 -23.761300 -4.449100
H -25.083600 -24.411100 -5.163600
H -24.890100 -24.291200 -3.627600
C -24.459300 -21.421800 -4.903700
H -24.390500 -17.365300 -5.767100
N -24.234500 -19.298000 -5.358400
N -24.107800 -22.717300 -4.630800
C -23.673100 -17.981700 -5.671100
C -23.520900 -20.460900 -5.143800
H -23.156000 -18.054800 -6.500800
H -23.114200 -17.688000 -4.930500
C -22.776600 -23.073900 -4.626700
O -22.431500 -24.222000 -4.434000
C -22.122200 -20.712000 -5.136200
N -21.849000 -22.056900 -4.843400
O -21.227800 -19.902300 -5.339900
C -20.432800 -22.459200 -4.800200
H -20.251300 -23.082300 -4.018500
H -20.212300 -22.689400 -5.671100
H -19.885400 -21.666700 -4.525900
