25
Fragment
H -22.112400 -18.992000 -8.880400
O -21.429900 -16.684800 -9.265100
H -21.326700 -16.307600 -6.446000
N -21.248800 -18.843100 -8.705500
O -21.057800 -21.067600 -8.340700
C -20.752100 -17.568300 -8.791200
C -20.568500 -19.959000 -8.285100
C -20.404100 -16.391700 -6.102400
H -20.309400 -17.231800 -5.712200
H -20.304600 -15.679100 -5.389900
H -19.626700 -15.328900 -7.707700
C -19.398900 -16.184100 -7.212600
C -19.344600 -17.309600 -8.277600
N -19.289300 -19.740200 -7.816100
H -18.963600 -18.283400 -10.896500
H -18.926700 -16.081500 -9.854100
H -18.862000 -20.445300 -7.467700
C -18.676000 -18.530700 -7.673500
H -18.509200 -16.124700 -6.871100
C -18.461500 -16.839600 -9.463200
C -18.169100 -17.876300 -10.513100
H -17.677100 -16.484900 -9.044900
H -17.668400 -18.683200 -10.121600
H -17.629700 -17.530800 -11.314800
O -17.595300 -18.453000 -7.118700
25
Fragment
H -22.449600 -19.698800 -2.022900
O -21.767100 -17.391600 -2.407600
H -21.663900 -17.014400 0.411400
N -21.586000 -19.549900 -1.848100
O -21.394900 -21.774400 -1.483300
C -21.089300 -18.275100 -1.933800
C -20.905700 -20.665800 -1.427700
C -20.741300 -17.098500 0.755000
H -20.646600 -17.938700 1.145200
H -20.641800 -16.386000 1.467500
H -19.963800 -16.035800 -0.850300
C -19.736100 -16.890900 -0.355200
C -19.681700 -18.016500 -1.420200
N -19.626400 -20.447100 -0.958700
H -19.300800 -18.990200 -4.039000
H -19.263900 -16.788300 -2.996700
H -19.199100 -21.152100 -0.610300
C -19.013100 -19.237600 -0.816000
H -18.846400 -16.831500 -0.013700
C -18.798700 -17.546500 -2.605800
C -18.506300 -18.583200 -3.655700
H -18.014200 -17.191700 -2.187500
H -18.005600 -19.390000 -3.264100
H -17.966800 -18.237600 -4.457300
O -17.932400 -19.159800 -0.261300
50
Fragment
H -22.112400 -18.992000 -8.880400
O -21.429900 -16.684800 -9.265100
H -21.326700 -16.307600 -6.446000
N -21.248800 -18.843100 -8.705500
O -21.057800 -21.067600 -8.340700
C -20.752100 -17.568300 -8.791200
C -20.568500 -19.959000 -8.285100
C -20.404100 -16.391700 -6.102400
H -20.309400 -17.231800 -5.712200
H -20.304600 -15.679100 -5.389900
H -19.626700 -15.328900 -7.707700
C -19.398900 -16.184100 -7.212600
C -19.344600 -17.309600 -8.277600
N -19.289300 -19.740200 -7.816100
H -18.963600 -18.283400 -10.896500
H -18.926700 -16.081500 -9.854100
H -18.862000 -20.445300 -7.467700
C -18.676000 -18.530700 -7.673500
H -18.509200 -16.124700 -6.871100
C -18.461500 -16.839600 -9.463200
C -18.169100 -17.876300 -10.513100
H -17.677100 -16.484900 -9.044900
H -17.668400 -18.683200 -10.121600
H -17.629700 -17.530800 -11.314800
O -17.595300 -18.453000 -7.118700
H -22.449600 -19.698800 -2.022900
O -21.767100 -17.391600 -2.407600
H -21.663900 -17.014400 0.411400
N -21.586000 -19.549900 -1.848100
O -21.394900 -21.774400 -1.483300
C -21.089300 -18.275100 -1.933800
C -20.905700 -20.665800 -1.427700
C -20.741300 -17.098500 0.755000
H -20.646600 -17.938700 1.145200
H -20.641800 -16.386000 1.467500
H -19.963800 -16.035800 -0.850300
C -19.736100 -16.890900 -0.355200
C -19.681700 -18.016500 -1.420200
N -19.626400 -20.447100 -0.958700
H -19.300800 -18.990200 -4.039000
H -19.263900 -16.788300 -2.996700
H -19.199100 -21.152100 -0.610300
C -19.013100 -19.237600 -0.816000
H -18.846400 -16.831500 -0.013700
C -18.798700 -17.546500 -2.605800
C -18.506300 -18.583200 -3.655700
H -18.014200 -17.191700 -2.187500
H -18.005600 -19.390000 -3.264100
H -17.966800 -18.237600 -4.457300
O -17.932400 -19.159800 -0.261300
