25
Fragment
H -22.112400 -18.992000 -8.880400
O -21.429900 -16.684800 -9.265100
H -21.326700 -16.307600 -6.446000
N -21.248800 -18.843100 -8.705500
O -21.057800 -21.067600 -8.340700
C -20.752100 -17.568300 -8.791200
C -20.568500 -19.959000 -8.285100
C -20.404100 -16.391700 -6.102400
H -20.309400 -17.231800 -5.712200
H -20.304600 -15.679100 -5.389900
H -19.626700 -15.328900 -7.707700
C -19.398900 -16.184100 -7.212600
C -19.344600 -17.309600 -8.277600
N -19.289300 -19.740200 -7.816100
H -18.963600 -18.283400 -10.896500
H -18.926700 -16.081500 -9.854100
H -18.862000 -20.445300 -7.467700
C -18.676000 -18.530700 -7.673500
H -18.509200 -16.124700 -6.871100
C -18.461500 -16.839600 -9.463200
C -18.169100 -17.876300 -10.513100
H -17.677100 -16.484900 -9.044900
H -17.668400 -18.683200 -10.121600
H -17.629700 -17.530800 -11.314800
O -17.595300 -18.453000 -7.118700
25
Fragment
O -17.350700 -21.161000 -13.453600
H -17.316300 -22.083200 -9.257500
H -17.277600 -20.930800 -10.450700
H -17.268900 -23.129100 -11.527300
C -16.776800 -21.737700 -10.059200
C -16.484500 -22.774400 -11.109000
H -16.436800 -23.489300 -13.701100
C -16.270000 -21.083300 -12.898800
H -16.084000 -19.168700 -13.104500
H -16.019300 -23.532500 -10.718200
H -15.982400 -21.330600 -9.675800
N -15.656700 -19.873700 -12.756200
C -15.601400 -22.304400 -12.294700
C -15.547100 -23.429900 -13.359600
H -15.319300 -24.285000 -12.864500
H -14.641400 -23.934800 -15.182300
H -14.636500 -22.382100 -14.860000
C -14.541900 -23.222300 -14.469900
C -14.377500 -19.655000 -12.287100
C -14.193900 -22.045700 -11.781100
O -13.888200 -18.546400 -12.231600
N -13.697200 -20.770900 -11.866800
H -13.619200 -23.306400 -14.126300
O -13.516000 -22.929200 -11.307200
H -12.833500 -20.622000 -11.691900
50
Fragment
H -22.112400 -18.992000 -8.880400
O -21.429900 -16.684800 -9.265100
H -21.326700 -16.307600 -6.446000
N -21.248800 -18.843100 -8.705500
O -21.057800 -21.067600 -8.340700
C -20.752100 -17.568300 -8.791200
C -20.568500 -19.959000 -8.285100
C -20.404100 -16.391700 -6.102400
H -20.309400 -17.231800 -5.712200
H -20.304600 -15.679100 -5.389900
H -19.626700 -15.328900 -7.707700
C -19.398900 -16.184100 -7.212600
C -19.344600 -17.309600 -8.277600
N -19.289300 -19.740200 -7.816100
H -18.963600 -18.283400 -10.896500
H -18.926700 -16.081500 -9.854100
H -18.862000 -20.445300 -7.467700
C -18.676000 -18.530700 -7.673500
H -18.509200 -16.124700 -6.871100
C -18.461500 -16.839600 -9.463200
C -18.169100 -17.876300 -10.513100
H -17.677100 -16.484900 -9.044900
H -17.668400 -18.683200 -10.121600
H -17.629700 -17.530800 -11.314800
O -17.595300 -18.453000 -7.118700
O -17.350700 -21.161000 -13.453600
H -17.316300 -22.083200 -9.257500
H -17.277600 -20.930800 -10.450700
H -17.268900 -23.129100 -11.527300
C -16.776800 -21.737700 -10.059200
C -16.484500 -22.774400 -11.109000
H -16.436800 -23.489300 -13.701100
C -16.270000 -21.083300 -12.898800
H -16.084000 -19.168700 -13.104500
H -16.019300 -23.532500 -10.718200
H -15.982400 -21.330600 -9.675800
N -15.656700 -19.873700 -12.756200
C -15.601400 -22.304400 -12.294700
C -15.547100 -23.429900 -13.359600
H -15.319300 -24.285000 -12.864500
H -14.641400 -23.934800 -15.182300
H -14.636500 -22.382100 -14.860000
C -14.541900 -23.222300 -14.469900
C -14.377500 -19.655000 -12.287100
C -14.193900 -22.045700 -11.781100
O -13.888200 -18.546400 -12.231600
N -13.697200 -20.770900 -11.866800
H -13.619200 -23.306400 -14.126300
O -13.516000 -22.929200 -11.307200
H -12.833500 -20.622000 -11.691900
