25
Fragment
H -22.112400 -18.992000 -8.880400
O -21.429900 -16.684800 -9.265100
H -21.326700 -16.307600 -6.446000
N -21.248800 -18.843100 -8.705500
O -21.057800 -21.067600 -8.340700
C -20.752100 -17.568300 -8.791200
C -20.568500 -19.959000 -8.285100
C -20.404100 -16.391700 -6.102400
H -20.309400 -17.231800 -5.712200
H -20.304600 -15.679100 -5.389900
H -19.626700 -15.328900 -7.707700
C -19.398900 -16.184100 -7.212600
C -19.344600 -17.309600 -8.277600
N -19.289300 -19.740200 -7.816100
H -18.963600 -18.283400 -10.896500
H -18.926700 -16.081500 -9.854100
H -18.862000 -20.445300 -7.467700
C -18.676000 -18.530700 -7.673500
H -18.509200 -16.124700 -6.871100
C -18.461500 -16.839600 -9.463200
C -18.169100 -17.876300 -10.513100
H -17.677100 -16.484900 -9.044900
H -17.668400 -18.683200 -10.121600
H -17.629700 -17.530800 -11.314800
O -17.595300 -18.453000 -7.118700
24
Fragment
H -15.397700 -18.654100 -9.189000
H -15.070900 -17.631400 -8.043800
H -15.031900 -17.238500 -9.696400
C -14.850300 -17.861600 -8.914700
O -14.055300 -20.418500 -8.375000
N -13.434100 -18.264000 -8.871500
C -13.160900 -19.608800 -8.578600
O -12.851700 -16.098900 -9.280800
C -12.506500 -17.246900 -9.088100
H -12.168900 -22.632800 -8.784400
H -12.127100 -22.266000 -7.214000
C -11.762200 -19.860000 -8.571100
C -11.610100 -22.339100 -8.043800
N -11.175300 -17.603500 -9.084000
N -11.048600 -21.022800 -8.356500
H -10.892600 -22.955500 -7.947800
C -10.823800 -18.899000 -8.811100
H -10.393000 -16.029600 -10.087300
H -10.199500 -15.909800 -8.551200
C -10.171900 -16.559500 -9.265800
C -9.754700 -20.696100 -8.462800
N -9.560500 -19.403100 -8.752100
H -9.287200 -16.932900 -9.422100
H -9.050600 -21.342500 -8.345500
49
Fragment
H -22.112400 -18.992000 -8.880400
O -21.429900 -16.684800 -9.265100
H -21.326700 -16.307600 -6.446000
N -21.248800 -18.843100 -8.705500
O -21.057800 -21.067600 -8.340700
C -20.752100 -17.568300 -8.791200
C -20.568500 -19.959000 -8.285100
C -20.404100 -16.391700 -6.102400
H -20.309400 -17.231800 -5.712200
H -20.304600 -15.679100 -5.389900
H -19.626700 -15.328900 -7.707700
C -19.398900 -16.184100 -7.212600
C -19.344600 -17.309600 -8.277600
N -19.289300 -19.740200 -7.816100
H -18.963600 -18.283400 -10.896500
H -18.926700 -16.081500 -9.854100
H -18.862000 -20.445300 -7.467700
C -18.676000 -18.530700 -7.673500
H -18.509200 -16.124700 -6.871100
C -18.461500 -16.839600 -9.463200
C -18.169100 -17.876300 -10.513100
H -17.677100 -16.484900 -9.044900
H -17.668400 -18.683200 -10.121600
H -17.629700 -17.530800 -11.314800
O -17.595300 -18.453000 -7.118700
H -15.397700 -18.654100 -9.189000
H -15.070900 -17.631400 -8.043800
H -15.031900 -17.238500 -9.696400
C -14.850300 -17.861600 -8.914700
O -14.055300 -20.418500 -8.375000
N -13.434100 -18.264000 -8.871500
C -13.160900 -19.608800 -8.578600
O -12.851700 -16.098900 -9.280800
C -12.506500 -17.246900 -9.088100
H -12.168900 -22.632800 -8.784400
H -12.127100 -22.266000 -7.214000
C -11.762200 -19.860000 -8.571100
C -11.610100 -22.339100 -8.043800
N -11.175300 -17.603500 -9.084000
N -11.048600 -21.022800 -8.356500
H -10.892600 -22.955500 -7.947800
C -10.823800 -18.899000 -8.811100
H -10.393000 -16.029600 -10.087300
H -10.199500 -15.909800 -8.551200
C -10.171900 -16.559500 -9.265800
C -9.754700 -20.696100 -8.462800
N -9.560500 -19.403100 -8.752100
H -9.287200 -16.932900 -9.422100
H -9.050600 -21.342500 -8.345500
