16
Fragment
H -14.090900 -25.693500 -31.685300
Cl -13.829300 -22.928500 -32.149200
C -13.609800 -25.646200 -32.501000
C -13.294200 -24.361600 -33.000600
H -13.224200 -28.122700 -32.679500
C -13.168500 -26.764600 -33.140800
C -12.560200 -24.237700 -34.142600
C -12.406700 -26.644000 -34.300700
H -12.397200 -23.394800 -34.438300
C -12.093400 -25.375600 -34.808000
O -12.002700 -27.777100 -34.892100
H -11.625800 -27.568400 -35.610900
C -11.313300 -25.271300 -36.046800
O -11.066000 -24.048600 -36.441900
O -10.903000 -26.257600 -36.658600
H -10.655700 -24.046900 -37.318800
22
Fragment
H -18.639500 -27.274900 -25.057700
H -18.162400 -28.579200 -25.465500
C -18.159200 -27.804800 -25.521600
H -17.669300 -27.878100 -24.726300
N -17.667800 -24.940300 -25.965100
H -17.478500 -22.922000 -26.332200
N -17.273300 -27.263500 -26.566700
C -17.251900 -23.813800 -26.554000
C -17.112700 -25.915200 -26.729900
O -16.931400 -29.330700 -27.430900
C -16.735000 -28.140600 -27.494600
N -16.475000 -24.024100 -27.619500
C -16.378700 -25.398400 -27.741900
H -16.317500 -22.221000 -28.346000
N -15.952500 -27.570000 -28.491300
H -15.943800 -23.264400 -29.416600
C -15.900000 -23.001900 -28.496400
C -15.698800 -26.203800 -28.713100
C -15.325100 -28.518800 -29.431900
O -15.010200 -25.824000 -29.623100
H -14.846400 -23.036100 -28.346000
H -14.464700 -28.285700 -29.697000
38
Fragment
H -14.090900 -25.693500 -31.685300
Cl -13.829300 -22.928500 -32.149200
C -13.609800 -25.646200 -32.501000
C -13.294200 -24.361600 -33.000600
H -13.224200 -28.122700 -32.679500
C -13.168500 -26.764600 -33.140800
C -12.560200 -24.237700 -34.142600
C -12.406700 -26.644000 -34.300700
H -12.397200 -23.394800 -34.438300
C -12.093400 -25.375600 -34.808000
O -12.002700 -27.777100 -34.892100
H -11.625800 -27.568400 -35.610900
C -11.313300 -25.271300 -36.046800
O -11.066000 -24.048600 -36.441900
O -10.903000 -26.257600 -36.658600
H -10.655700 -24.046900 -37.318800
H -18.639500 -27.274900 -25.057700
H -18.162400 -28.579200 -25.465500
C -18.159200 -27.804800 -25.521600
H -17.669300 -27.878100 -24.726300
N -17.667800 -24.940300 -25.965100
H -17.478500 -22.922000 -26.332200
N -17.273300 -27.263500 -26.566700
C -17.251900 -23.813800 -26.554000
C -17.112700 -25.915200 -26.729900
O -16.931400 -29.330700 -27.430900
C -16.735000 -28.140600 -27.494600
N -16.475000 -24.024100 -27.619500
C -16.378700 -25.398400 -27.741900
H -16.317500 -22.221000 -28.346000
N -15.952500 -27.570000 -28.491300
H -15.943800 -23.264400 -29.416600
C -15.900000 -23.001900 -28.496400
C -15.698800 -26.203800 -28.713100
C -15.325100 -28.518800 -29.431900
O -15.010200 -25.824000 -29.623100
H -14.846400 -23.036100 -28.346000
H -14.464700 -28.285700 -29.697000
