16
Fragment
H -14.090900 -25.693500 -31.685300
Cl -13.829300 -22.928500 -32.149200
C -13.609800 -25.646200 -32.501000
C -13.294200 -24.361600 -33.000600
H -13.224200 -28.122700 -32.679500
C -13.168500 -26.764600 -33.140800
C -12.560200 -24.237700 -34.142600
C -12.406700 -26.644000 -34.300700
H -12.397200 -23.394800 -34.438300
C -12.093400 -25.375600 -34.808000
O -12.002700 -27.777100 -34.892100
H -11.625800 -27.568400 -35.610900
C -11.313300 -25.271300 -36.046800
O -11.066000 -24.048600 -36.441900
O -10.903000 -26.257600 -36.658600
H -10.655700 -24.046900 -37.318800
22
Fragment
H -9.391300 -28.285700 -34.030500
H -9.009600 -23.036100 -35.381500
O -8.845800 -25.824000 -34.104400
C -8.530900 -28.518800 -34.295600
C -8.157200 -26.203800 -35.014400
C -7.956000 -23.001900 -35.231100
H -7.912200 -23.264400 -34.310900
N -7.903500 -27.570000 -35.236200
H -7.538500 -22.221000 -35.381500
C -7.477300 -25.398400 -35.985600
N -7.381000 -24.024100 -36.108000
C -7.121000 -28.140600 -36.232900
O -6.924600 -29.330700 -36.296600
C -6.743300 -25.915200 -36.997600
C -6.604100 -23.813800 -37.173500
N -6.582700 -27.263500 -37.160800
H -6.377500 -22.922000 -37.395300
N -6.188200 -24.940300 -37.762400
H -6.186700 -27.878100 -39.001200
C -5.696800 -27.804800 -38.205900
H -5.693600 -28.579200 -38.262000
H -5.216500 -27.274900 -38.669800
38
Fragment
H -14.090900 -25.693500 -31.685300
Cl -13.829300 -22.928500 -32.149200
C -13.609800 -25.646200 -32.501000
C -13.294200 -24.361600 -33.000600
H -13.224200 -28.122700 -32.679500
C -13.168500 -26.764600 -33.140800
C -12.560200 -24.237700 -34.142600
C -12.406700 -26.644000 -34.300700
H -12.397200 -23.394800 -34.438300
C -12.093400 -25.375600 -34.808000
O -12.002700 -27.777100 -34.892100
H -11.625800 -27.568400 -35.610900
C -11.313300 -25.271300 -36.046800
O -11.066000 -24.048600 -36.441900
O -10.903000 -26.257600 -36.658600
H -10.655700 -24.046900 -37.318800
H -9.391300 -28.285700 -34.030500
H -9.009600 -23.036100 -35.381500
O -8.845800 -25.824000 -34.104400
C -8.530900 -28.518800 -34.295600
C -8.157200 -26.203800 -35.014400
C -7.956000 -23.001900 -35.231100
H -7.912200 -23.264400 -34.310900
N -7.903500 -27.570000 -35.236200
H -7.538500 -22.221000 -35.381500
C -7.477300 -25.398400 -35.985600
N -7.381000 -24.024100 -36.108000
C -7.121000 -28.140600 -36.232900
O -6.924600 -29.330700 -36.296600
C -6.743300 -25.915200 -36.997600
C -6.604100 -23.813800 -37.173500
N -6.582700 -27.263500 -37.160800
H -6.377500 -22.922000 -37.395300
N -6.188200 -24.940300 -37.762400
H -6.186700 -27.878100 -39.001200
C -5.696800 -27.804800 -38.205900
H -5.693600 -28.579200 -38.262000
H -5.216500 -27.274900 -38.669800
