16
Fragment
H -14.090900 -25.693500 -31.685300
Cl -13.829300 -22.928500 -32.149200
C -13.609800 -25.646200 -32.501000
C -13.294200 -24.361600 -33.000600
H -13.224200 -28.122700 -32.679500
C -13.168500 -26.764600 -33.140800
C -12.560200 -24.237700 -34.142600
C -12.406700 -26.644000 -34.300700
H -12.397200 -23.394800 -34.438300
C -12.093400 -25.375600 -34.808000
O -12.002700 -27.777100 -34.892100
H -11.625800 -27.568400 -35.610900
C -11.313300 -25.271300 -36.046800
O -11.066000 -24.048600 -36.441900
O -10.903000 -26.257600 -36.658600
H -10.655700 -24.046900 -37.318800
22
Fragment
H -13.367300 -20.134200 -29.697000
H -12.985600 -14.884600 -28.346000
O -12.821800 -17.672500 -29.623100
C -12.506900 -20.367300 -29.431900
C -12.133200 -18.052300 -28.713100
C -11.932000 -14.850400 -28.496400
H -11.888200 -15.112900 -29.416600
N -11.879500 -19.418500 -28.491300
H -11.514500 -14.069500 -28.346000
C -11.453300 -17.246900 -27.741900
N -11.357000 -15.872600 -27.619500
C -11.097000 -19.989100 -27.494600
O -10.900600 -21.179200 -27.430900
C -10.719300 -17.763700 -26.729900
C -10.580100 -15.662300 -26.554000
N -10.558700 -19.112000 -26.566700
H -10.353500 -14.770500 -26.332200
N -10.164200 -16.788800 -25.965100
H -10.162700 -19.726600 -24.726300
C -9.672800 -19.653300 -25.521600
H -9.669600 -20.427700 -25.465500
H -9.192500 -19.123400 -25.057700
38
Fragment
H -14.090900 -25.693500 -31.685300
Cl -13.829300 -22.928500 -32.149200
C -13.609800 -25.646200 -32.501000
C -13.294200 -24.361600 -33.000600
H -13.224200 -28.122700 -32.679500
C -13.168500 -26.764600 -33.140800
C -12.560200 -24.237700 -34.142600
C -12.406700 -26.644000 -34.300700
H -12.397200 -23.394800 -34.438300
C -12.093400 -25.375600 -34.808000
O -12.002700 -27.777100 -34.892100
H -11.625800 -27.568400 -35.610900
C -11.313300 -25.271300 -36.046800
O -11.066000 -24.048600 -36.441900
O -10.903000 -26.257600 -36.658600
H -10.655700 -24.046900 -37.318800
H -13.367300 -20.134200 -29.697000
H -12.985600 -14.884600 -28.346000
O -12.821800 -17.672500 -29.623100
C -12.506900 -20.367300 -29.431900
C -12.133200 -18.052300 -28.713100
C -11.932000 -14.850400 -28.496400
H -11.888200 -15.112900 -29.416600
N -11.879500 -19.418500 -28.491300
H -11.514500 -14.069500 -28.346000
C -11.453300 -17.246900 -27.741900
N -11.357000 -15.872600 -27.619500
C -11.097000 -19.989100 -27.494600
O -10.900600 -21.179200 -27.430900
C -10.719300 -17.763700 -26.729900
C -10.580100 -15.662300 -26.554000
N -10.558700 -19.112000 -26.566700
H -10.353500 -14.770500 -26.332200
N -10.164200 -16.788800 -25.965100
H -10.162700 -19.726600 -24.726300
C -9.672800 -19.653300 -25.521600
H -9.669600 -20.427700 -25.465500
H -9.192500 -19.123400 -25.057700
