16
Fragment
H -14.090900 -25.693500 -31.685300
Cl -13.829300 -22.928500 -32.149200
C -13.609800 -25.646200 -32.501000
C -13.294200 -24.361600 -33.000600
H -13.224200 -28.122700 -32.679500
C -13.168500 -26.764600 -33.140800
C -12.560200 -24.237700 -34.142600
C -12.406700 -26.644000 -34.300700
H -12.397200 -23.394800 -34.438300
C -12.093400 -25.375600 -34.808000
O -12.002700 -27.777100 -34.892100
H -11.625800 -27.568400 -35.610900
C -11.313300 -25.271300 -36.046800
O -11.066000 -24.048600 -36.441900
O -10.903000 -26.257600 -36.658600
H -10.655700 -24.046900 -37.318800
16
Fragment
H -21.152300 -24.046900 -26.408700
O -20.905000 -26.257600 -27.068900
O -20.742000 -24.048600 -27.285600
C -20.494700 -25.271300 -27.680700
H -20.182200 -27.568400 -28.116600
O -19.805300 -27.777100 -28.835400
C -19.714600 -25.375600 -28.919500
H -19.410800 -23.394800 -29.289200
C -19.401300 -26.644000 -29.426800
C -19.247800 -24.237700 -29.584900
C -18.639500 -26.764600 -30.586700
H -18.583800 -28.122700 -31.048000
C -18.513800 -24.361600 -30.726900
C -18.198200 -25.646200 -31.226500
Cl -17.978700 -22.928500 -31.578300
H -17.717100 -25.693500 -32.042200
32
Fragment
H -14.090900 -25.693500 -31.685300
Cl -13.829300 -22.928500 -32.149200
C -13.609800 -25.646200 -32.501000
C -13.294200 -24.361600 -33.000600
H -13.224200 -28.122700 -32.679500
C -13.168500 -26.764600 -33.140800
C -12.560200 -24.237700 -34.142600
C -12.406700 -26.644000 -34.300700
H -12.397200 -23.394800 -34.438300
C -12.093400 -25.375600 -34.808000
O -12.002700 -27.777100 -34.892100
H -11.625800 -27.568400 -35.610900
C -11.313300 -25.271300 -36.046800
O -11.066000 -24.048600 -36.441900
O -10.903000 -26.257600 -36.658600
H -10.655700 -24.046900 -37.318800
H -21.152300 -24.046900 -26.408700
O -20.905000 -26.257600 -27.068900
O -20.742000 -24.048600 -27.285600
C -20.494700 -25.271300 -27.680700
H -20.182200 -27.568400 -28.116600
O -19.805300 -27.777100 -28.835400
C -19.714600 -25.375600 -28.919500
H -19.410800 -23.394800 -29.289200
C -19.401300 -26.644000 -29.426800
C -19.247800 -24.237700 -29.584900
C -18.639500 -26.764600 -30.586700
H -18.583800 -28.122700 -31.048000
C -18.513800 -24.361600 -30.726900
C -18.198200 -25.646200 -31.226500
Cl -17.978700 -22.928500 -31.578300
H -17.717100 -25.693500 -32.042200
