23
Fragment
H -22.938600 -9.702400 -23.193300
H -22.021100 -10.160800 -20.983800
C -21.972200 -9.675400 -23.033500
H -21.513300 -9.348200 -25.053300
C -21.423700 -9.848300 -21.736600
C -21.158400 -9.446900 -24.093300
C -20.101200 -9.785800 -21.514400
C -19.767500 -9.373200 -23.873600
H -19.666300 -9.862200 -20.709200
N -19.263100 -9.533000 -22.587500
N -18.769300 -9.167700 -24.719100
C -17.894000 -9.404500 -22.730700
H -17.879400 -8.813500 -20.066300
N -17.615400 -9.180900 -23.999700
C -17.070900 -9.119700 -20.363700
C -16.868700 -9.465600 -21.702700
H -16.120300 -8.910700 -18.574600
C -15.988800 -9.148900 -19.500100
C -15.565600 -9.831600 -22.080300
H -15.388700 -10.056600 -22.993600
N -14.741900 -9.466300 -19.857800
C -14.553800 -9.804500 -21.147400
H -13.596500 -10.015000 -21.375800
23
Fragment
H -22.585400 -10.820600 -16.073000
C -21.628200 -11.031100 -16.301500
N -21.440000 -11.369300 -17.591100
H -20.793200 -10.779000 -14.455300
C -20.616300 -11.004000 -15.368500
C -20.193200 -11.686700 -17.948700
H -20.061700 -11.924900 -18.874200
C -19.313200 -11.370000 -15.746100
C -19.111100 -11.715900 -17.085200
N -18.566600 -11.654700 -13.449100
H -18.302500 -12.022100 -17.382500
C -18.287900 -11.431100 -14.718100
N -17.412600 -11.667900 -12.729700
N -16.918800 -11.302600 -14.861300
H -16.515600 -10.973400 -16.739600
C -16.414400 -11.462400 -13.575200
C -16.080700 -11.049800 -15.934500
C -15.023500 -11.388700 -13.355500
C -14.758200 -10.987300 -15.712300
H -14.668600 -11.487400 -12.395600
C -14.209800 -11.160200 -14.415300
H -14.160800 -10.674800 -16.465000
H -13.243400 -11.133200 -14.255500
46
Fragment
H -22.938600 -9.702400 -23.193300
H -22.021100 -10.160800 -20.983800
C -21.972200 -9.675400 -23.033500
H -21.513300 -9.348200 -25.053300
C -21.423700 -9.848300 -21.736600
C -21.158400 -9.446900 -24.093300
C -20.101200 -9.785800 -21.514400
C -19.767500 -9.373200 -23.873600
H -19.666300 -9.862200 -20.709200
N -19.263100 -9.533000 -22.587500
N -18.769300 -9.167700 -24.719100
C -17.894000 -9.404500 -22.730700
H -17.879400 -8.813500 -20.066300
N -17.615400 -9.180900 -23.999700
C -17.070900 -9.119700 -20.363700
C -16.868700 -9.465600 -21.702700
H -16.120300 -8.910700 -18.574600
C -15.988800 -9.148900 -19.500100
C -15.565600 -9.831600 -22.080300
H -15.388700 -10.056600 -22.993600
N -14.741900 -9.466300 -19.857800
C -14.553800 -9.804500 -21.147400
H -13.596500 -10.015000 -21.375800
H -22.585400 -10.820600 -16.073000
C -21.628200 -11.031100 -16.301500
N -21.440000 -11.369300 -17.591100
H -20.793200 -10.779000 -14.455300
C -20.616300 -11.004000 -15.368500
C -20.193200 -11.686700 -17.948700
H -20.061700 -11.924900 -18.874200
C -19.313200 -11.370000 -15.746100
C -19.111100 -11.715900 -17.085200
N -18.566600 -11.654700 -13.449100
H -18.302500 -12.022100 -17.382500
C -18.287900 -11.431100 -14.718100
N -17.412600 -11.667900 -12.729700
N -16.918800 -11.302600 -14.861300
H -16.515600 -10.973400 -16.739600
C -16.414400 -11.462400 -13.575200
C -16.080700 -11.049800 -15.934500
C -15.023500 -11.388700 -13.355500
C -14.758200 -10.987300 -15.712300
H -14.668600 -11.487400 -12.395600
C -14.209800 -11.160200 -14.415300
H -14.160800 -10.674800 -16.465000
H -13.243400 -11.133200 -14.255500
