23
Fragment
H -22.938600 -9.702400 -23.193300
H -22.021100 -10.160800 -20.983800
C -21.972200 -9.675400 -23.033500
H -21.513300 -9.348200 -25.053300
C -21.423700 -9.848300 -21.736600
C -21.158400 -9.446900 -24.093300
C -20.101200 -9.785800 -21.514400
C -19.767500 -9.373200 -23.873600
H -19.666300 -9.862200 -20.709200
N -19.263100 -9.533000 -22.587500
N -18.769300 -9.167700 -24.719100
C -17.894000 -9.404500 -22.730700
H -17.879400 -8.813500 -20.066300
N -17.615400 -9.180900 -23.999700
C -17.070900 -9.119700 -20.363700
C -16.868700 -9.465600 -21.702700
H -16.120300 -8.910700 -18.574600
C -15.988800 -9.148900 -19.500100
C -15.565600 -9.831600 -22.080300
H -15.388700 -10.056600 -22.993600
N -14.741900 -9.466300 -19.857800
C -14.553800 -9.804500 -21.147400
H -13.596500 -10.015000 -21.375800
23
Fragment
H -21.808200 -7.660600 -29.434800
H -20.890800 -7.202200 -27.225300
C -20.841800 -7.687600 -29.275000
H -20.383000 -8.014800 -31.294800
C -20.293300 -7.514700 -27.978000
C -20.028100 -7.916100 -30.334800
C -18.970900 -7.577200 -27.755800
C -18.637200 -7.989800 -30.115100
H -18.536000 -7.500800 -26.950700
N -18.132800 -7.830000 -28.829000
N -17.638900 -8.195300 -30.960600
C -16.763700 -7.958500 -28.972200
H -16.749100 -8.549500 -26.307800
N -16.485000 -8.182100 -30.241200
C -15.940500 -8.243300 -26.605200
C -15.738400 -7.897400 -27.944200
H -14.989900 -8.452300 -24.816100
C -14.858400 -8.214100 -25.741600
C -14.435300 -7.531400 -28.321800
H -14.258400 -7.306400 -29.235100
N -13.611600 -7.896700 -26.099200
C -13.423400 -7.558500 -27.388800
H -12.466200 -7.348000 -27.617300
46
Fragment
H -22.938600 -9.702400 -23.193300
H -22.021100 -10.160800 -20.983800
C -21.972200 -9.675400 -23.033500
H -21.513300 -9.348200 -25.053300
C -21.423700 -9.848300 -21.736600
C -21.158400 -9.446900 -24.093300
C -20.101200 -9.785800 -21.514400
C -19.767500 -9.373200 -23.873600
H -19.666300 -9.862200 -20.709200
N -19.263100 -9.533000 -22.587500
N -18.769300 -9.167700 -24.719100
C -17.894000 -9.404500 -22.730700
H -17.879400 -8.813500 -20.066300
N -17.615400 -9.180900 -23.999700
C -17.070900 -9.119700 -20.363700
C -16.868700 -9.465600 -21.702700
H -16.120300 -8.910700 -18.574600
C -15.988800 -9.148900 -19.500100
C -15.565600 -9.831600 -22.080300
H -15.388700 -10.056600 -22.993600
N -14.741900 -9.466300 -19.857800
C -14.553800 -9.804500 -21.147400
H -13.596500 -10.015000 -21.375800
H -21.808200 -7.660600 -29.434800
H -20.890800 -7.202200 -27.225300
C -20.841800 -7.687600 -29.275000
H -20.383000 -8.014800 -31.294800
C -20.293300 -7.514700 -27.978000
C -20.028100 -7.916100 -30.334800
C -18.970900 -7.577200 -27.755800
C -18.637200 -7.989800 -30.115100
H -18.536000 -7.500800 -26.950700
N -18.132800 -7.830000 -28.829000
N -17.638900 -8.195300 -30.960600
C -16.763700 -7.958500 -28.972200
H -16.749100 -8.549500 -26.307800
N -16.485000 -8.182100 -30.241200
C -15.940500 -8.243300 -26.605200
C -15.738400 -7.897400 -27.944200
H -14.989900 -8.452300 -24.816100
C -14.858400 -8.214100 -25.741600
C -14.435300 -7.531400 -28.321800
H -14.258400 -7.306400 -29.235100
N -13.611600 -7.896700 -26.099200
C -13.423400 -7.558500 -27.388800
H -12.466200 -7.348000 -27.617300
