15
Fragment
H -45.915800 -4.791600 -34.959100
H -45.565800 -5.595800 -37.075900
O -45.354700 -4.182800 -32.653500
C -45.087700 -5.145800 -35.194800
C -44.872100 -5.620800 -36.455000
N -44.281900 -4.677400 -32.947000
C -44.060900 -5.199700 -34.279000
C -43.641300 -6.139600 -36.826500
O -43.507500 -6.594900 -38.077200
O -43.363700 -4.731600 -32.143700
C -42.825600 -5.705800 -34.617100
H -42.744300 -6.876100 -38.184600
C -42.613800 -6.173800 -35.892900
H -42.141000 -5.730800 -33.987600
H -41.781700 -6.513400 -36.129500
15
Fragment
H -51.465400 -1.178400 -32.449100
H -51.106100 -1.961000 -34.591100
C -50.633300 -1.518000 -32.685700
H -50.502700 -0.815700 -30.394100
C -50.421500 -1.986000 -33.961500
O -49.883300 -2.960200 -36.434900
O -49.739500 -1.096900 -30.501500
C -49.605800 -1.552200 -31.752200
C -49.186200 -2.492100 -34.299600
N -48.965100 -3.014400 -35.631600
C -48.374900 -2.071000 -32.123600
C -48.159400 -2.546000 -33.383900
O -47.892400 -3.509000 -35.925200
H -47.681300 -2.096000 -31.502800
H -47.331300 -2.900200 -33.619500
30
Fragment
H -45.915800 -4.791600 -34.959100
H -45.565800 -5.595800 -37.075900
O -45.354700 -4.182800 -32.653500
C -45.087700 -5.145800 -35.194800
C -44.872100 -5.620800 -36.455000
N -44.281900 -4.677400 -32.947000
C -44.060900 -5.199700 -34.279000
C -43.641300 -6.139600 -36.826500
O -43.507500 -6.594900 -38.077200
O -43.363700 -4.731600 -32.143700
C -42.825600 -5.705800 -34.617100
H -42.744300 -6.876100 -38.184600
C -42.613800 -6.173800 -35.892900
H -42.141000 -5.730800 -33.987600
H -41.781700 -6.513400 -36.129500
H -51.465400 -1.178400 -32.449100
H -51.106100 -1.961000 -34.591100
C -50.633300 -1.518000 -32.685700
H -50.502700 -0.815700 -30.394100
C -50.421500 -1.986000 -33.961500
O -49.883300 -2.960200 -36.434900
O -49.739500 -1.096900 -30.501500
C -49.605800 -1.552200 -31.752200
C -49.186200 -2.492100 -34.299600
N -48.965100 -3.014400 -35.631600
C -48.374900 -2.071000 -32.123600
C -48.159400 -2.546000 -33.383900
O -47.892400 -3.509000 -35.925200
H -47.681300 -2.096000 -31.502800
H -47.331300 -2.900200 -33.619500
