15
Fragment
H -45.915800 -4.791600 -34.959100
H -45.565800 -5.595800 -37.075900
O -45.354700 -4.182800 -32.653500
C -45.087700 -5.145800 -35.194800
C -44.872100 -5.620800 -36.455000
N -44.281900 -4.677400 -32.947000
C -44.060900 -5.199700 -34.279000
C -43.641300 -6.139600 -36.826500
O -43.507500 -6.594900 -38.077200
O -43.363700 -4.731600 -32.143700
C -42.825600 -5.705800 -34.617100
H -42.744300 -6.876100 -38.184600
C -42.613800 -6.173800 -35.892900
H -42.141000 -5.730800 -33.987600
H -41.781700 -6.513400 -36.129500
15
Fragment
H -39.875000 -8.101000 -32.033100
O -39.768600 -7.826800 -34.449400
H -39.180800 -8.744800 -29.932300
C -39.058400 -8.530200 -31.917000
N -38.672000 -8.353300 -34.317000
C -38.644500 -8.920200 -30.672500
C -38.241300 -8.785600 -32.994600
O -37.899900 -8.527100 -35.249200
C -37.434800 -9.574000 -30.505600
O -37.105600 -9.971300 -29.253400
C -37.024100 -9.408600 -32.846200
C -36.606300 -9.809000 -31.601700
H -36.485000 -9.558600 -33.587500
H -36.375100 -10.344700 -29.267100
H -35.784000 -10.230100 -31.491300
30
Fragment
H -45.915800 -4.791600 -34.959100
H -45.565800 -5.595800 -37.075900
O -45.354700 -4.182800 -32.653500
C -45.087700 -5.145800 -35.194800
C -44.872100 -5.620800 -36.455000
N -44.281900 -4.677400 -32.947000
C -44.060900 -5.199700 -34.279000
C -43.641300 -6.139600 -36.826500
O -43.507500 -6.594900 -38.077200
O -43.363700 -4.731600 -32.143700
C -42.825600 -5.705800 -34.617100
H -42.744300 -6.876100 -38.184600
C -42.613800 -6.173800 -35.892900
H -42.141000 -5.730800 -33.987600
H -41.781700 -6.513400 -36.129500
H -39.875000 -8.101000 -32.033100
O -39.768600 -7.826800 -34.449400
H -39.180800 -8.744800 -29.932300
C -39.058400 -8.530200 -31.917000
N -38.672000 -8.353300 -34.317000
C -38.644500 -8.920200 -30.672500
C -38.241300 -8.785600 -32.994600
O -37.899900 -8.527100 -35.249200
C -37.434800 -9.574000 -30.505600
O -37.105600 -9.971300 -29.253400
C -37.024100 -9.408600 -32.846200
C -36.606300 -9.809000 -31.601700
H -36.485000 -9.558600 -33.587500
H -36.375100 -10.344700 -29.267100
H -35.784000 -10.230100 -31.491300
