15
Fragment
H -45.915800 -4.791600 -34.959100
H -45.565800 -5.595800 -37.075900
O -45.354700 -4.182800 -32.653500
C -45.087700 -5.145800 -35.194800
C -44.872100 -5.620800 -36.455000
N -44.281900 -4.677400 -32.947000
C -44.060900 -5.199700 -34.279000
C -43.641300 -6.139600 -36.826500
O -43.507500 -6.594900 -38.077200
O -43.363700 -4.731600 -32.143700
C -42.825600 -5.705800 -34.617100
H -42.744300 -6.876100 -38.184600
C -42.613800 -6.173800 -35.892900
H -42.141000 -5.730800 -33.987600
H -41.781700 -6.513400 -36.129500
15
Fragment
H -45.915800 -0.945700 -34.959100
H -45.565800 -1.749900 -37.075900
O -45.354700 -0.336900 -32.653500
C -45.087700 -1.299900 -35.194800
C -44.872100 -1.774900 -36.455000
N -44.281900 -0.831500 -32.947000
C -44.060900 -1.353800 -34.279000
C -43.641300 -2.293700 -36.826500
O -43.507500 -2.749000 -38.077200
O -43.363700 -0.885700 -32.143700
C -42.825600 -1.859900 -34.617100
H -42.744300 -3.030200 -38.184600
C -42.613800 -2.327900 -35.892900
H -42.141000 -1.884900 -33.987600
H -41.781700 -2.667500 -36.129500
30
Fragment
H -45.915800 -4.791600 -34.959100
H -45.565800 -5.595800 -37.075900
O -45.354700 -4.182800 -32.653500
C -45.087700 -5.145800 -35.194800
C -44.872100 -5.620800 -36.455000
N -44.281900 -4.677400 -32.947000
C -44.060900 -5.199700 -34.279000
C -43.641300 -6.139600 -36.826500
O -43.507500 -6.594900 -38.077200
O -43.363700 -4.731600 -32.143700
C -42.825600 -5.705800 -34.617100
H -42.744300 -6.876100 -38.184600
C -42.613800 -6.173800 -35.892900
H -42.141000 -5.730800 -33.987600
H -41.781700 -6.513400 -36.129500
H -45.915800 -0.945700 -34.959100
H -45.565800 -1.749900 -37.075900
O -45.354700 -0.336900 -32.653500
C -45.087700 -1.299900 -35.194800
C -44.872100 -1.774900 -36.455000
N -44.281900 -0.831500 -32.947000
C -44.060900 -1.353800 -34.279000
C -43.641300 -2.293700 -36.826500
O -43.507500 -2.749000 -38.077200
O -43.363700 -0.885700 -32.143700
C -42.825600 -1.859900 -34.617100
H -42.744300 -3.030200 -38.184600
C -42.613800 -2.327900 -35.892900
H -42.141000 -1.884900 -33.987600
H -41.781700 -2.667500 -36.129500
