15
Fragment
H -45.915800 -4.791600 -34.959100
H -45.565800 -5.595800 -37.075900
O -45.354700 -4.182800 -32.653500
C -45.087700 -5.145800 -35.194800
C -44.872100 -5.620800 -36.455000
N -44.281900 -4.677400 -32.947000
C -44.060900 -5.199700 -34.279000
C -43.641300 -6.139600 -36.826500
O -43.507500 -6.594900 -38.077200
O -43.363700 -4.731600 -32.143700
C -42.825600 -5.705800 -34.617100
H -42.744300 -6.876100 -38.184600
C -42.613800 -6.173800 -35.892900
H -42.141000 -5.730800 -33.987600
H -41.781700 -6.513400 -36.129500
15
Fragment
H -51.465400 -5.024300 -32.449100
H -51.106100 -5.806900 -34.591100
C -50.633300 -5.363900 -32.685700
H -50.502700 -4.661600 -30.394100
C -50.421500 -5.831900 -33.961500
O -49.883300 -6.806100 -36.434900
O -49.739500 -4.942800 -30.501500
C -49.605800 -5.398100 -31.752200
C -49.186200 -6.338000 -34.299600
N -48.965100 -6.860300 -35.631600
C -48.374900 -5.916900 -32.123600
C -48.159400 -6.391900 -33.383900
O -47.892400 -7.354900 -35.925200
H -47.681300 -5.941900 -31.502800
H -47.331300 -6.746100 -33.619500
30
Fragment
H -45.915800 -4.791600 -34.959100
H -45.565800 -5.595800 -37.075900
O -45.354700 -4.182800 -32.653500
C -45.087700 -5.145800 -35.194800
C -44.872100 -5.620800 -36.455000
N -44.281900 -4.677400 -32.947000
C -44.060900 -5.199700 -34.279000
C -43.641300 -6.139600 -36.826500
O -43.507500 -6.594900 -38.077200
O -43.363700 -4.731600 -32.143700
C -42.825600 -5.705800 -34.617100
H -42.744300 -6.876100 -38.184600
C -42.613800 -6.173800 -35.892900
H -42.141000 -5.730800 -33.987600
H -41.781700 -6.513400 -36.129500
H -51.465400 -5.024300 -32.449100
H -51.106100 -5.806900 -34.591100
C -50.633300 -5.363900 -32.685700
H -50.502700 -4.661600 -30.394100
C -50.421500 -5.831900 -33.961500
O -49.883300 -6.806100 -36.434900
O -49.739500 -4.942800 -30.501500
C -49.605800 -5.398100 -31.752200
C -49.186200 -6.338000 -34.299600
N -48.965100 -6.860300 -35.631600
C -48.374900 -5.916900 -32.123600
C -48.159400 -6.391900 -33.383900
O -47.892400 -7.354900 -35.925200
H -47.681300 -5.941900 -31.502800
H -47.331300 -6.746100 -33.619500
