15
Fragment
H -45.915800 -4.791600 -34.959100
H -45.565800 -5.595800 -37.075900
O -45.354700 -4.182800 -32.653500
C -45.087700 -5.145800 -35.194800
C -44.872100 -5.620800 -36.455000
N -44.281900 -4.677400 -32.947000
C -44.060900 -5.199700 -34.279000
C -43.641300 -6.139600 -36.826500
O -43.507500 -6.594900 -38.077200
O -43.363700 -4.731600 -32.143700
C -42.825600 -5.705800 -34.617100
H -42.744300 -6.876100 -38.184600
C -42.613800 -6.173800 -35.892900
H -42.141000 -5.730800 -33.987600
H -41.781700 -6.513400 -36.129500
17
Fragment
H -52.050700 -4.961200 -38.968700
N -51.536100 -5.017700 -38.241800
H -51.507200 -5.838100 -37.887400
O -50.417700 -5.897700 -40.632400
N -50.220300 -4.760100 -38.701500
C -49.767700 -5.174300 -39.874400
H -49.766400 -4.215100 -38.168600
H -48.749400 -5.012700 -42.249000
C -48.408500 -4.696200 -40.289100
C -48.121100 -4.704700 -41.635000
H -47.576800 -4.235900 -38.506900
C -47.425000 -4.251600 -39.423400
C -46.891500 -4.250500 -42.057900
H -46.716500 -4.247800 -42.971400
C -46.216600 -3.832100 -39.934500
N -45.937700 -3.814700 -41.237700
H -45.562700 -3.546300 -39.339000
32
Fragment
H -45.915800 -4.791600 -34.959100
H -45.565800 -5.595800 -37.075900
O -45.354700 -4.182800 -32.653500
C -45.087700 -5.145800 -35.194800
C -44.872100 -5.620800 -36.455000
N -44.281900 -4.677400 -32.947000
C -44.060900 -5.199700 -34.279000
C -43.641300 -6.139600 -36.826500
O -43.507500 -6.594900 -38.077200
O -43.363700 -4.731600 -32.143700
C -42.825600 -5.705800 -34.617100
H -42.744300 -6.876100 -38.184600
C -42.613800 -6.173800 -35.892900
H -42.141000 -5.730800 -33.987600
H -41.781700 -6.513400 -36.129500
H -52.050700 -4.961200 -38.968700
N -51.536100 -5.017700 -38.241800
H -51.507200 -5.838100 -37.887400
O -50.417700 -5.897700 -40.632400
N -50.220300 -4.760100 -38.701500
C -49.767700 -5.174300 -39.874400
H -49.766400 -4.215100 -38.168600
H -48.749400 -5.012700 -42.249000
C -48.408500 -4.696200 -40.289100
C -48.121100 -4.704700 -41.635000
H -47.576800 -4.235900 -38.506900
C -47.425000 -4.251600 -39.423400
C -46.891500 -4.250500 -42.057900
H -46.716500 -4.247800 -42.971400
C -46.216600 -3.832100 -39.934500
N -45.937700 -3.814700 -41.237700
H -45.562700 -3.546300 -39.339000
