32
Fragment
H -13.090900 -19.857900 -12.247100
H -12.661800 -24.124000 -12.989600
N -12.604600 -22.245000 -12.501500
N -12.342400 -20.043800 -11.866200
C -12.131200 -23.505400 -12.541600
H -11.893100 -19.423000 -11.475700
C -11.876200 -21.299900 -11.882100
N -11.007400 -23.975900 -12.024500
C -10.649100 -21.679400 -11.318000
H -10.545600 -25.825700 -12.465600
O -10.323100 -26.614100 -12.493300
C -10.292400 -23.015200 -11.416200
H -9.735300 -25.534500 -10.104100
N -9.656100 -20.956000 -10.665400
N -9.066100 -23.114900 -10.801600
C -8.997600 -26.716300 -13.014500
H -8.949400 -26.220700 -13.846800
H -8.809200 -27.646800 -13.212200
C -8.768700 -25.475600 -9.951300
C -8.735300 -21.851500 -10.394500
H -8.605600 -27.473500 -10.568700
O -8.514500 -25.389200 -8.567300
C -8.198600 -24.289700 -10.728400
C -8.069400 -26.655300 -10.635000
O -8.008100 -24.740400 -12.050100
C -7.944700 -26.195100 -12.075700
H -7.935900 -21.646100 -9.966500
H -7.856100 -25.841200 -8.382100
H -7.334300 -24.033900 -10.344000
H -7.065200 -26.463300 -12.414400
O -6.806700 -26.817900 -10.012200
H -6.619000 -27.615600 -9.979000
32
Fragment
H -14.705400 -18.951600 -17.673200
O -14.517800 -18.153900 -17.640000
H -14.259300 -17.799300 -15.237700
H -13.990200 -15.369900 -17.308200
H -13.468300 -17.177200 -19.270100
H -13.388500 -12.982100 -17.685600
C -13.379800 -17.531100 -15.576500
O -13.316400 -16.076400 -15.602000
C -13.255100 -17.991300 -17.017100
C -13.125800 -15.625700 -16.923800
O -12.809900 -16.725200 -19.084800
H -12.718800 -18.809500 -17.083500
C -12.589100 -13.187500 -17.257700
C -12.555700 -16.811600 -17.700800
H -12.515200 -18.982800 -14.440000
H -12.375100 -17.556700 -13.805300
C -12.326800 -18.052300 -14.637700
N -12.258300 -14.450900 -16.850500
N -11.668300 -12.292000 -16.986700
H -11.589200 -16.870500 -17.548100
C -11.032100 -14.351200 -16.236000
O -11.001300 -17.950100 -15.158900
H -10.778800 -17.161700 -15.186600
C -10.675400 -13.015400 -16.334100
N -10.317100 -15.311900 -15.627600
C -9.448200 -12.635900 -15.770000
H -9.431300 -10.759000 -16.176500
C -9.193200 -14.841400 -15.110500
N -8.982000 -11.379800 -15.785900
N -8.719800 -13.581000 -15.150600
H -8.662700 -15.460000 -14.662600
H -8.233500 -11.193900 -15.405000
64
Fragment
H -13.090900 -19.857900 -12.247100
H -12.661800 -24.124000 -12.989600
N -12.604600 -22.245000 -12.501500
N -12.342400 -20.043800 -11.866200
C -12.131200 -23.505400 -12.541600
H -11.893100 -19.423000 -11.475700
C -11.876200 -21.299900 -11.882100
N -11.007400 -23.975900 -12.024500
C -10.649100 -21.679400 -11.318000
H -10.545600 -25.825700 -12.465600
O -10.323100 -26.614100 -12.493300
C -10.292400 -23.015200 -11.416200
H -9.735300 -25.534500 -10.104100
N -9.656100 -20.956000 -10.665400
N -9.066100 -23.114900 -10.801600
C -8.997600 -26.716300 -13.014500
H -8.949400 -26.220700 -13.846800
H -8.809200 -27.646800 -13.212200
C -8.768700 -25.475600 -9.951300
C -8.735300 -21.851500 -10.394500
H -8.605600 -27.473500 -10.568700
O -8.514500 -25.389200 -8.567300
C -8.198600 -24.289700 -10.728400
C -8.069400 -26.655300 -10.635000
O -8.008100 -24.740400 -12.050100
C -7.944700 -26.195100 -12.075700
H -7.935900 -21.646100 -9.966500
H -7.856100 -25.841200 -8.382100
H -7.334300 -24.033900 -10.344000
H -7.065200 -26.463300 -12.414400
O -6.806700 -26.817900 -10.012200
H -6.619000 -27.615600 -9.979000
H -14.705400 -18.951600 -17.673200
O -14.517800 -18.153900 -17.640000
H -14.259300 -17.799300 -15.237700
H -13.990200 -15.369900 -17.308200
H -13.468300 -17.177200 -19.270100
H -13.388500 -12.982100 -17.685600
C -13.379800 -17.531100 -15.576500
O -13.316400 -16.076400 -15.602000
C -13.255100 -17.991300 -17.017100
C -13.125800 -15.625700 -16.923800
O -12.809900 -16.725200 -19.084800
H -12.718800 -18.809500 -17.083500
C -12.589100 -13.187500 -17.257700
C -12.555700 -16.811600 -17.700800
H -12.515200 -18.982800 -14.440000
H -12.375100 -17.556700 -13.805300
C -12.326800 -18.052300 -14.637700
N -12.258300 -14.450900 -16.850500
N -11.668300 -12.292000 -16.986700
H -11.589200 -16.870500 -17.548100
C -11.032100 -14.351200 -16.236000
O -11.001300 -17.950100 -15.158900
H -10.778800 -17.161700 -15.186600
C -10.675400 -13.015400 -16.334100
N -10.317100 -15.311900 -15.627600
C -9.448200 -12.635900 -15.770000
H -9.431300 -10.759000 -16.176500
C -9.193200 -14.841400 -15.110500
N -8.982000 -11.379800 -15.785900
N -8.719800 -13.581000 -15.150600
H -8.662700 -15.460000 -14.662600
H -8.233500 -11.193900 -15.405000
