32
Fragment
H -13.090900 -19.857900 -12.247100
H -12.661800 -24.124000 -12.989600
N -12.604600 -22.245000 -12.501500
N -12.342400 -20.043800 -11.866200
C -12.131200 -23.505400 -12.541600
H -11.893100 -19.423000 -11.475700
C -11.876200 -21.299900 -11.882100
N -11.007400 -23.975900 -12.024500
C -10.649100 -21.679400 -11.318000
H -10.545600 -25.825700 -12.465600
O -10.323100 -26.614100 -12.493300
C -10.292400 -23.015200 -11.416200
H -9.735300 -25.534500 -10.104100
N -9.656100 -20.956000 -10.665400
N -9.066100 -23.114900 -10.801600
C -8.997600 -26.716300 -13.014500
H -8.949400 -26.220700 -13.846800
H -8.809200 -27.646800 -13.212200
C -8.768700 -25.475600 -9.951300
C -8.735300 -21.851500 -10.394500
H -8.605600 -27.473500 -10.568700
O -8.514500 -25.389200 -8.567300
C -8.198600 -24.289700 -10.728400
C -8.069400 -26.655300 -10.635000
O -8.008100 -24.740400 -12.050100
C -7.944700 -26.195100 -12.075700
H -7.935900 -21.646100 -9.966500
H -7.856100 -25.841200 -8.382100
H -7.334300 -24.033900 -10.344000
H -7.065200 -26.463300 -12.414400
O -6.806700 -26.817900 -10.012200
H -6.619000 -27.615600 -9.979000
32
Fragment
H -16.359600 -18.951600 -10.760200
O -16.172000 -18.153900 -10.727000
H -15.913400 -17.799300 -8.324700
H -15.644300 -15.369900 -10.395100
H -15.122500 -17.177200 -12.357100
H -15.042700 -12.982100 -10.772600
C -15.034000 -17.531100 -8.663400
O -14.970600 -16.076400 -8.689000
C -14.909300 -17.991300 -10.104100
C -14.780000 -15.625700 -10.010800
O -14.464100 -16.725200 -12.171800
H -14.373000 -18.809500 -10.170500
C -14.243300 -13.187500 -10.344700
C -14.209900 -16.811600 -10.787800
H -14.169400 -18.982800 -7.526900
H -14.029300 -17.556700 -6.892300
C -13.981000 -18.052300 -7.724600
N -13.912500 -14.450900 -9.937500
N -13.322500 -12.292000 -10.073700
H -13.243400 -16.870500 -10.635000
C -12.686300 -14.351200 -9.322900
O -12.655500 -17.950100 -8.245900
H -12.433000 -17.161700 -8.273500
C -12.329600 -13.015400 -9.421100
N -11.971200 -15.311900 -8.714600
C -11.102400 -12.635900 -8.857000
H -11.085500 -10.759000 -9.263500
C -10.847400 -14.841400 -8.197500
N -10.636200 -11.379800 -8.872900
N -10.374000 -13.581000 -8.237600
H -10.316800 -15.460000 -7.749500
H -9.887700 -11.193900 -8.492000
64
Fragment
H -13.090900 -19.857900 -12.247100
H -12.661800 -24.124000 -12.989600
N -12.604600 -22.245000 -12.501500
N -12.342400 -20.043800 -11.866200
C -12.131200 -23.505400 -12.541600
H -11.893100 -19.423000 -11.475700
C -11.876200 -21.299900 -11.882100
N -11.007400 -23.975900 -12.024500
C -10.649100 -21.679400 -11.318000
H -10.545600 -25.825700 -12.465600
O -10.323100 -26.614100 -12.493300
C -10.292400 -23.015200 -11.416200
H -9.735300 -25.534500 -10.104100
N -9.656100 -20.956000 -10.665400
N -9.066100 -23.114900 -10.801600
C -8.997600 -26.716300 -13.014500
H -8.949400 -26.220700 -13.846800
H -8.809200 -27.646800 -13.212200
C -8.768700 -25.475600 -9.951300
C -8.735300 -21.851500 -10.394500
H -8.605600 -27.473500 -10.568700
O -8.514500 -25.389200 -8.567300
C -8.198600 -24.289700 -10.728400
C -8.069400 -26.655300 -10.635000
O -8.008100 -24.740400 -12.050100
C -7.944700 -26.195100 -12.075700
H -7.935900 -21.646100 -9.966500
H -7.856100 -25.841200 -8.382100
H -7.334300 -24.033900 -10.344000
H -7.065200 -26.463300 -12.414400
O -6.806700 -26.817900 -10.012200
H -6.619000 -27.615600 -9.979000
H -16.359600 -18.951600 -10.760200
O -16.172000 -18.153900 -10.727000
H -15.913400 -17.799300 -8.324700
H -15.644300 -15.369900 -10.395100
H -15.122500 -17.177200 -12.357100
H -15.042700 -12.982100 -10.772600
C -15.034000 -17.531100 -8.663400
O -14.970600 -16.076400 -8.689000
C -14.909300 -17.991300 -10.104100
C -14.780000 -15.625700 -10.010800
O -14.464100 -16.725200 -12.171800
H -14.373000 -18.809500 -10.170500
C -14.243300 -13.187500 -10.344700
C -14.209900 -16.811600 -10.787800
H -14.169400 -18.982800 -7.526900
H -14.029300 -17.556700 -6.892300
C -13.981000 -18.052300 -7.724600
N -13.912500 -14.450900 -9.937500
N -13.322500 -12.292000 -10.073700
H -13.243400 -16.870500 -10.635000
C -12.686300 -14.351200 -9.322900
O -12.655500 -17.950100 -8.245900
H -12.433000 -17.161700 -8.273500
C -12.329600 -13.015400 -9.421100
N -11.971200 -15.311900 -8.714600
C -11.102400 -12.635900 -8.857000
H -11.085500 -10.759000 -9.263500
C -10.847400 -14.841400 -8.197500
N -10.636200 -11.379800 -8.872900
N -10.374000 -13.581000 -8.237600
H -10.316800 -15.460000 -7.749500
H -9.887700 -11.193900 -8.492000
