32
Fragment
H -13.090900 -19.857900 -12.247100
H -12.661800 -24.124000 -12.989600
N -12.604600 -22.245000 -12.501500
N -12.342400 -20.043800 -11.866200
C -12.131200 -23.505400 -12.541600
H -11.893100 -19.423000 -11.475700
C -11.876200 -21.299900 -11.882100
N -11.007400 -23.975900 -12.024500
C -10.649100 -21.679400 -11.318000
H -10.545600 -25.825700 -12.465600
O -10.323100 -26.614100 -12.493300
C -10.292400 -23.015200 -11.416200
H -9.735300 -25.534500 -10.104100
N -9.656100 -20.956000 -10.665400
N -9.066100 -23.114900 -10.801600
C -8.997600 -26.716300 -13.014500
H -8.949400 -26.220700 -13.846800
H -8.809200 -27.646800 -13.212200
C -8.768700 -25.475600 -9.951300
C -8.735300 -21.851500 -10.394500
H -8.605600 -27.473500 -10.568700
O -8.514500 -25.389200 -8.567300
C -8.198600 -24.289700 -10.728400
C -8.069400 -26.655300 -10.635000
O -8.008100 -24.740400 -12.050100
C -7.944700 -26.195100 -12.075700
H -7.935900 -21.646100 -9.966500
H -7.856100 -25.841200 -8.382100
H -7.334300 -24.033900 -10.344000
H -7.065200 -26.463300 -12.414400
O -6.806700 -26.817900 -10.012200
H -6.619000 -27.615600 -9.979000
32
Fragment
H -14.745100 -19.857900 -5.334100
H -14.316000 -24.124000 -6.076600
N -14.258800 -22.245000 -5.588500
N -13.996600 -20.043800 -4.953200
C -13.785400 -23.505400 -5.628600
H -13.547300 -19.423000 -4.562600
C -13.530400 -21.299900 -4.969100
N -12.661600 -23.975900 -5.111500
C -12.303200 -21.679400 -4.405000
H -12.199800 -25.825700 -5.552600
O -11.977300 -26.614100 -5.580200
C -11.946600 -23.015200 -4.503200
H -11.389500 -25.534500 -3.191100
N -11.310300 -20.956000 -3.752400
N -10.720300 -23.114900 -3.888600
C -10.651800 -26.716300 -6.101500
H -10.603500 -26.220700 -6.933800
H -10.463400 -27.646800 -6.299200
C -10.422900 -25.475600 -3.038300
C -10.389500 -21.851500 -3.481400
H -10.259800 -27.473500 -3.655600
O -10.168700 -25.389200 -1.654300
C -9.852800 -24.289700 -3.815300
C -9.723500 -26.655300 -3.722000
O -9.662300 -24.740400 -5.137100
C -9.598900 -26.195100 -5.162700
H -9.590100 -21.646100 -3.053500
H -9.510300 -25.841200 -1.469000
H -8.988500 -24.033900 -3.430900
H -8.719400 -26.463300 -5.501400
O -8.460900 -26.817900 -3.099100
H -8.273200 -27.615600 -3.065900
64
Fragment
H -13.090900 -19.857900 -12.247100
H -12.661800 -24.124000 -12.989600
N -12.604600 -22.245000 -12.501500
N -12.342400 -20.043800 -11.866200
C -12.131200 -23.505400 -12.541600
H -11.893100 -19.423000 -11.475700
C -11.876200 -21.299900 -11.882100
N -11.007400 -23.975900 -12.024500
C -10.649100 -21.679400 -11.318000
H -10.545600 -25.825700 -12.465600
O -10.323100 -26.614100 -12.493300
C -10.292400 -23.015200 -11.416200
H -9.735300 -25.534500 -10.104100
N -9.656100 -20.956000 -10.665400
N -9.066100 -23.114900 -10.801600
C -8.997600 -26.716300 -13.014500
H -8.949400 -26.220700 -13.846800
H -8.809200 -27.646800 -13.212200
C -8.768700 -25.475600 -9.951300
C -8.735300 -21.851500 -10.394500
H -8.605600 -27.473500 -10.568700
O -8.514500 -25.389200 -8.567300
C -8.198600 -24.289700 -10.728400
C -8.069400 -26.655300 -10.635000
O -8.008100 -24.740400 -12.050100
C -7.944700 -26.195100 -12.075700
H -7.935900 -21.646100 -9.966500
H -7.856100 -25.841200 -8.382100
H -7.334300 -24.033900 -10.344000
H -7.065200 -26.463300 -12.414400
O -6.806700 -26.817900 -10.012200
H -6.619000 -27.615600 -9.979000
H -14.745100 -19.857900 -5.334100
H -14.316000 -24.124000 -6.076600
N -14.258800 -22.245000 -5.588500
N -13.996600 -20.043800 -4.953200
C -13.785400 -23.505400 -5.628600
H -13.547300 -19.423000 -4.562600
C -13.530400 -21.299900 -4.969100
N -12.661600 -23.975900 -5.111500
C -12.303200 -21.679400 -4.405000
H -12.199800 -25.825700 -5.552600
O -11.977300 -26.614100 -5.580200
C -11.946600 -23.015200 -4.503200
H -11.389500 -25.534500 -3.191100
N -11.310300 -20.956000 -3.752400
N -10.720300 -23.114900 -3.888600
C -10.651800 -26.716300 -6.101500
H -10.603500 -26.220700 -6.933800
H -10.463400 -27.646800 -6.299200
C -10.422900 -25.475600 -3.038300
C -10.389500 -21.851500 -3.481400
H -10.259800 -27.473500 -3.655600
O -10.168700 -25.389200 -1.654300
C -9.852800 -24.289700 -3.815300
C -9.723500 -26.655300 -3.722000
O -9.662300 -24.740400 -5.137100
C -9.598900 -26.195100 -5.162700
H -9.590100 -21.646100 -3.053500
H -9.510300 -25.841200 -1.469000
H -8.988500 -24.033900 -3.430900
H -8.719400 -26.463300 -5.501400
O -8.460900 -26.817900 -3.099100
H -8.273200 -27.615600 -3.065900
