32
Fragment
H -13.090900 -19.857900 -12.247100
H -12.661800 -24.124000 -12.989600
N -12.604600 -22.245000 -12.501500
N -12.342400 -20.043800 -11.866200
C -12.131200 -23.505400 -12.541600
H -11.893100 -19.423000 -11.475700
C -11.876200 -21.299900 -11.882100
N -11.007400 -23.975900 -12.024500
C -10.649100 -21.679400 -11.318000
H -10.545600 -25.825700 -12.465600
O -10.323100 -26.614100 -12.493300
C -10.292400 -23.015200 -11.416200
H -9.735300 -25.534500 -10.104100
N -9.656100 -20.956000 -10.665400
N -9.066100 -23.114900 -10.801600
C -8.997600 -26.716300 -13.014500
H -8.949400 -26.220700 -13.846800
H -8.809200 -27.646800 -13.212200
C -8.768700 -25.475600 -9.951300
C -8.735300 -21.851500 -10.394500
H -8.605600 -27.473500 -10.568700
O -8.514500 -25.389200 -8.567300
C -8.198600 -24.289700 -10.728400
C -8.069400 -26.655300 -10.635000
O -8.008100 -24.740400 -12.050100
C -7.944700 -26.195100 -12.075700
H -7.935900 -21.646100 -9.966500
H -7.856100 -25.841200 -8.382100
H -7.334300 -24.033900 -10.344000
H -7.065200 -26.463300 -12.414400
O -6.806700 -26.817900 -10.012200
H -6.619000 -27.615600 -9.979000
32
Fragment
H -9.374300 -36.279600 -10.760200
O -9.186700 -35.481900 -10.727000
H -8.928100 -35.127300 -8.324700
H -8.659000 -32.697900 -10.395100
H -8.137200 -34.505200 -12.357100
H -8.057400 -30.310100 -10.772600
C -8.048700 -34.859100 -8.663400
O -7.985300 -33.404400 -8.689000
C -7.924000 -35.319300 -10.104100
C -7.794700 -32.953700 -10.010800
O -7.478800 -34.053200 -12.171800
H -7.387700 -36.137500 -10.170500
C -7.258000 -30.515500 -10.344700
C -7.224600 -34.139600 -10.787800
H -7.184100 -36.310800 -7.526900
H -7.044000 -34.884700 -6.892300
C -6.995700 -35.380300 -7.724600
N -6.927200 -31.778900 -9.937500
N -6.337200 -29.620000 -10.073700
H -6.258100 -34.198500 -10.635000
C -5.701000 -31.679200 -9.322900
O -5.670200 -35.278100 -8.245900
H -5.447700 -34.489700 -8.273500
C -5.344300 -30.343400 -9.421100
N -4.985900 -32.639900 -8.714600
C -4.117100 -29.963900 -8.857000
H -4.100200 -28.087000 -9.263500
C -3.862100 -32.169400 -8.197500
N -3.650900 -28.707800 -8.872900
N -3.388700 -30.909000 -8.237600
H -3.331500 -32.788000 -7.749500
H -2.902400 -28.521900 -8.492000
64
Fragment
H -13.090900 -19.857900 -12.247100
H -12.661800 -24.124000 -12.989600
N -12.604600 -22.245000 -12.501500
N -12.342400 -20.043800 -11.866200
C -12.131200 -23.505400 -12.541600
H -11.893100 -19.423000 -11.475700
C -11.876200 -21.299900 -11.882100
N -11.007400 -23.975900 -12.024500
C -10.649100 -21.679400 -11.318000
H -10.545600 -25.825700 -12.465600
O -10.323100 -26.614100 -12.493300
C -10.292400 -23.015200 -11.416200
H -9.735300 -25.534500 -10.104100
N -9.656100 -20.956000 -10.665400
N -9.066100 -23.114900 -10.801600
C -8.997600 -26.716300 -13.014500
H -8.949400 -26.220700 -13.846800
H -8.809200 -27.646800 -13.212200
C -8.768700 -25.475600 -9.951300
C -8.735300 -21.851500 -10.394500
H -8.605600 -27.473500 -10.568700
O -8.514500 -25.389200 -8.567300
C -8.198600 -24.289700 -10.728400
C -8.069400 -26.655300 -10.635000
O -8.008100 -24.740400 -12.050100
C -7.944700 -26.195100 -12.075700
H -7.935900 -21.646100 -9.966500
H -7.856100 -25.841200 -8.382100
H -7.334300 -24.033900 -10.344000
H -7.065200 -26.463300 -12.414400
O -6.806700 -26.817900 -10.012200
H -6.619000 -27.615600 -9.979000
H -9.374300 -36.279600 -10.760200
O -9.186700 -35.481900 -10.727000
H -8.928100 -35.127300 -8.324700
H -8.659000 -32.697900 -10.395100
H -8.137200 -34.505200 -12.357100
H -8.057400 -30.310100 -10.772600
C -8.048700 -34.859100 -8.663400
O -7.985300 -33.404400 -8.689000
C -7.924000 -35.319300 -10.104100
C -7.794700 -32.953700 -10.010800
O -7.478800 -34.053200 -12.171800
H -7.387700 -36.137500 -10.170500
C -7.258000 -30.515500 -10.344700
C -7.224600 -34.139600 -10.787800
H -7.184100 -36.310800 -7.526900
H -7.044000 -34.884700 -6.892300
C -6.995700 -35.380300 -7.724600
N -6.927200 -31.778900 -9.937500
N -6.337200 -29.620000 -10.073700
H -6.258100 -34.198500 -10.635000
C -5.701000 -31.679200 -9.322900
O -5.670200 -35.278100 -8.245900
H -5.447700 -34.489700 -8.273500
C -5.344300 -30.343400 -9.421100
N -4.985900 -32.639900 -8.714600
C -4.117100 -29.963900 -8.857000
H -4.100200 -28.087000 -9.263500
C -3.862100 -32.169400 -8.197500
N -3.650900 -28.707800 -8.872900
N -3.388700 -30.909000 -8.237600
H -3.331500 -32.788000 -7.749500
H -2.902400 -28.521900 -8.492000
