32
Fragment
H -13.090900 -19.857900 -12.247100
H -12.661800 -24.124000 -12.989600
N -12.604600 -22.245000 -12.501500
N -12.342400 -20.043800 -11.866200
C -12.131200 -23.505400 -12.541600
H -11.893100 -19.423000 -11.475700
C -11.876200 -21.299900 -11.882100
N -11.007400 -23.975900 -12.024500
C -10.649100 -21.679400 -11.318000
H -10.545600 -25.825700 -12.465600
O -10.323100 -26.614100 -12.493300
C -10.292400 -23.015200 -11.416200
H -9.735300 -25.534500 -10.104100
N -9.656100 -20.956000 -10.665400
N -9.066100 -23.114900 -10.801600
C -8.997600 -26.716300 -13.014500
H -8.949400 -26.220700 -13.846800
H -8.809200 -27.646800 -13.212200
C -8.768700 -25.475600 -9.951300
C -8.735300 -21.851500 -10.394500
H -8.605600 -27.473500 -10.568700
O -8.514500 -25.389200 -8.567300
C -8.198600 -24.289700 -10.728400
C -8.069400 -26.655300 -10.635000
O -8.008100 -24.740400 -12.050100
C -7.944700 -26.195100 -12.075700
H -7.935900 -21.646100 -9.966500
H -7.856100 -25.841200 -8.382100
H -7.334300 -24.033900 -10.344000
H -7.065200 -26.463300 -12.414400
O -6.806700 -26.817900 -10.012200
H -6.619000 -27.615600 -9.979000
32
Fragment
H -18.422000 -19.857900 -19.160200
H -17.992900 -24.124000 -19.902700
N -17.935800 -22.245000 -19.414600
N -17.673500 -20.043800 -18.779300
C -17.462300 -23.505400 -19.454700
H -17.224300 -19.423000 -18.388700
C -17.207300 -21.299900 -18.795200
N -16.338500 -23.975900 -18.937600
C -15.980200 -21.679400 -18.231100
H -15.876700 -25.825700 -19.378600
O -15.654200 -26.614100 -19.406300
C -15.623500 -23.015200 -18.329200
H -15.066400 -25.534500 -17.017100
N -14.987200 -20.956000 -17.578500
N -14.397200 -23.114900 -17.714700
C -14.328700 -26.716300 -19.927500
H -14.280500 -26.220700 -20.759900
H -14.140300 -27.646800 -20.125300
C -14.099800 -25.475600 -16.864400
C -14.066500 -21.851500 -17.307500
H -13.936800 -27.473500 -17.481700
O -13.845600 -25.389200 -15.480400
C -13.529700 -24.289700 -17.641400
C -13.400500 -26.655300 -17.548100
O -13.339200 -24.740400 -18.963200
C -13.275800 -26.195100 -18.988700
H -13.267000 -21.646100 -16.879600
H -13.187300 -25.841200 -15.295100
H -12.665400 -24.033900 -17.257000
H -12.396300 -26.463300 -19.327500
O -12.137800 -26.817900 -16.925200
H -11.950100 -27.615600 -16.892000
64
Fragment
H -13.090900 -19.857900 -12.247100
H -12.661800 -24.124000 -12.989600
N -12.604600 -22.245000 -12.501500
N -12.342400 -20.043800 -11.866200
C -12.131200 -23.505400 -12.541600
H -11.893100 -19.423000 -11.475700
C -11.876200 -21.299900 -11.882100
N -11.007400 -23.975900 -12.024500
C -10.649100 -21.679400 -11.318000
H -10.545600 -25.825700 -12.465600
O -10.323100 -26.614100 -12.493300
C -10.292400 -23.015200 -11.416200
H -9.735300 -25.534500 -10.104100
N -9.656100 -20.956000 -10.665400
N -9.066100 -23.114900 -10.801600
C -8.997600 -26.716300 -13.014500
H -8.949400 -26.220700 -13.846800
H -8.809200 -27.646800 -13.212200
C -8.768700 -25.475600 -9.951300
C -8.735300 -21.851500 -10.394500
H -8.605600 -27.473500 -10.568700
O -8.514500 -25.389200 -8.567300
C -8.198600 -24.289700 -10.728400
C -8.069400 -26.655300 -10.635000
O -8.008100 -24.740400 -12.050100
C -7.944700 -26.195100 -12.075700
H -7.935900 -21.646100 -9.966500
H -7.856100 -25.841200 -8.382100
H -7.334300 -24.033900 -10.344000
H -7.065200 -26.463300 -12.414400
O -6.806700 -26.817900 -10.012200
H -6.619000 -27.615600 -9.979000
H -18.422000 -19.857900 -19.160200
H -17.992900 -24.124000 -19.902700
N -17.935800 -22.245000 -19.414600
N -17.673500 -20.043800 -18.779300
C -17.462300 -23.505400 -19.454700
H -17.224300 -19.423000 -18.388700
C -17.207300 -21.299900 -18.795200
N -16.338500 -23.975900 -18.937600
C -15.980200 -21.679400 -18.231100
H -15.876700 -25.825700 -19.378600
O -15.654200 -26.614100 -19.406300
C -15.623500 -23.015200 -18.329200
H -15.066400 -25.534500 -17.017100
N -14.987200 -20.956000 -17.578500
N -14.397200 -23.114900 -17.714700
C -14.328700 -26.716300 -19.927500
H -14.280500 -26.220700 -20.759900
H -14.140300 -27.646800 -20.125300
C -14.099800 -25.475600 -16.864400
C -14.066500 -21.851500 -17.307500
H -13.936800 -27.473500 -17.481700
O -13.845600 -25.389200 -15.480400
C -13.529700 -24.289700 -17.641400
C -13.400500 -26.655300 -17.548100
O -13.339200 -24.740400 -18.963200
C -13.275800 -26.195100 -18.988700
H -13.267000 -21.646100 -16.879600
H -13.187300 -25.841200 -15.295100
H -12.665400 -24.033900 -17.257000
H -12.396300 -26.463300 -19.327500
O -12.137800 -26.817900 -16.925200
H -11.950100 -27.615600 -16.892000
