32
Fragment
H -13.090900 -19.857900 -12.247100
H -12.661800 -24.124000 -12.989600
N -12.604600 -22.245000 -12.501500
N -12.342400 -20.043800 -11.866200
C -12.131200 -23.505400 -12.541600
H -11.893100 -19.423000 -11.475700
C -11.876200 -21.299900 -11.882100
N -11.007400 -23.975900 -12.024500
C -10.649100 -21.679400 -11.318000
H -10.545600 -25.825700 -12.465600
O -10.323100 -26.614100 -12.493300
C -10.292400 -23.015200 -11.416200
H -9.735300 -25.534500 -10.104100
N -9.656100 -20.956000 -10.665400
N -9.066100 -23.114900 -10.801600
C -8.997600 -26.716300 -13.014500
H -8.949400 -26.220700 -13.846800
H -8.809200 -27.646800 -13.212200
C -8.768700 -25.475600 -9.951300
C -8.735300 -21.851500 -10.394500
H -8.605600 -27.473500 -10.568700
O -8.514500 -25.389200 -8.567300
C -8.198600 -24.289700 -10.728400
C -8.069400 -26.655300 -10.635000
O -8.008100 -24.740400 -12.050100
C -7.944700 -26.195100 -12.075700
H -7.935900 -21.646100 -9.966500
H -7.856100 -25.841200 -8.382100
H -7.334300 -24.033900 -10.344000
H -7.065200 -26.463300 -12.414400
O -6.806700 -26.817900 -10.012200
H -6.619000 -27.615600 -9.979000
32
Fragment
H -9.374300 -18.951600 -10.760200
O -9.186700 -18.153900 -10.727000
H -8.928100 -17.799300 -8.324700
H -8.659000 -15.369900 -10.395100
H -8.137200 -17.177200 -12.357100
H -8.057400 -12.982100 -10.772600
C -8.048700 -17.531100 -8.663400
O -7.985300 -16.076400 -8.689000
C -7.924000 -17.991300 -10.104100
C -7.794700 -15.625700 -10.010800
O -7.478800 -16.725200 -12.171800
H -7.387700 -18.809500 -10.170500
C -7.258000 -13.187500 -10.344700
C -7.224600 -16.811600 -10.787800
H -7.184100 -18.982800 -7.526900
H -7.044000 -17.556700 -6.892300
C -6.995700 -18.052300 -7.724600
N -6.927200 -14.450900 -9.937500
N -6.337200 -12.292000 -10.073700
H -6.258100 -16.870500 -10.635000
C -5.701000 -14.351200 -9.322900
O -5.670200 -17.950100 -8.245900
H -5.447700 -17.161700 -8.273500
C -5.344300 -13.015400 -9.421100
N -4.985900 -15.311900 -8.714600
C -4.117100 -12.635900 -8.857000
H -4.100200 -10.759000 -9.263500
C -3.862100 -14.841400 -8.197500
N -3.650900 -11.379800 -8.872900
N -3.388700 -13.581000 -8.237600
H -3.331500 -15.460000 -7.749500
H -2.902400 -11.193900 -8.492000
64
Fragment
H -13.090900 -19.857900 -12.247100
H -12.661800 -24.124000 -12.989600
N -12.604600 -22.245000 -12.501500
N -12.342400 -20.043800 -11.866200
C -12.131200 -23.505400 -12.541600
H -11.893100 -19.423000 -11.475700
C -11.876200 -21.299900 -11.882100
N -11.007400 -23.975900 -12.024500
C -10.649100 -21.679400 -11.318000
H -10.545600 -25.825700 -12.465600
O -10.323100 -26.614100 -12.493300
C -10.292400 -23.015200 -11.416200
H -9.735300 -25.534500 -10.104100
N -9.656100 -20.956000 -10.665400
N -9.066100 -23.114900 -10.801600
C -8.997600 -26.716300 -13.014500
H -8.949400 -26.220700 -13.846800
H -8.809200 -27.646800 -13.212200
C -8.768700 -25.475600 -9.951300
C -8.735300 -21.851500 -10.394500
H -8.605600 -27.473500 -10.568700
O -8.514500 -25.389200 -8.567300
C -8.198600 -24.289700 -10.728400
C -8.069400 -26.655300 -10.635000
O -8.008100 -24.740400 -12.050100
C -7.944700 -26.195100 -12.075700
H -7.935900 -21.646100 -9.966500
H -7.856100 -25.841200 -8.382100
H -7.334300 -24.033900 -10.344000
H -7.065200 -26.463300 -12.414400
O -6.806700 -26.817900 -10.012200
H -6.619000 -27.615600 -9.979000
H -9.374300 -18.951600 -10.760200
O -9.186700 -18.153900 -10.727000
H -8.928100 -17.799300 -8.324700
H -8.659000 -15.369900 -10.395100
H -8.137200 -17.177200 -12.357100
H -8.057400 -12.982100 -10.772600
C -8.048700 -17.531100 -8.663400
O -7.985300 -16.076400 -8.689000
C -7.924000 -17.991300 -10.104100
C -7.794700 -15.625700 -10.010800
O -7.478800 -16.725200 -12.171800
H -7.387700 -18.809500 -10.170500
C -7.258000 -13.187500 -10.344700
C -7.224600 -16.811600 -10.787800
H -7.184100 -18.982800 -7.526900
H -7.044000 -17.556700 -6.892300
C -6.995700 -18.052300 -7.724600
N -6.927200 -14.450900 -9.937500
N -6.337200 -12.292000 -10.073700
H -6.258100 -16.870500 -10.635000
C -5.701000 -14.351200 -9.322900
O -5.670200 -17.950100 -8.245900
H -5.447700 -17.161700 -8.273500
C -5.344300 -13.015400 -9.421100
N -4.985900 -15.311900 -8.714600
C -4.117100 -12.635900 -8.857000
H -4.100200 -10.759000 -9.263500
C -3.862100 -14.841400 -8.197500
N -3.650900 -11.379800 -8.872900
N -3.388700 -13.581000 -8.237600
H -3.331500 -15.460000 -7.749500
H -2.902400 -11.193900 -8.492000
