36
Fragment
H -78.112200 -19.742300 -29.437900
H -77.478600 -15.363500 -35.057400
H -77.368000 -20.280600 -27.356000
C -77.224000 -19.566500 -29.225700
C -76.792200 -19.896300 -27.974700
C -76.551100 -15.430200 -35.001800
N -76.459100 -19.010900 -30.164900
H -76.208600 -14.392400 -36.696200
N -76.033800 -16.091600 -33.967400
C -75.799200 -14.839800 -35.991400
C -75.495800 -19.647700 -27.655500
C -75.199300 -18.756200 -29.832100
H -75.165500 -19.869600 -26.815800
N -74.948800 -17.489900 -31.882100
C -74.697100 -16.189400 -33.915200
C -74.676500 -19.061000 -28.597900
C -74.429100 -14.924600 -35.918000
C -74.340100 -18.110200 -30.865200
C -74.114500 -16.933200 -32.764600
H -73.893500 -14.522100 -36.562900
C -73.864100 -15.622400 -34.868000
H -73.787500 -18.874300 -28.400400
N -73.019600 -18.193800 -30.684500
H -72.940000 -15.710200 -34.802000
N -72.784300 -16.983000 -32.696400
C -72.287100 -17.619900 -31.636900
C -70.800200 -17.701300 -31.540600
H -70.391500 -16.781900 -33.289700
N -70.288000 -18.291200 -30.446500
C -70.007900 -17.201300 -32.553000
C -68.965500 -18.394200 -30.379600
C -68.643900 -17.329800 -32.455600
H -68.594700 -18.800300 -29.630000
C -68.109300 -17.933600 -31.357900
H -68.091100 -17.009800 -33.131500
H -67.191600 -18.031800 -31.268900
15
Fragment
H -73.317400 -22.737900 -23.963100
N -73.031800 -22.720800 -24.774600
H -73.012200 -18.160300 -23.807100
H -72.962700 -23.451900 -25.222200
N -72.851700 -20.446400 -24.611200
N -72.691800 -18.164900 -24.604800
C -72.690000 -21.567700 -25.331600
C -72.516300 -19.324800 -25.250400
H -72.485000 -17.424400 -24.989300
N -72.232700 -21.615700 -26.596500
N -72.003900 -19.250000 -26.489400
C -71.888200 -20.432700 -27.108300
N -71.373000 -20.433300 -28.344100
H -71.282200 -21.174000 -28.771100
H -71.126400 -19.693800 -28.710000
51
Fragment
H -78.112200 -19.742300 -29.437900
H -77.478600 -15.363500 -35.057400
H -77.368000 -20.280600 -27.356000
C -77.224000 -19.566500 -29.225700
C -76.792200 -19.896300 -27.974700
C -76.551100 -15.430200 -35.001800
N -76.459100 -19.010900 -30.164900
H -76.208600 -14.392400 -36.696200
N -76.033800 -16.091600 -33.967400
C -75.799200 -14.839800 -35.991400
C -75.495800 -19.647700 -27.655500
C -75.199300 -18.756200 -29.832100
H -75.165500 -19.869600 -26.815800
N -74.948800 -17.489900 -31.882100
C -74.697100 -16.189400 -33.915200
C -74.676500 -19.061000 -28.597900
C -74.429100 -14.924600 -35.918000
C -74.340100 -18.110200 -30.865200
C -74.114500 -16.933200 -32.764600
H -73.893500 -14.522100 -36.562900
C -73.864100 -15.622400 -34.868000
H -73.787500 -18.874300 -28.400400
N -73.019600 -18.193800 -30.684500
H -72.940000 -15.710200 -34.802000
N -72.784300 -16.983000 -32.696400
C -72.287100 -17.619900 -31.636900
C -70.800200 -17.701300 -31.540600
H -70.391500 -16.781900 -33.289700
N -70.288000 -18.291200 -30.446500
C -70.007900 -17.201300 -32.553000
C -68.965500 -18.394200 -30.379600
C -68.643900 -17.329800 -32.455600
H -68.594700 -18.800300 -29.630000
C -68.109300 -17.933600 -31.357900
H -68.091100 -17.009800 -33.131500
H -67.191600 -18.031800 -31.268900
H -73.317400 -22.737900 -23.963100
N -73.031800 -22.720800 -24.774600
H -73.012200 -18.160300 -23.807100
H -72.962700 -23.451900 -25.222200
N -72.851700 -20.446400 -24.611200
N -72.691800 -18.164900 -24.604800
C -72.690000 -21.567700 -25.331600
C -72.516300 -19.324800 -25.250400
H -72.485000 -17.424400 -24.989300
N -72.232700 -21.615700 -26.596500
N -72.003900 -19.250000 -26.489400
C -71.888200 -20.432700 -27.108300
N -71.373000 -20.433300 -28.344100
H -71.282200 -21.174000 -28.771100
H -71.126400 -19.693800 -28.710000
