36
Fragment
H -78.112200 -19.742300 -29.437900
H -77.478600 -15.363500 -35.057400
H -77.368000 -20.280600 -27.356000
C -77.224000 -19.566500 -29.225700
C -76.792200 -19.896300 -27.974700
C -76.551100 -15.430200 -35.001800
N -76.459100 -19.010900 -30.164900
H -76.208600 -14.392400 -36.696200
N -76.033800 -16.091600 -33.967400
C -75.799200 -14.839800 -35.991400
C -75.495800 -19.647700 -27.655500
C -75.199300 -18.756200 -29.832100
H -75.165500 -19.869600 -26.815800
N -74.948800 -17.489900 -31.882100
C -74.697100 -16.189400 -33.915200
C -74.676500 -19.061000 -28.597900
C -74.429100 -14.924600 -35.918000
C -74.340100 -18.110200 -30.865200
C -74.114500 -16.933200 -32.764600
H -73.893500 -14.522100 -36.562900
C -73.864100 -15.622400 -34.868000
H -73.787500 -18.874300 -28.400400
N -73.019600 -18.193800 -30.684500
H -72.940000 -15.710200 -34.802000
N -72.784300 -16.983000 -32.696400
C -72.287100 -17.619900 -31.636900
C -70.800200 -17.701300 -31.540600
H -70.391500 -16.781900 -33.289700
N -70.288000 -18.291200 -30.446500
C -70.007900 -17.201300 -32.553000
C -68.965500 -18.394200 -30.379600
C -68.643900 -17.329800 -32.455600
H -68.594700 -18.800300 -29.630000
C -68.109300 -17.933600 -31.357900
H -68.091100 -17.009800 -33.131500
H -67.191600 -18.031800 -31.268900
15
Fragment
H -81.607500 -23.586500 -25.624500
H -81.467100 -22.103900 -25.662900
N -81.462500 -22.864000 -26.067100
C -81.233800 -22.922200 -27.396900
N -81.194200 -24.130300 -27.958400
H -81.054300 -26.003800 -29.487600
N -81.049800 -21.756400 -28.022400
C -80.979000 -24.102900 -29.286500
N -80.937400 -25.273300 -29.925300
C -80.837400 -21.872300 -29.341600
N -80.814900 -23.010300 -30.029900
H -80.788500 -25.298300 -30.771600
N -80.636500 -20.740900 -30.037600
H -80.627400 -19.982300 -29.632300
H -80.519600 -20.775200 -30.889100
51
Fragment
H -78.112200 -19.742300 -29.437900
H -77.478600 -15.363500 -35.057400
H -77.368000 -20.280600 -27.356000
C -77.224000 -19.566500 -29.225700
C -76.792200 -19.896300 -27.974700
C -76.551100 -15.430200 -35.001800
N -76.459100 -19.010900 -30.164900
H -76.208600 -14.392400 -36.696200
N -76.033800 -16.091600 -33.967400
C -75.799200 -14.839800 -35.991400
C -75.495800 -19.647700 -27.655500
C -75.199300 -18.756200 -29.832100
H -75.165500 -19.869600 -26.815800
N -74.948800 -17.489900 -31.882100
C -74.697100 -16.189400 -33.915200
C -74.676500 -19.061000 -28.597900
C -74.429100 -14.924600 -35.918000
C -74.340100 -18.110200 -30.865200
C -74.114500 -16.933200 -32.764600
H -73.893500 -14.522100 -36.562900
C -73.864100 -15.622400 -34.868000
H -73.787500 -18.874300 -28.400400
N -73.019600 -18.193800 -30.684500
H -72.940000 -15.710200 -34.802000
N -72.784300 -16.983000 -32.696400
C -72.287100 -17.619900 -31.636900
C -70.800200 -17.701300 -31.540600
H -70.391500 -16.781900 -33.289700
N -70.288000 -18.291200 -30.446500
C -70.007900 -17.201300 -32.553000
C -68.965500 -18.394200 -30.379600
C -68.643900 -17.329800 -32.455600
H -68.594700 -18.800300 -29.630000
C -68.109300 -17.933600 -31.357900
H -68.091100 -17.009800 -33.131500
H -67.191600 -18.031800 -31.268900
H -81.607500 -23.586500 -25.624500
H -81.467100 -22.103900 -25.662900
N -81.462500 -22.864000 -26.067100
C -81.233800 -22.922200 -27.396900
N -81.194200 -24.130300 -27.958400
H -81.054300 -26.003800 -29.487600
N -81.049800 -21.756400 -28.022400
C -80.979000 -24.102900 -29.286500
N -80.937400 -25.273300 -29.925300
C -80.837400 -21.872300 -29.341600
N -80.814900 -23.010300 -30.029900
H -80.788500 -25.298300 -30.771600
N -80.636500 -20.740900 -30.037600
H -80.627400 -19.982300 -29.632300
H -80.519600 -20.775200 -30.889100
