36
Fragment
H -78.112200 -19.742300 -29.437900
H -77.478600 -15.363500 -35.057400
H -77.368000 -20.280600 -27.356000
C -77.224000 -19.566500 -29.225700
C -76.792200 -19.896300 -27.974700
C -76.551100 -15.430200 -35.001800
N -76.459100 -19.010900 -30.164900
H -76.208600 -14.392400 -36.696200
N -76.033800 -16.091600 -33.967400
C -75.799200 -14.839800 -35.991400
C -75.495800 -19.647700 -27.655500
C -75.199300 -18.756200 -29.832100
H -75.165500 -19.869600 -26.815800
N -74.948800 -17.489900 -31.882100
C -74.697100 -16.189400 -33.915200
C -74.676500 -19.061000 -28.597900
C -74.429100 -14.924600 -35.918000
C -74.340100 -18.110200 -30.865200
C -74.114500 -16.933200 -32.764600
H -73.893500 -14.522100 -36.562900
C -73.864100 -15.622400 -34.868000
H -73.787500 -18.874300 -28.400400
N -73.019600 -18.193800 -30.684500
H -72.940000 -15.710200 -34.802000
N -72.784300 -16.983000 -32.696400
C -72.287100 -17.619900 -31.636900
C -70.800200 -17.701300 -31.540600
H -70.391500 -16.781900 -33.289700
N -70.288000 -18.291200 -30.446500
C -70.007900 -17.201300 -32.553000
C -68.965500 -18.394200 -30.379600
C -68.643900 -17.329800 -32.455600
H -68.594700 -18.800300 -29.630000
C -68.109300 -17.933600 -31.357900
H -68.091100 -17.009800 -33.131500
H -67.191600 -18.031800 -31.268900
15
Fragment
H -81.553100 -20.447900 -35.780700
H -81.427300 -15.918700 -36.000000
N -80.946400 -20.447700 -35.169500
N -80.853500 -18.182000 -35.363500
N -80.799100 -15.901300 -35.415900
H -80.693400 -21.189800 -34.815500
H -80.463700 -15.148900 -35.165900
C -80.400300 -19.294800 -34.774200
C -80.334000 -17.053500 -34.893700
N -79.449900 -19.344300 -33.814400
N -79.368500 -16.955600 -33.966700
C -78.962000 -18.142700 -33.475500
N -78.011000 -18.085800 -32.524100
H -77.724100 -18.808800 -32.157200
H -77.690400 -17.326200 -32.281600
51
Fragment
H -78.112200 -19.742300 -29.437900
H -77.478600 -15.363500 -35.057400
H -77.368000 -20.280600 -27.356000
C -77.224000 -19.566500 -29.225700
C -76.792200 -19.896300 -27.974700
C -76.551100 -15.430200 -35.001800
N -76.459100 -19.010900 -30.164900
H -76.208600 -14.392400 -36.696200
N -76.033800 -16.091600 -33.967400
C -75.799200 -14.839800 -35.991400
C -75.495800 -19.647700 -27.655500
C -75.199300 -18.756200 -29.832100
H -75.165500 -19.869600 -26.815800
N -74.948800 -17.489900 -31.882100
C -74.697100 -16.189400 -33.915200
C -74.676500 -19.061000 -28.597900
C -74.429100 -14.924600 -35.918000
C -74.340100 -18.110200 -30.865200
C -74.114500 -16.933200 -32.764600
H -73.893500 -14.522100 -36.562900
C -73.864100 -15.622400 -34.868000
H -73.787500 -18.874300 -28.400400
N -73.019600 -18.193800 -30.684500
H -72.940000 -15.710200 -34.802000
N -72.784300 -16.983000 -32.696400
C -72.287100 -17.619900 -31.636900
C -70.800200 -17.701300 -31.540600
H -70.391500 -16.781900 -33.289700
N -70.288000 -18.291200 -30.446500
C -70.007900 -17.201300 -32.553000
C -68.965500 -18.394200 -30.379600
C -68.643900 -17.329800 -32.455600
H -68.594700 -18.800300 -29.630000
C -68.109300 -17.933600 -31.357900
H -68.091100 -17.009800 -33.131500
H -67.191600 -18.031800 -31.268900
H -81.553100 -20.447900 -35.780700
H -81.427300 -15.918700 -36.000000
N -80.946400 -20.447700 -35.169500
N -80.853500 -18.182000 -35.363500
N -80.799100 -15.901300 -35.415900
H -80.693400 -21.189800 -34.815500
H -80.463700 -15.148900 -35.165900
C -80.400300 -19.294800 -34.774200
C -80.334000 -17.053500 -34.893700
N -79.449900 -19.344300 -33.814400
N -79.368500 -16.955600 -33.966700
C -78.962000 -18.142700 -33.475500
N -78.011000 -18.085800 -32.524100
H -77.724100 -18.808800 -32.157200
H -77.690400 -17.326200 -32.281600
