17
Fragment
H -15.979600 -20.804000 -18.432700
N -15.713700 -21.006700 -20.389300
C -15.311000 -20.907500 -19.098400
H -15.077000 -21.207400 -22.240300
C -14.805600 -21.132800 -21.332900
C -14.006600 -20.948100 -18.690800
H -13.774000 -20.882600 -17.772200
C -13.456200 -21.157300 -21.015700
C -13.029500 -21.088400 -19.682200
N -12.340800 -21.300200 -21.772000
H -12.242900 -21.371000 -22.755400
C -11.624400 -21.227000 -19.742300
N -11.228400 -21.342600 -20.996300
H -10.827500 -22.096500 -18.090800
H -10.739800 -20.498900 -18.066100
C -10.650100 -21.296400 -18.629100
H -9.740900 -21.340900 -18.992900
17
Fragment
H -22.738300 -21.169400 -21.090900
H -22.491800 -21.276800 -23.372300
C -21.875200 -21.204300 -21.486200
H -21.864900 -20.301200 -18.245000
H -21.843200 -21.897500 -18.127200
C -21.708300 -21.267600 -22.835700
C -21.288700 -21.089500 -18.163400
H -20.757200 -21.021400 -17.343000
C -20.714500 -21.194300 -20.715800
N -20.512400 -21.317100 -23.475300
C -20.384100 -21.163100 -19.334600
C -19.476800 -21.250300 -21.367900
C -19.402900 -21.316000 -22.755800
N -19.066200 -21.205000 -19.177800
H -18.556200 -21.359300 -23.186000
N -18.518100 -21.265100 -20.418400
H -17.531000 -21.174600 -20.514800
34
Fragment
H -15.979600 -20.804000 -18.432700
N -15.713700 -21.006700 -20.389300
C -15.311000 -20.907500 -19.098400
H -15.077000 -21.207400 -22.240300
C -14.805600 -21.132800 -21.332900
C -14.006600 -20.948100 -18.690800
H -13.774000 -20.882600 -17.772200
C -13.456200 -21.157300 -21.015700
C -13.029500 -21.088400 -19.682200
N -12.340800 -21.300200 -21.772000
H -12.242900 -21.371000 -22.755400
C -11.624400 -21.227000 -19.742300
N -11.228400 -21.342600 -20.996300
H -10.827500 -22.096500 -18.090800
H -10.739800 -20.498900 -18.066100
C -10.650100 -21.296400 -18.629100
H -9.740900 -21.340900 -18.992900
H -22.738300 -21.169400 -21.090900
H -22.491800 -21.276800 -23.372300
C -21.875200 -21.204300 -21.486200
H -21.864900 -20.301200 -18.245000
H -21.843200 -21.897500 -18.127200
C -21.708300 -21.267600 -22.835700
C -21.288700 -21.089500 -18.163400
H -20.757200 -21.021400 -17.343000
C -20.714500 -21.194300 -20.715800
N -20.512400 -21.317100 -23.475300
C -20.384100 -21.163100 -19.334600
C -19.476800 -21.250300 -21.367900
C -19.402900 -21.316000 -22.755800
N -19.066200 -21.205000 -19.177800
H -18.556200 -21.359300 -23.186000
N -18.518100 -21.265100 -20.418400
H -17.531000 -21.174600 -20.514800
