17
Fragment
H -15.979600 -20.804000 -18.432700
N -15.713700 -21.006700 -20.389300
C -15.311000 -20.907500 -19.098400
H -15.077000 -21.207400 -22.240300
C -14.805600 -21.132800 -21.332900
C -14.006600 -20.948100 -18.690800
H -13.774000 -20.882600 -17.772200
C -13.456200 -21.157300 -21.015700
C -13.029500 -21.088400 -19.682200
N -12.340800 -21.300200 -21.772000
H -12.242900 -21.371000 -22.755400
C -11.624400 -21.227000 -19.742300
N -11.228400 -21.342600 -20.996300
H -10.827500 -22.096500 -18.090800
H -10.739800 -20.498900 -18.066100
C -10.650100 -21.296400 -18.629100
H -9.740900 -21.340900 -18.992900
17
Fragment
H -20.670700 -17.944100 -24.655500
C -19.761500 -17.988600 -25.019300
H -19.671800 -18.786100 -25.582300
H -19.584000 -17.188500 -25.557600
N -19.183100 -17.942400 -22.652100
C -18.787200 -18.058000 -23.906100
H -18.168600 -17.914000 -20.893000
N -18.070800 -17.984800 -21.876400
C -17.382100 -18.196600 -23.966200
C -16.955300 -18.127700 -22.632700
H -16.637600 -18.402400 -25.876200
C -16.405000 -18.336900 -24.957600
C -15.606000 -18.152200 -22.315500
H -15.334600 -18.077600 -21.408100
C -15.100600 -18.377500 -24.550000
N -14.697800 -18.278300 -23.259100
H -14.432000 -18.481000 -25.215700
34
Fragment
H -15.979600 -20.804000 -18.432700
N -15.713700 -21.006700 -20.389300
C -15.311000 -20.907500 -19.098400
H -15.077000 -21.207400 -22.240300
C -14.805600 -21.132800 -21.332900
C -14.006600 -20.948100 -18.690800
H -13.774000 -20.882600 -17.772200
C -13.456200 -21.157300 -21.015700
C -13.029500 -21.088400 -19.682200
N -12.340800 -21.300200 -21.772000
H -12.242900 -21.371000 -22.755400
C -11.624400 -21.227000 -19.742300
N -11.228400 -21.342600 -20.996300
H -10.827500 -22.096500 -18.090800
H -10.739800 -20.498900 -18.066100
C -10.650100 -21.296400 -18.629100
H -9.740900 -21.340900 -18.992900
H -20.670700 -17.944100 -24.655500
C -19.761500 -17.988600 -25.019300
H -19.671800 -18.786100 -25.582300
H -19.584000 -17.188500 -25.557600
N -19.183100 -17.942400 -22.652100
C -18.787200 -18.058000 -23.906100
H -18.168600 -17.914000 -20.893000
N -18.070800 -17.984800 -21.876400
C -17.382100 -18.196600 -23.966200
C -16.955300 -18.127700 -22.632700
H -16.637600 -18.402400 -25.876200
C -16.405000 -18.336900 -24.957600
C -15.606000 -18.152200 -22.315500
H -15.334600 -18.077600 -21.408100
C -15.100600 -18.377500 -24.550000
N -14.697800 -18.278300 -23.259100
H -14.432000 -18.481000 -25.215700
