17
Fragment
H -15.979600 -20.804000 -18.432700
N -15.713700 -21.006700 -20.389300
C -15.311000 -20.907500 -19.098400
H -15.077000 -21.207400 -22.240300
C -14.805600 -21.132800 -21.332900
C -14.006600 -20.948100 -18.690800
H -13.774000 -20.882600 -17.772200
C -13.456200 -21.157300 -21.015700
C -13.029500 -21.088400 -19.682200
N -12.340800 -21.300200 -21.772000
H -12.242900 -21.371000 -22.755400
C -11.624400 -21.227000 -19.742300
N -11.228400 -21.342600 -20.996300
H -10.827500 -22.096500 -18.090800
H -10.739800 -20.498900 -18.066100
C -10.650100 -21.296400 -18.629100
H -9.740900 -21.340900 -18.992900
17
Fragment
H -20.366700 -18.034400 -16.660600
H -20.165500 -17.917900 -18.949200
C -19.511300 -17.963200 -17.068300
H -19.507900 -18.835800 -13.897700
H -19.378500 -17.261800 -13.631400
C -19.374800 -17.890400 -18.423600
C -18.878700 -18.096000 -13.756200
C -18.342600 -17.928500 -16.306200
H -18.338900 -18.275400 -12.959200
N -18.187800 -17.782700 -19.073500
C -17.990200 -17.968300 -14.937800
C -17.122800 -17.808700 -16.979200
C -17.070500 -17.737200 -18.368100
N -16.677600 -17.867100 -14.799600
H -16.232100 -17.657300 -18.809600
N -16.147700 -17.757200 -16.043600
H -15.207600 -17.769900 -16.106300
34
Fragment
H -15.979600 -20.804000 -18.432700
N -15.713700 -21.006700 -20.389300
C -15.311000 -20.907500 -19.098400
H -15.077000 -21.207400 -22.240300
C -14.805600 -21.132800 -21.332900
C -14.006600 -20.948100 -18.690800
H -13.774000 -20.882600 -17.772200
C -13.456200 -21.157300 -21.015700
C -13.029500 -21.088400 -19.682200
N -12.340800 -21.300200 -21.772000
H -12.242900 -21.371000 -22.755400
C -11.624400 -21.227000 -19.742300
N -11.228400 -21.342600 -20.996300
H -10.827500 -22.096500 -18.090800
H -10.739800 -20.498900 -18.066100
C -10.650100 -21.296400 -18.629100
H -9.740900 -21.340900 -18.992900
H -20.366700 -18.034400 -16.660600
H -20.165500 -17.917900 -18.949200
C -19.511300 -17.963200 -17.068300
H -19.507900 -18.835800 -13.897700
H -19.378500 -17.261800 -13.631400
C -19.374800 -17.890400 -18.423600
C -18.878700 -18.096000 -13.756200
C -18.342600 -17.928500 -16.306200
H -18.338900 -18.275400 -12.959200
N -18.187800 -17.782700 -19.073500
C -17.990200 -17.968300 -14.937800
C -17.122800 -17.808700 -16.979200
C -17.070500 -17.737200 -18.368100
N -16.677600 -17.867100 -14.799600
H -16.232100 -17.657300 -18.809600
N -16.147700 -17.757200 -16.043600
H -15.207600 -17.769900 -16.106300
