17
Fragment
H -15.979600 -20.804000 -18.432700
N -15.713700 -21.006700 -20.389300
C -15.311000 -20.907500 -19.098400
H -15.077000 -21.207400 -22.240300
C -14.805600 -21.132800 -21.332900
C -14.006600 -20.948100 -18.690800
H -13.774000 -20.882600 -17.772200
C -13.456200 -21.157300 -21.015700
C -13.029500 -21.088400 -19.682200
N -12.340800 -21.300200 -21.772000
H -12.242900 -21.371000 -22.755400
C -11.624400 -21.227000 -19.742300
N -11.228400 -21.342600 -20.996300
H -10.827500 -22.096500 -18.090800
H -10.739800 -20.498900 -18.066100
C -10.650100 -21.296400 -18.629100
H -9.740900 -21.340900 -18.992900
17
Fragment
H -15.204000 -21.515100 -27.542100
N -14.263900 -21.527800 -27.604900
H -14.179500 -21.627700 -24.838900
N -13.734000 -21.417900 -28.848800
C -13.341100 -21.547800 -25.280300
C -13.288800 -21.476300 -26.669200
C -12.421400 -21.316700 -28.710600
N -12.223700 -21.502300 -24.574900
H -12.072700 -21.009600 -30.689200
C -12.069000 -21.356500 -27.342200
C -11.532900 -21.189000 -29.892200
C -11.036800 -21.394600 -25.224900
H -11.033100 -22.023200 -30.017000
H -10.903700 -20.449200 -29.750800
C -10.900300 -21.321800 -26.580100
H -10.246100 -21.367100 -24.699200
H -10.044900 -21.250600 -26.987800
34
Fragment
H -15.979600 -20.804000 -18.432700
N -15.713700 -21.006700 -20.389300
C -15.311000 -20.907500 -19.098400
H -15.077000 -21.207400 -22.240300
C -14.805600 -21.132800 -21.332900
C -14.006600 -20.948100 -18.690800
H -13.774000 -20.882600 -17.772200
C -13.456200 -21.157300 -21.015700
C -13.029500 -21.088400 -19.682200
N -12.340800 -21.300200 -21.772000
H -12.242900 -21.371000 -22.755400
C -11.624400 -21.227000 -19.742300
N -11.228400 -21.342600 -20.996300
H -10.827500 -22.096500 -18.090800
H -10.739800 -20.498900 -18.066100
C -10.650100 -21.296400 -18.629100
H -9.740900 -21.340900 -18.992900
H -15.204000 -21.515100 -27.542100
N -14.263900 -21.527800 -27.604900
H -14.179500 -21.627700 -24.838900
N -13.734000 -21.417900 -28.848800
C -13.341100 -21.547800 -25.280300
C -13.288800 -21.476300 -26.669200
C -12.421400 -21.316700 -28.710600
N -12.223700 -21.502300 -24.574900
H -12.072700 -21.009600 -30.689200
C -12.069000 -21.356500 -27.342200
C -11.532900 -21.189000 -29.892200
C -11.036800 -21.394600 -25.224900
H -11.033100 -22.023200 -30.017000
H -10.903700 -20.449200 -29.750800
C -10.900300 -21.321800 -26.580100
H -10.246100 -21.367100 -24.699200
H -10.044900 -21.250600 -26.987800
