17
Fragment
H -15.979600 -20.804000 -18.432700
N -15.713700 -21.006700 -20.389300
C -15.311000 -20.907500 -19.098400
H -15.077000 -21.207400 -22.240300
C -14.805600 -21.132800 -21.332900
C -14.006600 -20.948100 -18.690800
H -13.774000 -20.882600 -17.772200
C -13.456200 -21.157300 -21.015700
C -13.029500 -21.088400 -19.682200
N -12.340800 -21.300200 -21.772000
H -12.242900 -21.371000 -22.755400
C -11.624400 -21.227000 -19.742300
N -11.228400 -21.342600 -20.996300
H -10.827500 -22.096500 -18.090800
H -10.739800 -20.498900 -18.066100
C -10.650100 -21.296400 -18.629100
H -9.740900 -21.340900 -18.992900
17
Fragment
H -13.624200 -18.076300 -14.025700
N -13.341600 -18.051100 -15.992600
C -12.947900 -18.052800 -14.693500
H -12.695300 -18.026600 -17.849300
C -12.430700 -18.026100 -16.936300
C -11.646000 -18.021900 -14.280700
H -11.419300 -18.026600 -13.357900
C -11.075300 -17.997900 -16.606200
C -10.664600 -17.983800 -15.271000
N -9.955600 -17.942900 -17.367600
H -9.859400 -17.953200 -18.405100
C -9.248900 -17.897100 -15.326700
N -8.846000 -17.877600 -16.588700
H -8.445000 -16.942300 -13.727400
H -8.417700 -18.536000 -13.589200
C -8.290800 -17.784300 -14.203900
H -7.375100 -17.798700 -14.552400
34
Fragment
H -15.979600 -20.804000 -18.432700
N -15.713700 -21.006700 -20.389300
C -15.311000 -20.907500 -19.098400
H -15.077000 -21.207400 -22.240300
C -14.805600 -21.132800 -21.332900
C -14.006600 -20.948100 -18.690800
H -13.774000 -20.882600 -17.772200
C -13.456200 -21.157300 -21.015700
C -13.029500 -21.088400 -19.682200
N -12.340800 -21.300200 -21.772000
H -12.242900 -21.371000 -22.755400
C -11.624400 -21.227000 -19.742300
N -11.228400 -21.342600 -20.996300
H -10.827500 -22.096500 -18.090800
H -10.739800 -20.498900 -18.066100
C -10.650100 -21.296400 -18.629100
H -9.740900 -21.340900 -18.992900
H -13.624200 -18.076300 -14.025700
N -13.341600 -18.051100 -15.992600
C -12.947900 -18.052800 -14.693500
H -12.695300 -18.026600 -17.849300
C -12.430700 -18.026100 -16.936300
C -11.646000 -18.021900 -14.280700
H -11.419300 -18.026600 -13.357900
C -11.075300 -17.997900 -16.606200
C -10.664600 -17.983800 -15.271000
N -9.955600 -17.942900 -17.367600
H -9.859400 -17.953200 -18.405100
C -9.248900 -17.897100 -15.326700
N -8.846000 -17.877600 -16.588700
H -8.445000 -16.942300 -13.727400
H -8.417700 -18.536000 -13.589200
C -8.290800 -17.784300 -14.203900
H -7.375100 -17.798700 -14.552400
