17
Fragment
N -21.538500 -7.805400 -18.671400
C -21.139900 -8.279500 -17.713900
H -21.099100 -7.412300 -15.217000
C -20.777800 -8.265000 -15.286300
C -20.667900 -8.918900 -16.509100
O -20.592200 -7.049100 -12.875500
N -20.489600 -8.263700 -12.861100
O -20.449300 -8.941100 -11.848700
C -20.392200 -8.943200 -14.158100
C -20.129800 -10.197000 -16.591900
H -20.010200 -10.602400 -17.439300
C -19.909600 -10.234700 -14.185400
C -19.758700 -10.816300 -15.424700
H -19.684800 -10.657900 -13.397200
N -19.141000 -12.144900 -15.490600
O -18.916600 -12.725000 -14.443400
O -18.854400 -12.587600 -16.592300
17
Fragment
N -25.264300 -0.462400 -18.671400
C -24.865700 -0.936500 -17.713900
H -24.824900 -0.069300 -15.217000
C -24.503600 -0.922000 -15.286300
C -24.393700 -1.575900 -16.509100
O -24.318000 0.293900 -12.875500
N -24.215400 -0.920700 -12.861100
O -24.175100 -1.598100 -11.848700
C -24.117900 -1.600200 -14.158100
C -23.855600 -2.854000 -16.591900
H -23.736000 -3.259400 -17.439300
C -23.635300 -2.891700 -14.185400
C -23.484500 -3.473300 -15.424700
H -23.410500 -3.314900 -13.397200
N -22.866800 -4.801900 -15.490600
O -22.642300 -5.382000 -14.443400
O -22.580100 -5.244600 -16.592300
34
Fragment
N -21.538500 -7.805400 -18.671400
C -21.139900 -8.279500 -17.713900
H -21.099100 -7.412300 -15.217000
C -20.777800 -8.265000 -15.286300
C -20.667900 -8.918900 -16.509100
O -20.592200 -7.049100 -12.875500
N -20.489600 -8.263700 -12.861100
O -20.449300 -8.941100 -11.848700
C -20.392200 -8.943200 -14.158100
C -20.129800 -10.197000 -16.591900
H -20.010200 -10.602400 -17.439300
C -19.909600 -10.234700 -14.185400
C -19.758700 -10.816300 -15.424700
H -19.684800 -10.657900 -13.397200
N -19.141000 -12.144900 -15.490600
O -18.916600 -12.725000 -14.443400
O -18.854400 -12.587600 -16.592300
N -25.264300 -0.462400 -18.671400
C -24.865700 -0.936500 -17.713900
H -24.824900 -0.069300 -15.217000
C -24.503600 -0.922000 -15.286300
C -24.393700 -1.575900 -16.509100
O -24.318000 0.293900 -12.875500
N -24.215400 -0.920700 -12.861100
O -24.175100 -1.598100 -11.848700
C -24.117900 -1.600200 -14.158100
C -23.855600 -2.854000 -16.591900
H -23.736000 -3.259400 -17.439300
C -23.635300 -2.891700 -14.185400
C -23.484500 -3.473300 -15.424700
H -23.410500 -3.314900 -13.397200
N -22.866800 -4.801900 -15.490600
O -22.642300 -5.382000 -14.443400
O -22.580100 -5.244600 -16.592300
