17
Fragment
N -21.538500 -7.805400 -18.671400
C -21.139900 -8.279500 -17.713900
H -21.099100 -7.412300 -15.217000
C -20.777800 -8.265000 -15.286300
C -20.667900 -8.918900 -16.509100
O -20.592200 -7.049100 -12.875500
N -20.489600 -8.263700 -12.861100
O -20.449300 -8.941100 -11.848700
C -20.392200 -8.943200 -14.158100
C -20.129800 -10.197000 -16.591900
H -20.010200 -10.602400 -17.439300
C -19.909600 -10.234700 -14.185400
C -19.758700 -10.816300 -15.424700
H -19.684800 -10.657900 -13.397200
N -19.141000 -12.144900 -15.490600
O -18.916600 -12.725000 -14.443400
O -18.854400 -12.587600 -16.592300
11
Fragment
H -18.703100 -9.820200 -8.742500
H -18.626200 -10.468900 -10.990600
C -18.443400 -10.708300 -8.989600
C -18.413500 -11.102900 -10.304700
N -18.112300 -11.499100 -7.973600
C -18.031900 -12.384500 -10.607300
H -17.994700 -12.642200 -11.518600
C -17.741200 -12.749000 -8.284000
C -17.684800 -13.224300 -9.578100
H -17.498000 -13.341000 -7.576200
H -17.405900 -14.072200 -9.765700
28
Fragment
N -21.538500 -7.805400 -18.671400
C -21.139900 -8.279500 -17.713900
H -21.099100 -7.412300 -15.217000
C -20.777800 -8.265000 -15.286300
C -20.667900 -8.918900 -16.509100
O -20.592200 -7.049100 -12.875500
N -20.489600 -8.263700 -12.861100
O -20.449300 -8.941100 -11.848700
C -20.392200 -8.943200 -14.158100
C -20.129800 -10.197000 -16.591900
H -20.010200 -10.602400 -17.439300
C -19.909600 -10.234700 -14.185400
C -19.758700 -10.816300 -15.424700
H -19.684800 -10.657900 -13.397200
N -19.141000 -12.144900 -15.490600
O -18.916600 -12.725000 -14.443400
O -18.854400 -12.587600 -16.592300
H -18.703100 -9.820200 -8.742500
H -18.626200 -10.468900 -10.990600
C -18.443400 -10.708300 -8.989600
C -18.413500 -11.102900 -10.304700
N -18.112300 -11.499100 -7.973600
C -18.031900 -12.384500 -10.607300
H -17.994700 -12.642200 -11.518600
C -17.741200 -12.749000 -8.284000
C -17.684800 -13.224300 -9.578100
H -17.498000 -13.341000 -7.576200
H -17.405900 -14.072200 -9.765700
