17
Fragment
N -21.538500 -7.805400 -18.671400
C -21.139900 -8.279500 -17.713900
H -21.099100 -7.412300 -15.217000
C -20.777800 -8.265000 -15.286300
C -20.667900 -8.918900 -16.509100
O -20.592200 -7.049100 -12.875500
N -20.489600 -8.263700 -12.861100
O -20.449300 -8.941100 -11.848700
C -20.392200 -8.943200 -14.158100
C -20.129800 -10.197000 -16.591900
H -20.010200 -10.602400 -17.439300
C -19.909600 -10.234700 -14.185400
C -19.758700 -10.816300 -15.424700
H -19.684800 -10.657900 -13.397200
N -19.141000 -12.144900 -15.490600
O -18.916600 -12.725000 -14.443400
O -18.854400 -12.587600 -16.592300
17
Fragment
O -19.663200 -1.435200 -6.874500
O -19.601000 -1.297800 -9.023300
N -19.376500 -1.877900 -7.976100
H -18.832800 -3.364900 -10.069600
C -18.758800 -3.206400 -8.042000
C -18.608000 -3.788100 -9.281300
H -18.507300 -3.420400 -6.027400
C -18.387700 -3.825800 -6.874800
C -18.125400 -5.079600 -9.308700
O -18.068200 -5.081700 -11.618000
N -18.027900 -5.759100 -10.605700
O -17.925300 -6.973700 -10.591200
C -17.849600 -5.103800 -6.957600
C -17.739700 -5.757800 -8.180400
H -17.418400 -6.610500 -8.249700
C -17.377700 -5.743200 -5.752900
N -16.979000 -6.217400 -4.795300
34
Fragment
N -21.538500 -7.805400 -18.671400
C -21.139900 -8.279500 -17.713900
H -21.099100 -7.412300 -15.217000
C -20.777800 -8.265000 -15.286300
C -20.667900 -8.918900 -16.509100
O -20.592200 -7.049100 -12.875500
N -20.489600 -8.263700 -12.861100
O -20.449300 -8.941100 -11.848700
C -20.392200 -8.943200 -14.158100
C -20.129800 -10.197000 -16.591900
H -20.010200 -10.602400 -17.439300
C -19.909600 -10.234700 -14.185400
C -19.758700 -10.816300 -15.424700
H -19.684800 -10.657900 -13.397200
N -19.141000 -12.144900 -15.490600
O -18.916600 -12.725000 -14.443400
O -18.854400 -12.587600 -16.592300
O -19.663200 -1.435200 -6.874500
O -19.601000 -1.297800 -9.023300
N -19.376500 -1.877900 -7.976100
H -18.832800 -3.364900 -10.069600
C -18.758800 -3.206400 -8.042000
C -18.608000 -3.788100 -9.281300
H -18.507300 -3.420400 -6.027400
C -18.387700 -3.825800 -6.874800
C -18.125400 -5.079600 -9.308700
O -18.068200 -5.081700 -11.618000
N -18.027900 -5.759100 -10.605700
O -17.925300 -6.973700 -10.591200
C -17.849600 -5.103800 -6.957600
C -17.739700 -5.757800 -8.180400
H -17.418400 -6.610500 -8.249700
C -17.377700 -5.743200 -5.752900
N -16.979000 -6.217400 -4.795300
