17
Fragment
N -21.538500 -7.805400 -18.671400
C -21.139900 -8.279500 -17.713900
H -21.099100 -7.412300 -15.217000
C -20.777800 -8.265000 -15.286300
C -20.667900 -8.918900 -16.509100
O -20.592200 -7.049100 -12.875500
N -20.489600 -8.263700 -12.861100
O -20.449300 -8.941100 -11.848700
C -20.392200 -8.943200 -14.158100
C -20.129800 -10.197000 -16.591900
H -20.010200 -10.602400 -17.439300
C -19.909600 -10.234700 -14.185400
C -19.758700 -10.816300 -15.424700
H -19.684800 -10.657900 -13.397200
N -19.141000 -12.144900 -15.490600
O -18.916600 -12.725000 -14.443400
O -18.854400 -12.587600 -16.592300
11
Fragment
H -20.591600 -9.488500 -20.475900
H -20.514700 -10.137300 -22.724000
C -20.331900 -10.376700 -20.723000
C -20.302000 -10.771300 -22.038100
N -20.000900 -11.167400 -19.707000
C -19.920400 -12.052900 -22.340700
H -19.883200 -12.310600 -23.252000
C -19.629700 -12.417400 -20.017400
C -19.573400 -12.892600 -21.311400
H -19.386600 -13.009400 -19.309600
H -19.294400 -13.740600 -21.499000
28
Fragment
N -21.538500 -7.805400 -18.671400
C -21.139900 -8.279500 -17.713900
H -21.099100 -7.412300 -15.217000
C -20.777800 -8.265000 -15.286300
C -20.667900 -8.918900 -16.509100
O -20.592200 -7.049100 -12.875500
N -20.489600 -8.263700 -12.861100
O -20.449300 -8.941100 -11.848700
C -20.392200 -8.943200 -14.158100
C -20.129800 -10.197000 -16.591900
H -20.010200 -10.602400 -17.439300
C -19.909600 -10.234700 -14.185400
C -19.758700 -10.816300 -15.424700
H -19.684800 -10.657900 -13.397200
N -19.141000 -12.144900 -15.490600
O -18.916600 -12.725000 -14.443400
O -18.854400 -12.587600 -16.592300
H -20.591600 -9.488500 -20.475900
H -20.514700 -10.137300 -22.724000
C -20.331900 -10.376700 -20.723000
C -20.302000 -10.771300 -22.038100
N -20.000900 -11.167400 -19.707000
C -19.920400 -12.052900 -22.340700
H -19.883200 -12.310600 -23.252000
C -19.629700 -12.417400 -20.017400
C -19.573400 -12.892600 -21.311400
H -19.386600 -13.009400 -19.309600
H -19.294400 -13.740600 -21.499000
