17
Fragment
N -21.538500 -7.805400 -18.671400
C -21.139900 -8.279500 -17.713900
H -21.099100 -7.412300 -15.217000
C -20.777800 -8.265000 -15.286300
C -20.667900 -8.918900 -16.509100
O -20.592200 -7.049100 -12.875500
N -20.489600 -8.263700 -12.861100
O -20.449300 -8.941100 -11.848700
C -20.392200 -8.943200 -14.158100
C -20.129800 -10.197000 -16.591900
H -20.010200 -10.602400 -17.439300
C -19.909600 -10.234700 -14.185400
C -19.758700 -10.816300 -15.424700
H -19.684800 -10.657900 -13.397200
N -19.141000 -12.144900 -15.490600
O -18.916600 -12.725000 -14.443400
O -18.854400 -12.587600 -16.592300
17
Fragment
O -22.969400 -8.778200 -6.874500
O -22.907200 -8.640800 -9.023300
N -22.682800 -9.220900 -7.976100
H -22.139000 -10.707900 -10.069600
C -22.065000 -10.549400 -8.042000
C -21.914200 -11.131100 -9.281300
H -21.813600 -10.763400 -6.027400
C -21.693900 -11.168800 -6.874800
C -21.431600 -12.422600 -9.308700
O -21.374400 -12.424700 -11.618000
N -21.334200 -13.102100 -10.605700
O -21.231600 -14.316700 -10.591200
C -21.155800 -12.446800 -6.957600
C -21.045900 -13.100700 -8.180400
H -20.724700 -13.953500 -8.249700
C -20.683900 -13.086200 -5.752900
N -20.285300 -13.560400 -4.795300
34
Fragment
N -21.538500 -7.805400 -18.671400
C -21.139900 -8.279500 -17.713900
H -21.099100 -7.412300 -15.217000
C -20.777800 -8.265000 -15.286300
C -20.667900 -8.918900 -16.509100
O -20.592200 -7.049100 -12.875500
N -20.489600 -8.263700 -12.861100
O -20.449300 -8.941100 -11.848700
C -20.392200 -8.943200 -14.158100
C -20.129800 -10.197000 -16.591900
H -20.010200 -10.602400 -17.439300
C -19.909600 -10.234700 -14.185400
C -19.758700 -10.816300 -15.424700
H -19.684800 -10.657900 -13.397200
N -19.141000 -12.144900 -15.490600
O -18.916600 -12.725000 -14.443400
O -18.854400 -12.587600 -16.592300
O -22.969400 -8.778200 -6.874500
O -22.907200 -8.640800 -9.023300
N -22.682800 -9.220900 -7.976100
H -22.139000 -10.707900 -10.069600
C -22.065000 -10.549400 -8.042000
C -21.914200 -11.131100 -9.281300
H -21.813600 -10.763400 -6.027400
C -21.693900 -11.168800 -6.874800
C -21.431600 -12.422600 -9.308700
O -21.374400 -12.424700 -11.618000
N -21.334200 -13.102100 -10.605700
O -21.231600 -14.316700 -10.591200
C -21.155800 -12.446800 -6.957600
C -21.045900 -13.100700 -8.180400
H -20.724700 -13.953500 -8.249700
C -20.683900 -13.086200 -5.752900
N -20.285300 -13.560400 -4.795300
