46
Fragment
H -27.026400 -0.345500 -20.469200
H -26.570900 -0.072700 -18.236900
C -26.455900 -0.947000 -20.048700
C -26.180900 -0.779800 -18.699000
H -26.101500 -2.082400 -21.689000
C -25.911300 -1.974300 -20.784400
C -25.343400 -1.639300 -18.032100
H -25.154300 -1.524600 -17.128200
C -25.060800 -2.842900 -20.106900
C -24.785800 -2.688900 -18.756400
N -24.315200 -3.941400 -20.511700
H -24.201300 -4.182800 -21.334000
N -23.878600 -3.671600 -18.350000
C -23.637900 -4.370500 -19.433900
H -23.411000 -6.915200 -21.677100
H -23.229400 -6.355200 -19.216400
C -22.720400 -5.563200 -19.450200
C -22.456600 -6.957500 -21.507400
H -22.296200 -7.736000 -20.951900
N -22.079100 -5.775100 -20.750300
O -22.047400 -8.150100 -23.499100
H -22.034400 -5.442100 -18.775700
C -21.758300 -7.165700 -22.817300
C -21.155300 -4.905900 -21.149200
H -20.879200 -6.629500 -25.190800
O -20.866200 -3.921500 -20.467400
N -20.834500 -6.296500 -23.216200
H -20.617400 -4.335600 -23.014600
C -20.457000 -5.114100 -22.459100
C -20.193200 -6.508400 -24.516300
H -19.684200 -5.716400 -24.750100
H -19.502600 -5.156400 -22.289400
C -19.275700 -7.701100 -24.532600
N -19.035000 -8.400000 -25.616500
H -18.712300 -7.888800 -22.632500
N -18.598400 -8.130200 -23.454800
C -18.127800 -9.382700 -25.210100
C -17.852800 -9.228700 -23.859600
H -17.759300 -10.547000 -26.838300
C -17.570200 -10.432300 -25.934400
C -17.002300 -10.097300 -23.182100
H -16.812100 -9.989200 -22.277500
C -16.732700 -11.291800 -25.267600
C -16.457700 -11.124600 -23.917800
H -16.342700 -11.998900 -25.729600
H -15.887200 -11.726100 -23.497300
3
Fragment
H -19.366600 -12.669100 -28.065300
H -18.867700 -13.701300 -27.429200
O -18.866700 -13.313200 -28.151600
49
Fragment
H -27.026400 -0.345500 -20.469200
H -26.570900 -0.072700 -18.236900
C -26.455900 -0.947000 -20.048700
C -26.180900 -0.779800 -18.699000
H -26.101500 -2.082400 -21.689000
C -25.911300 -1.974300 -20.784400
C -25.343400 -1.639300 -18.032100
H -25.154300 -1.524600 -17.128200
C -25.060800 -2.842900 -20.106900
C -24.785800 -2.688900 -18.756400
N -24.315200 -3.941400 -20.511700
H -24.201300 -4.182800 -21.334000
N -23.878600 -3.671600 -18.350000
C -23.637900 -4.370500 -19.433900
H -23.411000 -6.915200 -21.677100
H -23.229400 -6.355200 -19.216400
C -22.720400 -5.563200 -19.450200
C -22.456600 -6.957500 -21.507400
H -22.296200 -7.736000 -20.951900
N -22.079100 -5.775100 -20.750300
O -22.047400 -8.150100 -23.499100
H -22.034400 -5.442100 -18.775700
C -21.758300 -7.165700 -22.817300
C -21.155300 -4.905900 -21.149200
H -20.879200 -6.629500 -25.190800
O -20.866200 -3.921500 -20.467400
N -20.834500 -6.296500 -23.216200
H -20.617400 -4.335600 -23.014600
C -20.457000 -5.114100 -22.459100
C -20.193200 -6.508400 -24.516300
H -19.684200 -5.716400 -24.750100
H -19.502600 -5.156400 -22.289400
C -19.275700 -7.701100 -24.532600
N -19.035000 -8.400000 -25.616500
H -18.712300 -7.888800 -22.632500
N -18.598400 -8.130200 -23.454800
C -18.127800 -9.382700 -25.210100
C -17.852800 -9.228700 -23.859600
H -17.759300 -10.547000 -26.838300
C -17.570200 -10.432300 -25.934400
C -17.002300 -10.097300 -23.182100
H -16.812100 -9.989200 -22.277500
C -16.732700 -11.291800 -25.267600
C -16.457700 -11.124600 -23.917800
H -16.342700 -11.998900 -25.729600
H -15.887200 -11.726100 -23.497300
H -19.366600 -12.669100 -28.065300
H -18.867700 -13.701300 -27.429200
O -18.866700 -13.313200 -28.151600
