18
Fragment
H -25.007400 -9.250200 -20.391800
N -24.307700 -9.810300 -18.541400
N -24.251600 -9.509800 -19.919300
H -23.278000 -10.611900 -16.371900
C -23.085100 -10.143000 -18.228400
C -23.031500 -9.617100 -20.427200
N -22.626700 -10.509300 -17.017000
O -22.593300 -9.405800 -21.564300
N -22.264000 -10.039000 -19.329400
H -21.844300 -10.866800 -16.932300
N -20.956900 -10.481100 -19.398200
H -20.844000 -11.235700 -19.904600
H -20.718200 -7.801300 -18.954400
N -20.052300 -8.237300 -19.266900
C -19.964700 -9.538000 -19.533000
N -18.820800 -7.690600 -19.465900
N -18.742300 -9.843200 -19.892000
N -18.049300 -8.651800 -19.835400
18
Fragment
N -25.962400 -5.297900 -22.799900
N -25.269400 -6.489200 -22.743200
N -25.190900 -4.336700 -23.169400
C -24.047000 -6.184000 -23.102200
N -23.959400 -4.883400 -23.368400
H -23.293500 -4.447300 -23.680900
H -23.167700 -7.881800 -22.730700
N -23.054800 -7.127100 -23.237100
H -22.167400 -7.512800 -25.703000
N -21.747700 -6.685100 -23.305900
O -21.418400 -6.051900 -21.071000
N -21.385000 -7.155300 -25.618300
C -20.980200 -6.263200 -22.208100
C -20.926600 -6.789100 -24.406900
H -20.733600 -7.257900 -26.263300
N -19.760000 -6.155800 -22.716000
N -19.704000 -6.456400 -24.093900
H -19.004200 -5.896200 -22.243400
36
Fragment
H -25.007400 -9.250200 -20.391800
N -24.307700 -9.810300 -18.541400
N -24.251600 -9.509800 -19.919300
H -23.278000 -10.611900 -16.371900
C -23.085100 -10.143000 -18.228400
C -23.031500 -9.617100 -20.427200
N -22.626700 -10.509300 -17.017000
O -22.593300 -9.405800 -21.564300
N -22.264000 -10.039000 -19.329400
H -21.844300 -10.866800 -16.932300
N -20.956900 -10.481100 -19.398200
H -20.844000 -11.235700 -19.904600
H -20.718200 -7.801300 -18.954400
N -20.052300 -8.237300 -19.266900
C -19.964700 -9.538000 -19.533000
N -18.820800 -7.690600 -19.465900
N -18.742300 -9.843200 -19.892000
N -18.049300 -8.651800 -19.835400
N -25.962400 -5.297900 -22.799900
N -25.269400 -6.489200 -22.743200
N -25.190900 -4.336700 -23.169400
C -24.047000 -6.184000 -23.102200
N -23.959400 -4.883400 -23.368400
H -23.293500 -4.447300 -23.680900
H -23.167700 -7.881800 -22.730700
N -23.054800 -7.127100 -23.237100
H -22.167400 -7.512800 -25.703000
N -21.747700 -6.685100 -23.305900
O -21.418400 -6.051900 -21.071000
N -21.385000 -7.155300 -25.618300
C -20.980200 -6.263200 -22.208100
C -20.926600 -6.789100 -24.406900
H -20.733600 -7.257900 -26.263300
N -19.760000 -6.155800 -22.716000
N -19.704000 -6.456400 -24.093900
H -19.004200 -5.896200 -22.243400
