18
Fragment
H -25.007400 -9.250200 -20.391800
N -24.307700 -9.810300 -18.541400
N -24.251600 -9.509800 -19.919300
H -23.278000 -10.611900 -16.371900
C -23.085100 -10.143000 -18.228400
C -23.031500 -9.617100 -20.427200
N -22.626700 -10.509300 -17.017000
O -22.593300 -9.405800 -21.564300
N -22.264000 -10.039000 -19.329400
H -21.844300 -10.866800 -16.932300
N -20.956900 -10.481100 -19.398200
H -20.844000 -11.235700 -19.904600
H -20.718200 -7.801300 -18.954400
N -20.052300 -8.237300 -19.266900
C -19.964700 -9.538000 -19.533000
N -18.820800 -7.690600 -19.465900
N -18.742300 -9.843200 -19.892000
N -18.049300 -8.651800 -19.835400
18
Fragment
N -28.508200 -8.117900 -16.709100
N -27.815200 -6.926600 -16.652500
N -27.736700 -9.079100 -17.078600
C -26.592800 -7.231800 -17.011500
N -26.505200 -8.532400 -17.277600
H -25.839300 -8.968500 -17.590100
H -25.713500 -5.534000 -16.639900
N -25.600600 -6.288700 -17.146300
H -24.713200 -5.903000 -19.612200
N -24.293500 -6.730700 -17.215200
O -23.964200 -7.363900 -14.980200
N -23.930800 -6.260500 -19.527600
C -23.526000 -7.152600 -16.117400
C -23.472400 -6.626700 -18.316100
H -23.279400 -6.157900 -20.172600
N -22.305800 -7.260000 -16.625200
N -22.249800 -6.959400 -18.003200
H -21.550100 -7.519600 -16.152700
36
Fragment
H -25.007400 -9.250200 -20.391800
N -24.307700 -9.810300 -18.541400
N -24.251600 -9.509800 -19.919300
H -23.278000 -10.611900 -16.371900
C -23.085100 -10.143000 -18.228400
C -23.031500 -9.617100 -20.427200
N -22.626700 -10.509300 -17.017000
O -22.593300 -9.405800 -21.564300
N -22.264000 -10.039000 -19.329400
H -21.844300 -10.866800 -16.932300
N -20.956900 -10.481100 -19.398200
H -20.844000 -11.235700 -19.904600
H -20.718200 -7.801300 -18.954400
N -20.052300 -8.237300 -19.266900
C -19.964700 -9.538000 -19.533000
N -18.820800 -7.690600 -19.465900
N -18.742300 -9.843200 -19.892000
N -18.049300 -8.651800 -19.835400
N -28.508200 -8.117900 -16.709100
N -27.815200 -6.926600 -16.652500
N -27.736700 -9.079100 -17.078600
C -26.592800 -7.231800 -17.011500
N -26.505200 -8.532400 -17.277600
H -25.839300 -8.968500 -17.590100
H -25.713500 -5.534000 -16.639900
N -25.600600 -6.288700 -17.146300
H -24.713200 -5.903000 -19.612200
N -24.293500 -6.730700 -17.215200
O -23.964200 -7.363900 -14.980200
N -23.930800 -6.260500 -19.527600
C -23.526000 -7.152600 -16.117400
C -23.472400 -6.626700 -18.316100
H -23.279400 -6.157900 -20.172600
N -22.305800 -7.260000 -16.625200
N -22.249800 -6.959400 -18.003200
H -21.550100 -7.519600 -16.152700
