18
Fragment
H -25.007400 -9.250200 -20.391800
N -24.307700 -9.810300 -18.541400
N -24.251600 -9.509800 -19.919300
H -23.278000 -10.611900 -16.371900
C -23.085100 -10.143000 -18.228400
C -23.031500 -9.617100 -20.427200
N -22.626700 -10.509300 -17.017000
O -22.593300 -9.405800 -21.564300
N -22.264000 -10.039000 -19.329400
H -21.844300 -10.866800 -16.932300
N -20.956900 -10.481100 -19.398200
H -20.844000 -11.235700 -19.904600
H -20.718200 -7.801300 -18.954400
N -20.052300 -8.237300 -19.266900
C -19.964700 -9.538000 -19.533000
N -18.820800 -7.690600 -19.465900
N -18.742300 -9.843200 -19.892000
N -18.049300 -8.651800 -19.835400
18
Fragment
H -22.461600 -10.873500 -26.482600
N -21.761900 -10.313400 -24.632100
N -21.705800 -10.613900 -26.010100
H -20.732200 -9.511800 -22.462700
C -20.539300 -9.980700 -24.319200
C -20.485700 -10.506600 -26.517900
N -20.080900 -9.614400 -23.107700
O -20.047500 -10.717900 -27.655100
N -19.718100 -10.084700 -25.420100
H -19.298500 -9.256900 -23.023100
N -18.411000 -9.642600 -25.489000
H -18.298100 -8.888000 -25.995300
H -18.172400 -12.322400 -25.045200
N -17.506500 -11.886400 -25.357600
C -17.418900 -10.585700 -25.623800
N -16.275000 -12.433100 -25.556700
N -16.196500 -10.280500 -25.982800
N -15.503400 -11.471900 -25.926100
36
Fragment
H -25.007400 -9.250200 -20.391800
N -24.307700 -9.810300 -18.541400
N -24.251600 -9.509800 -19.919300
H -23.278000 -10.611900 -16.371900
C -23.085100 -10.143000 -18.228400
C -23.031500 -9.617100 -20.427200
N -22.626700 -10.509300 -17.017000
O -22.593300 -9.405800 -21.564300
N -22.264000 -10.039000 -19.329400
H -21.844300 -10.866800 -16.932300
N -20.956900 -10.481100 -19.398200
H -20.844000 -11.235700 -19.904600
H -20.718200 -7.801300 -18.954400
N -20.052300 -8.237300 -19.266900
C -19.964700 -9.538000 -19.533000
N -18.820800 -7.690600 -19.465900
N -18.742300 -9.843200 -19.892000
N -18.049300 -8.651800 -19.835400
H -22.461600 -10.873500 -26.482600
N -21.761900 -10.313400 -24.632100
N -21.705800 -10.613900 -26.010100
H -20.732200 -9.511800 -22.462700
C -20.539300 -9.980700 -24.319200
C -20.485700 -10.506600 -26.517900
N -20.080900 -9.614400 -23.107700
O -20.047500 -10.717900 -27.655100
N -19.718100 -10.084700 -25.420100
H -19.298500 -9.256900 -23.023100
N -18.411000 -9.642600 -25.489000
H -18.298100 -8.888000 -25.995300
H -18.172400 -12.322400 -25.045200
N -17.506500 -11.886400 -25.357600
C -17.418900 -10.585700 -25.623800
N -16.275000 -12.433100 -25.556700
N -16.196500 -10.280500 -25.982800
N -15.503400 -11.471900 -25.926100
