18
Fragment
H -25.007400 -9.250200 -20.391800
N -24.307700 -9.810300 -18.541400
N -24.251600 -9.509800 -19.919300
H -23.278000 -10.611900 -16.371900
C -23.085100 -10.143000 -18.228400
C -23.031500 -9.617100 -20.427200
N -22.626700 -10.509300 -17.017000
O -22.593300 -9.405800 -21.564300
N -22.264000 -10.039000 -19.329400
H -21.844300 -10.866800 -16.932300
N -20.956900 -10.481100 -19.398200
H -20.844000 -11.235700 -19.904600
H -20.718200 -7.801300 -18.954400
N -20.052300 -8.237300 -19.266900
C -19.964700 -9.538000 -19.533000
N -18.820800 -7.690600 -19.465900
N -18.742300 -9.843200 -19.892000
N -18.049300 -8.651800 -19.835400
18
Fragment
H -16.174200 -5.896200 -20.391800
N -15.474500 -6.456400 -18.541400
N -15.418400 -6.155800 -19.919300
H -14.444800 -7.257900 -16.371900
C -14.251900 -6.789100 -18.228400
C -14.198300 -6.263200 -20.427200
N -13.793500 -7.155300 -17.017000
O -13.760100 -6.051900 -21.564300
N -13.430800 -6.685100 -19.329400
H -13.011100 -7.512800 -16.932300
N -12.123700 -7.127100 -19.398200
H -12.010800 -7.881800 -19.904600
H -11.885000 -4.447300 -18.954400
N -11.219100 -4.883400 -19.266900
C -11.131500 -6.184000 -19.533000
N -9.987600 -4.336700 -19.465900
N -9.909100 -6.489200 -19.892000
N -9.216100 -5.297900 -19.835400
36
Fragment
H -25.007400 -9.250200 -20.391800
N -24.307700 -9.810300 -18.541400
N -24.251600 -9.509800 -19.919300
H -23.278000 -10.611900 -16.371900
C -23.085100 -10.143000 -18.228400
C -23.031500 -9.617100 -20.427200
N -22.626700 -10.509300 -17.017000
O -22.593300 -9.405800 -21.564300
N -22.264000 -10.039000 -19.329400
H -21.844300 -10.866800 -16.932300
N -20.956900 -10.481100 -19.398200
H -20.844000 -11.235700 -19.904600
H -20.718200 -7.801300 -18.954400
N -20.052300 -8.237300 -19.266900
C -19.964700 -9.538000 -19.533000
N -18.820800 -7.690600 -19.465900
N -18.742300 -9.843200 -19.892000
N -18.049300 -8.651800 -19.835400
H -16.174200 -5.896200 -20.391800
N -15.474500 -6.456400 -18.541400
N -15.418400 -6.155800 -19.919300
H -14.444800 -7.257900 -16.371900
C -14.251900 -6.789100 -18.228400
C -14.198300 -6.263200 -20.427200
N -13.793500 -7.155300 -17.017000
O -13.760100 -6.051900 -21.564300
N -13.430800 -6.685100 -19.329400
H -13.011100 -7.512800 -16.932300
N -12.123700 -7.127100 -19.398200
H -12.010800 -7.881800 -19.904600
H -11.885000 -4.447300 -18.954400
N -11.219100 -4.883400 -19.266900
C -11.131500 -6.184000 -19.533000
N -9.987600 -4.336700 -19.465900
N -9.909100 -6.489200 -19.892000
N -9.216100 -5.297900 -19.835400
