18
Fragment
H -25.007400 -9.250200 -20.391800
N -24.307700 -9.810300 -18.541400
N -24.251600 -9.509800 -19.919300
H -23.278000 -10.611900 -16.371900
C -23.085100 -10.143000 -18.228400
C -23.031500 -9.617100 -20.427200
N -22.626700 -10.509300 -17.017000
O -22.593300 -9.405800 -21.564300
N -22.264000 -10.039000 -19.329400
H -21.844300 -10.866800 -16.932300
N -20.956900 -10.481100 -19.398200
H -20.844000 -11.235700 -19.904600
H -20.718200 -7.801300 -18.954400
N -20.052300 -8.237300 -19.266900
C -19.964700 -9.538000 -19.533000
N -18.820800 -7.690600 -19.465900
N -18.742300 -9.843200 -19.892000
N -18.049300 -8.651800 -19.835400
3
Fragment
H -26.896500 -8.076300 -20.732900
O -26.422400 -8.551900 -21.317600
H -25.948400 -8.076300 -21.902400
21
Fragment
H -25.007400 -9.250200 -20.391800
N -24.307700 -9.810300 -18.541400
N -24.251600 -9.509800 -19.919300
H -23.278000 -10.611900 -16.371900
C -23.085100 -10.143000 -18.228400
C -23.031500 -9.617100 -20.427200
N -22.626700 -10.509300 -17.017000
O -22.593300 -9.405800 -21.564300
N -22.264000 -10.039000 -19.329400
H -21.844300 -10.866800 -16.932300
N -20.956900 -10.481100 -19.398200
H -20.844000 -11.235700 -19.904600
H -20.718200 -7.801300 -18.954400
N -20.052300 -8.237300 -19.266900
C -19.964700 -9.538000 -19.533000
N -18.820800 -7.690600 -19.465900
N -18.742300 -9.843200 -19.892000
N -18.049300 -8.651800 -19.835400
H -26.896500 -8.076300 -20.732900
O -26.422400 -8.551900 -21.317600
H -25.948400 -8.076300 -21.902400
