20
Fragment
H -15.845900 -17.135700 -32.102300
O -15.111800 -16.659700 -34.209600
O -14.930800 -17.526300 -32.187100
C -14.467300 -17.258800 -33.381300
H -13.122300 -18.400800 -34.371000
C -13.073300 -17.754400 -33.649300
H -12.830600 -19.124600 -32.142600
H -12.549800 -17.005000 -33.972100
C -12.311000 -18.392000 -32.508500
H -12.178000 -17.738200 -31.804100
H -11.101100 -19.584800 -33.663800
C -10.957900 -18.915300 -32.976100
H -10.599900 -20.294500 -31.516000
H -10.460300 -18.184300 -33.375700
C -10.131000 -19.521600 -31.866200
H -10.051400 -18.875100 -31.147300
C -8.756400 -19.942500 -32.290700
O -8.371100 -19.926800 -33.432900
O -7.997300 -20.318800 -31.303000
H -7.294300 -20.620500 -31.598600
20
Fragment
H -16.240800 -20.620500 -38.920500
O -15.537800 -20.318800 -39.216100
O -15.164000 -19.926800 -37.086200
C -14.778700 -19.942500 -38.228400
H -13.483700 -18.875100 -39.371800
C -13.404100 -19.521600 -38.652900
H -13.074800 -18.184300 -37.143400
H -12.935200 -20.294500 -39.003100
C -12.577200 -18.915300 -37.542900
H -12.434000 -19.584800 -36.855300
H -11.357100 -17.738200 -38.715000
C -11.224100 -18.392000 -38.010600
H -10.985300 -17.005000 -36.547000
H -10.704500 -19.124600 -38.376500
C -10.461800 -17.754400 -36.869800
H -10.412800 -18.400800 -36.148100
C -9.067800 -17.258800 -37.137800
O -8.604300 -17.526300 -38.331900
O -8.423300 -16.659700 -36.309500
H -7.689200 -17.135700 -38.416800
40
Fragment
H -15.845900 -17.135700 -32.102300
O -15.111800 -16.659700 -34.209600
O -14.930800 -17.526300 -32.187100
C -14.467300 -17.258800 -33.381300
H -13.122300 -18.400800 -34.371000
C -13.073300 -17.754400 -33.649300
H -12.830600 -19.124600 -32.142600
H -12.549800 -17.005000 -33.972100
C -12.311000 -18.392000 -32.508500
H -12.178000 -17.738200 -31.804100
H -11.101100 -19.584800 -33.663800
C -10.957900 -18.915300 -32.976100
H -10.599900 -20.294500 -31.516000
H -10.460300 -18.184300 -33.375700
C -10.131000 -19.521600 -31.866200
H -10.051400 -18.875100 -31.147300
C -8.756400 -19.942500 -32.290700
O -8.371100 -19.926800 -33.432900
O -7.997300 -20.318800 -31.303000
H -7.294300 -20.620500 -31.598600
H -16.240800 -20.620500 -38.920500
O -15.537800 -20.318800 -39.216100
O -15.164000 -19.926800 -37.086200
C -14.778700 -19.942500 -38.228400
H -13.483700 -18.875100 -39.371800
C -13.404100 -19.521600 -38.652900
H -13.074800 -18.184300 -37.143400
H -12.935200 -20.294500 -39.003100
C -12.577200 -18.915300 -37.542900
H -12.434000 -19.584800 -36.855300
H -11.357100 -17.738200 -38.715000
C -11.224100 -18.392000 -38.010600
H -10.985300 -17.005000 -36.547000
H -10.704500 -19.124600 -38.376500
C -10.461800 -17.754400 -36.869800
H -10.412800 -18.400800 -36.148100
C -9.067800 -17.258800 -37.137800
O -8.604300 -17.526300 -38.331900
O -8.423300 -16.659700 -36.309500
H -7.689200 -17.135700 -38.416800
