20
Fragment
H -15.845900 -17.135700 -32.102300
O -15.111800 -16.659700 -34.209600
O -14.930800 -17.526300 -32.187100
C -14.467300 -17.258800 -33.381300
H -13.122300 -18.400800 -34.371000
C -13.073300 -17.754400 -33.649300
H -12.830600 -19.124600 -32.142600
H -12.549800 -17.005000 -33.972100
C -12.311000 -18.392000 -32.508500
H -12.178000 -17.738200 -31.804100
H -11.101100 -19.584800 -33.663800
C -10.957900 -18.915300 -32.976100
H -10.599900 -20.294500 -31.516000
H -10.460300 -18.184300 -33.375700
C -10.131000 -19.521600 -31.866200
H -10.051400 -18.875100 -31.147300
C -8.756400 -19.942500 -32.290700
O -8.371100 -19.926800 -33.432900
O -7.997300 -20.318800 -31.303000
H -7.294300 -20.620500 -31.598600
20
Fragment
H -16.832300 -14.686500 -28.846300
O -16.129200 -14.988200 -29.141900
O -15.755500 -15.380200 -27.012000
C -15.370100 -15.364500 -28.154200
H -14.075100 -16.431900 -29.297700
C -13.995600 -15.785400 -28.578800
H -13.666300 -17.122700 -27.069200
H -13.526700 -15.012500 -28.928900
C -13.168700 -16.391700 -27.468800
H -13.025500 -15.722200 -26.781100
H -11.948600 -17.568800 -28.640800
C -11.815600 -16.915000 -27.936400
H -11.576800 -18.302000 -26.472900
H -11.295900 -16.182400 -28.302300
C -11.053200 -17.552600 -26.795600
H -11.004300 -16.906200 -26.073900
C -9.659200 -18.048200 -27.063600
O -9.195800 -17.780700 -28.257800
O -9.014800 -18.647300 -26.235300
H -8.280700 -18.171300 -28.342600
40
Fragment
H -15.845900 -17.135700 -32.102300
O -15.111800 -16.659700 -34.209600
O -14.930800 -17.526300 -32.187100
C -14.467300 -17.258800 -33.381300
H -13.122300 -18.400800 -34.371000
C -13.073300 -17.754400 -33.649300
H -12.830600 -19.124600 -32.142600
H -12.549800 -17.005000 -33.972100
C -12.311000 -18.392000 -32.508500
H -12.178000 -17.738200 -31.804100
H -11.101100 -19.584800 -33.663800
C -10.957900 -18.915300 -32.976100
H -10.599900 -20.294500 -31.516000
H -10.460300 -18.184300 -33.375700
C -10.131000 -19.521600 -31.866200
H -10.051400 -18.875100 -31.147300
C -8.756400 -19.942500 -32.290700
O -8.371100 -19.926800 -33.432900
O -7.997300 -20.318800 -31.303000
H -7.294300 -20.620500 -31.598600
H -16.832300 -14.686500 -28.846300
O -16.129200 -14.988200 -29.141900
O -15.755500 -15.380200 -27.012000
C -15.370100 -15.364500 -28.154200
H -14.075100 -16.431900 -29.297700
C -13.995600 -15.785400 -28.578800
H -13.666300 -17.122700 -27.069200
H -13.526700 -15.012500 -28.928900
C -13.168700 -16.391700 -27.468800
H -13.025500 -15.722200 -26.781100
H -11.948600 -17.568800 -28.640800
C -11.815600 -16.915000 -27.936400
H -11.576800 -18.302000 -26.472900
H -11.295900 -16.182400 -28.302300
C -11.053200 -17.552600 -26.795600
H -11.004300 -16.906200 -26.073900
C -9.659200 -18.048200 -27.063600
O -9.195800 -17.780700 -28.257800
O -9.014800 -18.647300 -26.235300
H -8.280700 -18.171300 -28.342600
