20
Fragment
H -15.845900 -17.135700 -32.102300
O -15.111800 -16.659700 -34.209600
O -14.930800 -17.526300 -32.187100
C -14.467300 -17.258800 -33.381300
H -13.122300 -18.400800 -34.371000
C -13.073300 -17.754400 -33.649300
H -12.830600 -19.124600 -32.142600
H -12.549800 -17.005000 -33.972100
C -12.311000 -18.392000 -32.508500
H -12.178000 -17.738200 -31.804100
H -11.101100 -19.584800 -33.663800
C -10.957900 -18.915300 -32.976100
H -10.599900 -20.294500 -31.516000
H -10.460300 -18.184300 -33.375700
C -10.131000 -19.521600 -31.866200
H -10.051400 -18.875100 -31.147300
C -8.756400 -19.942500 -32.290700
O -8.371100 -19.926800 -33.432900
O -7.997300 -20.318800 -31.303000
H -7.294300 -20.620500 -31.598600
10
Fragment
H -16.098400 -19.054000 -26.388200
N -15.909600 -18.819500 -28.369800
N -15.565100 -19.249400 -27.117600
C -14.908900 -19.233500 -29.096600
H -14.888500 -19.099900 -30.025000
C -14.398500 -19.884800 -27.167400
H -14.147500 -20.413300 -25.346600
N -13.943100 -19.891400 -28.425400
N -13.787100 -20.446500 -26.126700
H -13.030800 -20.841700 -26.235100
30
Fragment
H -15.845900 -17.135700 -32.102300
O -15.111800 -16.659700 -34.209600
O -14.930800 -17.526300 -32.187100
C -14.467300 -17.258800 -33.381300
H -13.122300 -18.400800 -34.371000
C -13.073300 -17.754400 -33.649300
H -12.830600 -19.124600 -32.142600
H -12.549800 -17.005000 -33.972100
C -12.311000 -18.392000 -32.508500
H -12.178000 -17.738200 -31.804100
H -11.101100 -19.584800 -33.663800
C -10.957900 -18.915300 -32.976100
H -10.599900 -20.294500 -31.516000
H -10.460300 -18.184300 -33.375700
C -10.131000 -19.521600 -31.866200
H -10.051400 -18.875100 -31.147300
C -8.756400 -19.942500 -32.290700
O -8.371100 -19.926800 -33.432900
O -7.997300 -20.318800 -31.303000
H -7.294300 -20.620500 -31.598600
H -16.098400 -19.054000 -26.388200
N -15.909600 -18.819500 -28.369800
N -15.565100 -19.249400 -27.117600
C -14.908900 -19.233500 -29.096600
H -14.888500 -19.099900 -30.025000
C -14.398500 -19.884800 -27.167400
H -14.147500 -20.413300 -25.346600
N -13.943100 -19.891400 -28.425400
N -13.787100 -20.446500 -26.126700
H -13.030800 -20.841700 -26.235100
