20
Fragment
H -15.845900 -17.135700 -32.102300
O -15.111800 -16.659700 -34.209600
O -14.930800 -17.526300 -32.187100
C -14.467300 -17.258800 -33.381300
H -13.122300 -18.400800 -34.371000
C -13.073300 -17.754400 -33.649300
H -12.830600 -19.124600 -32.142600
H -12.549800 -17.005000 -33.972100
C -12.311000 -18.392000 -32.508500
H -12.178000 -17.738200 -31.804100
H -11.101100 -19.584800 -33.663800
C -10.957900 -18.915300 -32.976100
H -10.599900 -20.294500 -31.516000
H -10.460300 -18.184300 -33.375700
C -10.131000 -19.521600 -31.866200
H -10.051400 -18.875100 -31.147300
C -8.756400 -19.942500 -32.290700
O -8.371100 -19.926800 -33.432900
O -7.997300 -20.318800 -31.303000
H -7.294300 -20.620500 -31.598600
20
Fragment
H -11.233400 -23.020200 -32.102300
O -10.499200 -22.544200 -34.209600
O -10.318200 -23.410800 -32.187100
C -9.854800 -23.143300 -33.381300
H -8.509800 -24.285300 -34.371000
C -8.460800 -23.638900 -33.649300
H -8.218100 -25.009100 -32.142600
H -7.937200 -22.889500 -33.972100
C -7.698400 -24.276500 -32.508500
H -7.565400 -23.622700 -31.804100
H -6.488500 -25.469300 -33.663800
C -6.345300 -24.799800 -32.976100
H -5.987300 -26.179000 -31.516000
H -5.847700 -24.068800 -33.375700
C -5.518400 -25.406100 -31.866200
H -5.438900 -24.759600 -31.147300
C -4.143900 -25.827000 -32.290700
O -3.758500 -25.811300 -33.432900
O -3.384800 -26.203300 -31.303000
H -2.681700 -26.505000 -31.598600
40
Fragment
H -15.845900 -17.135700 -32.102300
O -15.111800 -16.659700 -34.209600
O -14.930800 -17.526300 -32.187100
C -14.467300 -17.258800 -33.381300
H -13.122300 -18.400800 -34.371000
C -13.073300 -17.754400 -33.649300
H -12.830600 -19.124600 -32.142600
H -12.549800 -17.005000 -33.972100
C -12.311000 -18.392000 -32.508500
H -12.178000 -17.738200 -31.804100
H -11.101100 -19.584800 -33.663800
C -10.957900 -18.915300 -32.976100
H -10.599900 -20.294500 -31.516000
H -10.460300 -18.184300 -33.375700
C -10.131000 -19.521600 -31.866200
H -10.051400 -18.875100 -31.147300
C -8.756400 -19.942500 -32.290700
O -8.371100 -19.926800 -33.432900
O -7.997300 -20.318800 -31.303000
H -7.294300 -20.620500 -31.598600
H -11.233400 -23.020200 -32.102300
O -10.499200 -22.544200 -34.209600
O -10.318200 -23.410800 -32.187100
C -9.854800 -23.143300 -33.381300
H -8.509800 -24.285300 -34.371000
C -8.460800 -23.638900 -33.649300
H -8.218100 -25.009100 -32.142600
H -7.937200 -22.889500 -33.972100
C -7.698400 -24.276500 -32.508500
H -7.565400 -23.622700 -31.804100
H -6.488500 -25.469300 -33.663800
C -6.345300 -24.799800 -32.976100
H -5.987300 -26.179000 -31.516000
H -5.847700 -24.068800 -33.375700
C -5.518400 -25.406100 -31.866200
H -5.438900 -24.759600 -31.147300
C -4.143900 -25.827000 -32.290700
O -3.758500 -25.811300 -33.432900
O -3.384800 -26.203300 -31.303000
H -2.681700 -26.505000 -31.598600
