20
Fragment
H -15.845900 -17.135700 -32.102300
O -15.111800 -16.659700 -34.209600
O -14.930800 -17.526300 -32.187100
C -14.467300 -17.258800 -33.381300
H -13.122300 -18.400800 -34.371000
C -13.073300 -17.754400 -33.649300
H -12.830600 -19.124600 -32.142600
H -12.549800 -17.005000 -33.972100
C -12.311000 -18.392000 -32.508500
H -12.178000 -17.738200 -31.804100
H -11.101100 -19.584800 -33.663800
C -10.957900 -18.915300 -32.976100
H -10.599900 -20.294500 -31.516000
H -10.460300 -18.184300 -33.375700
C -10.131000 -19.521600 -31.866200
H -10.051400 -18.875100 -31.147300
C -8.756400 -19.942500 -32.290700
O -8.371100 -19.926800 -33.432900
O -7.997300 -20.318800 -31.303000
H -7.294300 -20.620500 -31.598600
10
Fragment
H -10.894300 -22.137500 -36.462400
N -10.705600 -22.372000 -38.444000
N -10.361100 -21.942100 -37.191800
C -9.704900 -21.958000 -39.170700
H -9.684500 -22.091600 -40.099200
C -9.194500 -21.306700 -37.241500
H -8.943500 -20.778200 -35.420700
N -8.739100 -21.300100 -38.499600
N -8.583100 -20.745000 -36.200900
H -7.826800 -20.349800 -36.309300
30
Fragment
H -15.845900 -17.135700 -32.102300
O -15.111800 -16.659700 -34.209600
O -14.930800 -17.526300 -32.187100
C -14.467300 -17.258800 -33.381300
H -13.122300 -18.400800 -34.371000
C -13.073300 -17.754400 -33.649300
H -12.830600 -19.124600 -32.142600
H -12.549800 -17.005000 -33.972100
C -12.311000 -18.392000 -32.508500
H -12.178000 -17.738200 -31.804100
H -11.101100 -19.584800 -33.663800
C -10.957900 -18.915300 -32.976100
H -10.599900 -20.294500 -31.516000
H -10.460300 -18.184300 -33.375700
C -10.131000 -19.521600 -31.866200
H -10.051400 -18.875100 -31.147300
C -8.756400 -19.942500 -32.290700
O -8.371100 -19.926800 -33.432900
O -7.997300 -20.318800 -31.303000
H -7.294300 -20.620500 -31.598600
H -10.894300 -22.137500 -36.462400
N -10.705600 -22.372000 -38.444000
N -10.361100 -21.942100 -37.191800
C -9.704900 -21.958000 -39.170700
H -9.684500 -22.091600 -40.099200
C -9.194500 -21.306700 -37.241500
H -8.943500 -20.778200 -35.420700
N -8.739100 -21.300100 -38.499600
N -8.583100 -20.745000 -36.200900
H -7.826800 -20.349800 -36.309300
