20
Fragment
H -15.845900 -17.135700 -32.102300
O -15.111800 -16.659700 -34.209600
O -14.930800 -17.526300 -32.187100
C -14.467300 -17.258800 -33.381300
H -13.122300 -18.400800 -34.371000
C -13.073300 -17.754400 -33.649300
H -12.830600 -19.124600 -32.142600
H -12.549800 -17.005000 -33.972100
C -12.311000 -18.392000 -32.508500
H -12.178000 -17.738200 -31.804100
H -11.101100 -19.584800 -33.663800
C -10.957900 -18.915300 -32.976100
H -10.599900 -20.294500 -31.516000
H -10.460300 -18.184300 -33.375700
C -10.131000 -19.521600 -31.866200
H -10.051400 -18.875100 -31.147300
C -8.756400 -19.942500 -32.290700
O -8.371100 -19.926800 -33.432900
O -7.997300 -20.318800 -31.303000
H -7.294300 -20.620500 -31.598600
10
Fragment
H -15.708300 -20.349800 -34.209800
N -14.952000 -20.745000 -34.318200
N -14.796000 -21.300100 -32.019500
H -14.591600 -20.778200 -35.098300
C -14.340600 -21.306700 -33.277500
H -13.850600 -22.091600 -30.419900
C -13.830200 -21.958000 -31.348300
N -13.174000 -21.942100 -33.327300
N -12.829500 -22.372000 -32.075100
H -12.640800 -22.137500 -34.056700
30
Fragment
H -15.845900 -17.135700 -32.102300
O -15.111800 -16.659700 -34.209600
O -14.930800 -17.526300 -32.187100
C -14.467300 -17.258800 -33.381300
H -13.122300 -18.400800 -34.371000
C -13.073300 -17.754400 -33.649300
H -12.830600 -19.124600 -32.142600
H -12.549800 -17.005000 -33.972100
C -12.311000 -18.392000 -32.508500
H -12.178000 -17.738200 -31.804100
H -11.101100 -19.584800 -33.663800
C -10.957900 -18.915300 -32.976100
H -10.599900 -20.294500 -31.516000
H -10.460300 -18.184300 -33.375700
C -10.131000 -19.521600 -31.866200
H -10.051400 -18.875100 -31.147300
C -8.756400 -19.942500 -32.290700
O -8.371100 -19.926800 -33.432900
O -7.997300 -20.318800 -31.303000
H -7.294300 -20.620500 -31.598600
H -15.708300 -20.349800 -34.209800
N -14.952000 -20.745000 -34.318200
N -14.796000 -21.300100 -32.019500
H -14.591600 -20.778200 -35.098300
C -14.340600 -21.306700 -33.277500
H -13.850600 -22.091600 -30.419900
C -13.830200 -21.958000 -31.348300
N -13.174000 -21.942100 -33.327300
N -12.829500 -22.372000 -32.075100
H -12.640800 -22.137500 -34.056700
