20
Fragment
H -15.845900 -17.135700 -32.102300
O -15.111800 -16.659700 -34.209600
O -14.930800 -17.526300 -32.187100
C -14.467300 -17.258800 -33.381300
H -13.122300 -18.400800 -34.371000
C -13.073300 -17.754400 -33.649300
H -12.830600 -19.124600 -32.142600
H -12.549800 -17.005000 -33.972100
C -12.311000 -18.392000 -32.508500
H -12.178000 -17.738200 -31.804100
H -11.101100 -19.584800 -33.663800
C -10.957900 -18.915300 -32.976100
H -10.599900 -20.294500 -31.516000
H -10.460300 -18.184300 -33.375700
C -10.131000 -19.521600 -31.866200
H -10.051400 -18.875100 -31.147300
C -8.756400 -19.942500 -32.290700
O -8.371100 -19.926800 -33.432900
O -7.997300 -20.318800 -31.303000
H -7.294300 -20.620500 -31.598600
20
Fragment
H -20.458500 -11.251200 -32.102300
O -19.724300 -10.775200 -34.209600
O -19.543300 -11.641800 -32.187100
C -19.079900 -11.374300 -33.381300
H -17.734900 -12.516300 -34.371000
C -17.685900 -11.869900 -33.649300
H -17.443200 -13.240100 -32.142600
H -17.162300 -11.120500 -33.972100
C -16.923500 -12.507500 -32.508500
H -16.790500 -11.853700 -31.804100
H -15.713600 -13.700300 -33.663800
C -15.570400 -13.030800 -32.976100
H -15.212400 -14.410000 -31.516000
H -15.072800 -12.299800 -33.375700
C -14.743500 -13.637100 -31.866200
H -14.664000 -12.990600 -31.147300
C -13.369000 -14.058000 -32.290700
O -12.983600 -14.042300 -33.432900
O -12.609900 -14.434300 -31.303000
H -11.906800 -14.736000 -31.598600
40
Fragment
H -15.845900 -17.135700 -32.102300
O -15.111800 -16.659700 -34.209600
O -14.930800 -17.526300 -32.187100
C -14.467300 -17.258800 -33.381300
H -13.122300 -18.400800 -34.371000
C -13.073300 -17.754400 -33.649300
H -12.830600 -19.124600 -32.142600
H -12.549800 -17.005000 -33.972100
C -12.311000 -18.392000 -32.508500
H -12.178000 -17.738200 -31.804100
H -11.101100 -19.584800 -33.663800
C -10.957900 -18.915300 -32.976100
H -10.599900 -20.294500 -31.516000
H -10.460300 -18.184300 -33.375700
C -10.131000 -19.521600 -31.866200
H -10.051400 -18.875100 -31.147300
C -8.756400 -19.942500 -32.290700
O -8.371100 -19.926800 -33.432900
O -7.997300 -20.318800 -31.303000
H -7.294300 -20.620500 -31.598600
H -20.458500 -11.251200 -32.102300
O -19.724300 -10.775200 -34.209600
O -19.543300 -11.641800 -32.187100
C -19.079900 -11.374300 -33.381300
H -17.734900 -12.516300 -34.371000
C -17.685900 -11.869900 -33.649300
H -17.443200 -13.240100 -32.142600
H -17.162300 -11.120500 -33.972100
C -16.923500 -12.507500 -32.508500
H -16.790500 -11.853700 -31.804100
H -15.713600 -13.700300 -33.663800
C -15.570400 -13.030800 -32.976100
H -15.212400 -14.410000 -31.516000
H -15.072800 -12.299800 -33.375700
C -14.743500 -13.637100 -31.866200
H -14.664000 -12.990600 -31.147300
C -13.369000 -14.058000 -32.290700
O -12.983600 -14.042300 -33.432900
O -12.609900 -14.434300 -31.303000
H -11.906800 -14.736000 -31.598600
