27
Fragment
H -38.839400 -17.069700 -13.373300
O -38.309100 -16.419800 -13.212400
H -37.159900 -17.712700 -12.236500
C -37.056000 -16.880100 -12.724500
H -36.606600 -16.110700 -12.161400
C -36.119600 -17.308800 -13.813000
O -35.853400 -16.196400 -14.679500
H -35.337800 -18.028600 -14.370600
H -35.321200 -17.611200 -13.426900
H -34.985000 -17.317900 -16.022200
H -34.905000 -15.738400 -16.343900
C -34.863500 -16.461600 -15.644700
N -33.523100 -16.419800 -15.063400
H -33.367300 -11.575300 -15.046300
N -33.229100 -14.014500 -14.970100
H -33.012600 -18.412200 -14.746000
C -32.826200 -15.279200 -14.737400
C -32.757400 -17.474700 -14.625900
N -32.639000 -11.815600 -14.622700
C -32.361900 -13.117600 -14.514400
H -32.107400 -11.135300 -14.338500
C -31.669100 -15.715800 -14.136900
N -31.640600 -17.099000 -14.066100
N -31.186200 -13.456000 -13.902000
C -30.748000 -14.750100 -13.655300
H -30.723100 -12.805100 -13.598500
O -29.669300 -14.941900 -13.063300
27
Fragment
H -40.762200 -12.985600 -12.097100
O -39.771500 -12.880700 -12.402700
H -38.751100 -14.181500 -11.249900
C -38.663200 -13.248500 -11.647700
H -38.584200 -12.647100 -10.842300
H -37.480100 -13.786600 -13.201700
C -37.450800 -13.124400 -12.452100
H -37.385700 -12.195800 -12.837100
O -36.295500 -13.371400 -11.656300
H -35.272900 -14.215300 -13.115900
C -35.192800 -13.423300 -12.508900
H -35.104400 -12.602000 -13.008700
N -33.986300 -13.515800 -11.721700
H -33.867100 -18.344500 -11.485800
N -33.778900 -15.926800 -11.490100
H -33.430400 -11.586600 -11.528700
C -33.358400 -14.670000 -11.302400
N -33.225900 -18.127900 -11.019300
C -33.221000 -12.465500 -11.276700
C -32.949700 -16.822600 -10.957100
H -32.744100 -18.762000 -10.670700
C -32.224100 -14.228900 -10.626800
N -32.161100 -12.845700 -10.625700
N -31.777900 -16.486400 -10.327600
C -31.335200 -15.194600 -10.106600
H -31.304000 -17.103500 -9.984400
O -30.264900 -14.998300 -9.509300
54
Fragment
H -38.839400 -17.069700 -13.373300
O -38.309100 -16.419800 -13.212400
H -37.159900 -17.712700 -12.236500
C -37.056000 -16.880100 -12.724500
H -36.606600 -16.110700 -12.161400
C -36.119600 -17.308800 -13.813000
O -35.853400 -16.196400 -14.679500
H -35.337800 -18.028600 -14.370600
H -35.321200 -17.611200 -13.426900
H -34.985000 -17.317900 -16.022200
H -34.905000 -15.738400 -16.343900
C -34.863500 -16.461600 -15.644700
N -33.523100 -16.419800 -15.063400
H -33.367300 -11.575300 -15.046300
N -33.229100 -14.014500 -14.970100
H -33.012600 -18.412200 -14.746000
C -32.826200 -15.279200 -14.737400
C -32.757400 -17.474700 -14.625900
N -32.639000 -11.815600 -14.622700
C -32.361900 -13.117600 -14.514400
H -32.107400 -11.135300 -14.338500
C -31.669100 -15.715800 -14.136900
N -31.640600 -17.099000 -14.066100
N -31.186200 -13.456000 -13.902000
C -30.748000 -14.750100 -13.655300
H -30.723100 -12.805100 -13.598500
O -29.669300 -14.941900 -13.063300
H -40.762200 -12.985600 -12.097100
O -39.771500 -12.880700 -12.402700
H -38.751100 -14.181500 -11.249900
C -38.663200 -13.248500 -11.647700
H -38.584200 -12.647100 -10.842300
H -37.480100 -13.786600 -13.201700
C -37.450800 -13.124400 -12.452100
H -37.385700 -12.195800 -12.837100
O -36.295500 -13.371400 -11.656300
H -35.272900 -14.215300 -13.115900
C -35.192800 -13.423300 -12.508900
H -35.104400 -12.602000 -13.008700
N -33.986300 -13.515800 -11.721700
H -33.867100 -18.344500 -11.485800
N -33.778900 -15.926800 -11.490100
H -33.430400 -11.586600 -11.528700
C -33.358400 -14.670000 -11.302400
N -33.225900 -18.127900 -11.019300
C -33.221000 -12.465500 -11.276700
C -32.949700 -16.822600 -10.957100
H -32.744100 -18.762000 -10.670700
C -32.224100 -14.228900 -10.626800
N -32.161100 -12.845700 -10.625700
N -31.777900 -16.486400 -10.327600
C -31.335200 -15.194600 -10.106600
H -31.304000 -17.103500 -9.984400
O -30.264900 -14.998300 -9.509300
