27
Fragment
H -38.839400 -17.069700 -13.373300
O -38.309100 -16.419800 -13.212400
H -37.159900 -17.712700 -12.236500
C -37.056000 -16.880100 -12.724500
H -36.606600 -16.110700 -12.161400
C -36.119600 -17.308800 -13.813000
O -35.853400 -16.196400 -14.679500
H -35.337800 -18.028600 -14.370600
H -35.321200 -17.611200 -13.426900
H -34.985000 -17.317900 -16.022200
H -34.905000 -15.738400 -16.343900
C -34.863500 -16.461600 -15.644700
N -33.523100 -16.419800 -15.063400
H -33.367300 -11.575300 -15.046300
N -33.229100 -14.014500 -14.970100
H -33.012600 -18.412200 -14.746000
C -32.826200 -15.279200 -14.737400
C -32.757400 -17.474700 -14.625900
N -32.639000 -11.815600 -14.622700
C -32.361900 -13.117600 -14.514400
H -32.107400 -11.135300 -14.338500
C -31.669100 -15.715800 -14.136900
N -31.640600 -17.099000 -14.066100
N -31.186200 -13.456000 -13.902000
C -30.748000 -14.750100 -13.655300
H -30.723100 -12.805100 -13.598500
O -29.669300 -14.941900 -13.063300
3
Fragment
H -33.817500 -9.522000 -17.673700
O -33.659800 -9.604400 -16.880100
H -32.780600 -9.488200 -16.751500
30
Fragment
H -38.839400 -17.069700 -13.373300
O -38.309100 -16.419800 -13.212400
H -37.159900 -17.712700 -12.236500
C -37.056000 -16.880100 -12.724500
H -36.606600 -16.110700 -12.161400
C -36.119600 -17.308800 -13.813000
O -35.853400 -16.196400 -14.679500
H -35.337800 -18.028600 -14.370600
H -35.321200 -17.611200 -13.426900
H -34.985000 -17.317900 -16.022200
H -34.905000 -15.738400 -16.343900
C -34.863500 -16.461600 -15.644700
N -33.523100 -16.419800 -15.063400
H -33.367300 -11.575300 -15.046300
N -33.229100 -14.014500 -14.970100
H -33.012600 -18.412200 -14.746000
C -32.826200 -15.279200 -14.737400
C -32.757400 -17.474700 -14.625900
N -32.639000 -11.815600 -14.622700
C -32.361900 -13.117600 -14.514400
H -32.107400 -11.135300 -14.338500
C -31.669100 -15.715800 -14.136900
N -31.640600 -17.099000 -14.066100
N -31.186200 -13.456000 -13.902000
C -30.748000 -14.750100 -13.655300
H -30.723100 -12.805100 -13.598500
O -29.669300 -14.941900 -13.063300
H -33.817500 -9.522000 -17.673700
O -33.659800 -9.604400 -16.880100
H -32.780600 -9.488200 -16.751500
