27
Fragment
H -38.839400 -17.069700 -13.373300
O -38.309100 -16.419800 -13.212400
H -37.159900 -17.712700 -12.236500
C -37.056000 -16.880100 -12.724500
H -36.606600 -16.110700 -12.161400
C -36.119600 -17.308800 -13.813000
O -35.853400 -16.196400 -14.679500
H -35.337800 -18.028600 -14.370600
H -35.321200 -17.611200 -13.426900
H -34.985000 -17.317900 -16.022200
H -34.905000 -15.738400 -16.343900
C -34.863500 -16.461600 -15.644700
N -33.523100 -16.419800 -15.063400
H -33.367300 -11.575300 -15.046300
N -33.229100 -14.014500 -14.970100
H -33.012600 -18.412200 -14.746000
C -32.826200 -15.279200 -14.737400
C -32.757400 -17.474700 -14.625900
N -32.639000 -11.815600 -14.622700
C -32.361900 -13.117600 -14.514400
H -32.107400 -11.135300 -14.338500
C -31.669100 -15.715800 -14.136900
N -31.640600 -17.099000 -14.066100
N -31.186200 -13.456000 -13.902000
C -30.748000 -14.750100 -13.655300
H -30.723100 -12.805100 -13.598500
O -29.669300 -14.941900 -13.063300
27
Fragment
O -43.802400 -18.904100 -19.109700
H -42.748600 -21.040900 -18.574600
C -42.723700 -19.095900 -18.517800
N -42.285400 -20.390000 -18.271100
N -41.831000 -16.747000 -18.107000
C -41.802500 -18.130200 -18.036200
H -41.364300 -22.710700 -17.834600
C -41.109800 -20.728400 -17.658700
N -40.832600 -22.030400 -17.550400
C -40.714300 -16.371300 -17.547200
C -40.645400 -18.566800 -17.435700
H -40.459100 -15.433800 -17.427100
N -40.242600 -19.831500 -17.202900
H -40.104300 -22.270700 -17.126800
N -39.948500 -17.426200 -17.109600
C -38.608200 -17.384400 -16.528400
H -38.566700 -18.107600 -15.829200
H -38.486700 -16.528100 -16.150900
H -38.150500 -16.234800 -18.746200
H -38.133900 -15.817400 -17.802400
O -37.618200 -17.649600 -17.493600
C -37.352100 -16.537200 -18.360100
H -36.865100 -17.735300 -20.011700
C -36.415700 -16.965900 -19.448600
H -36.311800 -16.133300 -19.936600
O -35.162600 -17.426200 -18.960700
H -34.632300 -16.776300 -18.799800
54
Fragment
H -38.839400 -17.069700 -13.373300
O -38.309100 -16.419800 -13.212400
H -37.159900 -17.712700 -12.236500
C -37.056000 -16.880100 -12.724500
H -36.606600 -16.110700 -12.161400
C -36.119600 -17.308800 -13.813000
O -35.853400 -16.196400 -14.679500
H -35.337800 -18.028600 -14.370600
H -35.321200 -17.611200 -13.426900
H -34.985000 -17.317900 -16.022200
H -34.905000 -15.738400 -16.343900
C -34.863500 -16.461600 -15.644700
N -33.523100 -16.419800 -15.063400
H -33.367300 -11.575300 -15.046300
N -33.229100 -14.014500 -14.970100
H -33.012600 -18.412200 -14.746000
C -32.826200 -15.279200 -14.737400
C -32.757400 -17.474700 -14.625900
N -32.639000 -11.815600 -14.622700
C -32.361900 -13.117600 -14.514400
H -32.107400 -11.135300 -14.338500
C -31.669100 -15.715800 -14.136900
N -31.640600 -17.099000 -14.066100
N -31.186200 -13.456000 -13.902000
C -30.748000 -14.750100 -13.655300
H -30.723100 -12.805100 -13.598500
O -29.669300 -14.941900 -13.063300
O -43.802400 -18.904100 -19.109700
H -42.748600 -21.040900 -18.574600
C -42.723700 -19.095900 -18.517800
N -42.285400 -20.390000 -18.271100
N -41.831000 -16.747000 -18.107000
C -41.802500 -18.130200 -18.036200
H -41.364300 -22.710700 -17.834600
C -41.109800 -20.728400 -17.658700
N -40.832600 -22.030400 -17.550400
C -40.714300 -16.371300 -17.547200
C -40.645400 -18.566800 -17.435700
H -40.459100 -15.433800 -17.427100
N -40.242600 -19.831500 -17.202900
H -40.104300 -22.270700 -17.126800
N -39.948500 -17.426200 -17.109600
C -38.608200 -17.384400 -16.528400
H -38.566700 -18.107600 -15.829200
H -38.486700 -16.528100 -16.150900
H -38.150500 -16.234800 -18.746200
H -38.133900 -15.817400 -17.802400
O -37.618200 -17.649600 -17.493600
C -37.352100 -16.537200 -18.360100
H -36.865100 -17.735300 -20.011700
C -36.415700 -16.965900 -19.448600
H -36.311800 -16.133300 -19.936600
O -35.162600 -17.426200 -18.960700
H -34.632300 -16.776300 -18.799800
