27
Fragment
H -38.839400 -17.069700 -13.373300
O -38.309100 -16.419800 -13.212400
H -37.159900 -17.712700 -12.236500
C -37.056000 -16.880100 -12.724500
H -36.606600 -16.110700 -12.161400
C -36.119600 -17.308800 -13.813000
O -35.853400 -16.196400 -14.679500
H -35.337800 -18.028600 -14.370600
H -35.321200 -17.611200 -13.426900
H -34.985000 -17.317900 -16.022200
H -34.905000 -15.738400 -16.343900
C -34.863500 -16.461600 -15.644700
N -33.523100 -16.419800 -15.063400
H -33.367300 -11.575300 -15.046300
N -33.229100 -14.014500 -14.970100
H -33.012600 -18.412200 -14.746000
C -32.826200 -15.279200 -14.737400
C -32.757400 -17.474700 -14.625900
N -32.639000 -11.815600 -14.622700
C -32.361900 -13.117600 -14.514400
H -32.107400 -11.135300 -14.338500
C -31.669100 -15.715800 -14.136900
N -31.640600 -17.099000 -14.066100
N -31.186200 -13.456000 -13.902000
C -30.748000 -14.750100 -13.655300
H -30.723100 -12.805100 -13.598500
O -29.669300 -14.941900 -13.063300
27
Fragment
O -44.770800 -18.904100 -8.385400
H -43.717100 -21.040900 -7.850200
C -43.692100 -19.095900 -7.793400
N -43.253900 -20.390000 -7.546700
N -42.799500 -16.747000 -7.382700
C -42.771000 -18.130200 -7.311900
H -42.332700 -22.710700 -7.110300
C -42.078200 -20.728400 -6.934400
N -41.801100 -22.030400 -6.826100
C -41.682700 -16.371300 -6.822800
C -41.613900 -18.566800 -6.711300
H -41.427500 -15.433800 -6.702700
N -41.211000 -19.831500 -6.478600
H -41.072800 -22.270700 -6.402400
N -40.917000 -17.426200 -6.385300
C -39.576600 -17.384400 -5.804000
H -39.535100 -18.107600 -5.104800
H -39.455100 -16.528100 -5.426500
H -39.118900 -16.234800 -8.021800
H -39.102300 -15.817400 -7.078100
O -38.586700 -17.649600 -6.769200
C -38.320500 -16.537200 -7.635700
H -37.833500 -17.735300 -9.287300
C -37.384100 -16.965900 -8.724300
H -37.280200 -16.133300 -9.212200
O -36.131000 -17.426200 -8.236300
H -35.600800 -16.776300 -8.075400
54
Fragment
H -38.839400 -17.069700 -13.373300
O -38.309100 -16.419800 -13.212400
H -37.159900 -17.712700 -12.236500
C -37.056000 -16.880100 -12.724500
H -36.606600 -16.110700 -12.161400
C -36.119600 -17.308800 -13.813000
O -35.853400 -16.196400 -14.679500
H -35.337800 -18.028600 -14.370600
H -35.321200 -17.611200 -13.426900
H -34.985000 -17.317900 -16.022200
H -34.905000 -15.738400 -16.343900
C -34.863500 -16.461600 -15.644700
N -33.523100 -16.419800 -15.063400
H -33.367300 -11.575300 -15.046300
N -33.229100 -14.014500 -14.970100
H -33.012600 -18.412200 -14.746000
C -32.826200 -15.279200 -14.737400
C -32.757400 -17.474700 -14.625900
N -32.639000 -11.815600 -14.622700
C -32.361900 -13.117600 -14.514400
H -32.107400 -11.135300 -14.338500
C -31.669100 -15.715800 -14.136900
N -31.640600 -17.099000 -14.066100
N -31.186200 -13.456000 -13.902000
C -30.748000 -14.750100 -13.655300
H -30.723100 -12.805100 -13.598500
O -29.669300 -14.941900 -13.063300
O -44.770800 -18.904100 -8.385400
H -43.717100 -21.040900 -7.850200
C -43.692100 -19.095900 -7.793400
N -43.253900 -20.390000 -7.546700
N -42.799500 -16.747000 -7.382700
C -42.771000 -18.130200 -7.311900
H -42.332700 -22.710700 -7.110300
C -42.078200 -20.728400 -6.934400
N -41.801100 -22.030400 -6.826100
C -41.682700 -16.371300 -6.822800
C -41.613900 -18.566800 -6.711300
H -41.427500 -15.433800 -6.702700
N -41.211000 -19.831500 -6.478600
H -41.072800 -22.270700 -6.402400
N -40.917000 -17.426200 -6.385300
C -39.576600 -17.384400 -5.804000
H -39.535100 -18.107600 -5.104800
H -39.455100 -16.528100 -5.426500
H -39.118900 -16.234800 -8.021800
H -39.102300 -15.817400 -7.078100
O -38.586700 -17.649600 -6.769200
C -38.320500 -16.537200 -7.635700
H -37.833500 -17.735300 -9.287300
C -37.384100 -16.965900 -8.724300
H -37.280200 -16.133300 -9.212200
O -36.131000 -17.426200 -8.236300
H -35.600800 -16.776300 -8.075400
