27
Fragment
H -38.839400 -17.069700 -13.373300
O -38.309100 -16.419800 -13.212400
H -37.159900 -17.712700 -12.236500
C -37.056000 -16.880100 -12.724500
H -36.606600 -16.110700 -12.161400
C -36.119600 -17.308800 -13.813000
O -35.853400 -16.196400 -14.679500
H -35.337800 -18.028600 -14.370600
H -35.321200 -17.611200 -13.426900
H -34.985000 -17.317900 -16.022200
H -34.905000 -15.738400 -16.343900
C -34.863500 -16.461600 -15.644700
N -33.523100 -16.419800 -15.063400
H -33.367300 -11.575300 -15.046300
N -33.229100 -14.014500 -14.970100
H -33.012600 -18.412200 -14.746000
C -32.826200 -15.279200 -14.737400
C -32.757400 -17.474700 -14.625900
N -32.639000 -11.815600 -14.622700
C -32.361900 -13.117600 -14.514400
H -32.107400 -11.135300 -14.338500
C -31.669100 -15.715800 -14.136900
N -31.640600 -17.099000 -14.066100
N -31.186200 -13.456000 -13.902000
C -30.748000 -14.750100 -13.655300
H -30.723100 -12.805100 -13.598500
O -29.669300 -14.941900 -13.063300
27
Fragment
H -38.607500 -12.884000 -16.504800
O -37.871100 -12.789300 -17.104300
C -36.670500 -13.075800 -16.404000
H -36.603100 -12.500500 -15.582500
H -36.583100 -13.978400 -16.086500
H -35.595700 -11.879900 -17.716600
C -35.503200 -12.756600 -17.272700
O -35.376300 -13.743700 -18.296800
H -34.636200 -12.759900 -16.783600
H -34.436300 -12.602000 -19.561200
H -34.382700 -14.192800 -19.872200
C -34.357200 -13.467300 -19.202000
N -33.028000 -13.532800 -18.578900
H -32.984000 -18.378400 -18.445900
N -32.793900 -15.935800 -18.410500
H -32.478700 -11.609200 -18.403000
C -32.358300 -14.668900 -18.219600
C -32.218500 -12.488000 -18.216400
N -32.205900 -18.134700 -18.104900
C -31.922600 -16.836100 -17.978300
H -31.709500 -18.739400 -17.899000
C -31.176000 -14.249200 -17.657700
N -31.101400 -12.863700 -17.666200
N -30.722400 -16.512300 -17.391700
C -30.250100 -15.218300 -17.195400
H -30.221400 -17.126100 -17.180400
O -29.145500 -15.035500 -16.664600
54
Fragment
H -38.839400 -17.069700 -13.373300
O -38.309100 -16.419800 -13.212400
H -37.159900 -17.712700 -12.236500
C -37.056000 -16.880100 -12.724500
H -36.606600 -16.110700 -12.161400
C -36.119600 -17.308800 -13.813000
O -35.853400 -16.196400 -14.679500
H -35.337800 -18.028600 -14.370600
H -35.321200 -17.611200 -13.426900
H -34.985000 -17.317900 -16.022200
H -34.905000 -15.738400 -16.343900
C -34.863500 -16.461600 -15.644700
N -33.523100 -16.419800 -15.063400
H -33.367300 -11.575300 -15.046300
N -33.229100 -14.014500 -14.970100
H -33.012600 -18.412200 -14.746000
C -32.826200 -15.279200 -14.737400
C -32.757400 -17.474700 -14.625900
N -32.639000 -11.815600 -14.622700
C -32.361900 -13.117600 -14.514400
H -32.107400 -11.135300 -14.338500
C -31.669100 -15.715800 -14.136900
N -31.640600 -17.099000 -14.066100
N -31.186200 -13.456000 -13.902000
C -30.748000 -14.750100 -13.655300
H -30.723100 -12.805100 -13.598500
O -29.669300 -14.941900 -13.063300
H -38.607500 -12.884000 -16.504800
O -37.871100 -12.789300 -17.104300
C -36.670500 -13.075800 -16.404000
H -36.603100 -12.500500 -15.582500
H -36.583100 -13.978400 -16.086500
H -35.595700 -11.879900 -17.716600
C -35.503200 -12.756600 -17.272700
O -35.376300 -13.743700 -18.296800
H -34.636200 -12.759900 -16.783600
H -34.436300 -12.602000 -19.561200
H -34.382700 -14.192800 -19.872200
C -34.357200 -13.467300 -19.202000
N -33.028000 -13.532800 -18.578900
H -32.984000 -18.378400 -18.445900
N -32.793900 -15.935800 -18.410500
H -32.478700 -11.609200 -18.403000
C -32.358300 -14.668900 -18.219600
C -32.218500 -12.488000 -18.216400
N -32.205900 -18.134700 -18.104900
C -31.922600 -16.836100 -17.978300
H -31.709500 -18.739400 -17.899000
C -31.176000 -14.249200 -17.657700
N -31.101400 -12.863700 -17.666200
N -30.722400 -16.512300 -17.391700
C -30.250100 -15.218300 -17.195400
H -30.221400 -17.126100 -17.180400
O -29.145500 -15.035500 -16.664600
