27
Fragment
H -38.839400 -17.069700 -13.373300
O -38.309100 -16.419800 -13.212400
H -37.159900 -17.712700 -12.236500
C -37.056000 -16.880100 -12.724500
H -36.606600 -16.110700 -12.161400
C -36.119600 -17.308800 -13.813000
O -35.853400 -16.196400 -14.679500
H -35.337800 -18.028600 -14.370600
H -35.321200 -17.611200 -13.426900
H -34.985000 -17.317900 -16.022200
H -34.905000 -15.738400 -16.343900
C -34.863500 -16.461600 -15.644700
N -33.523100 -16.419800 -15.063400
H -33.367300 -11.575300 -15.046300
N -33.229100 -14.014500 -14.970100
H -33.012600 -18.412200 -14.746000
C -32.826200 -15.279200 -14.737400
C -32.757400 -17.474700 -14.625900
N -32.639000 -11.815600 -14.622700
C -32.361900 -13.117600 -14.514400
H -32.107400 -11.135300 -14.338500
C -31.669100 -15.715800 -14.136900
N -31.640600 -17.099000 -14.066100
N -31.186200 -13.456000 -13.902000
C -30.748000 -14.750100 -13.655300
H -30.723100 -12.805100 -13.598500
O -29.669300 -14.941900 -13.063300
27
Fragment
O -44.326200 -18.810500 -15.508500
H -43.250300 -16.719900 -14.992700
C -43.221600 -18.627700 -14.977600
N -42.749200 -17.333700 -14.781400
N -42.370200 -20.982300 -14.506800
C -42.295600 -19.596800 -14.515400
H -41.762200 -15.106600 -14.274100
C -41.549100 -17.009900 -14.194800
N -41.265700 -15.711300 -14.068200
C -41.253100 -21.358000 -13.956700
C -41.113400 -19.177100 -13.953500
H -40.993000 -22.236800 -13.770100
N -40.677700 -17.910200 -13.762600
H -40.487700 -15.467600 -13.727200
N -40.443700 -20.313200 -13.594200
C -39.114500 -20.378700 -12.971100
H -39.089000 -19.653200 -12.300800
H -39.035400 -21.244000 -12.611800
H -38.835500 -21.086100 -15.389500
O -38.095300 -20.102300 -13.876300
C -37.968500 -21.089400 -14.900400
H -37.875900 -21.966100 -14.456400
H -36.888600 -19.867600 -16.086500
H -36.868500 -21.345500 -16.590600
C -36.801200 -20.770200 -15.769100
O -35.600600 -21.056700 -15.068800
H -34.864200 -20.962000 -15.668300
54
Fragment
H -38.839400 -17.069700 -13.373300
O -38.309100 -16.419800 -13.212400
H -37.159900 -17.712700 -12.236500
C -37.056000 -16.880100 -12.724500
H -36.606600 -16.110700 -12.161400
C -36.119600 -17.308800 -13.813000
O -35.853400 -16.196400 -14.679500
H -35.337800 -18.028600 -14.370600
H -35.321200 -17.611200 -13.426900
H -34.985000 -17.317900 -16.022200
H -34.905000 -15.738400 -16.343900
C -34.863500 -16.461600 -15.644700
N -33.523100 -16.419800 -15.063400
H -33.367300 -11.575300 -15.046300
N -33.229100 -14.014500 -14.970100
H -33.012600 -18.412200 -14.746000
C -32.826200 -15.279200 -14.737400
C -32.757400 -17.474700 -14.625900
N -32.639000 -11.815600 -14.622700
C -32.361900 -13.117600 -14.514400
H -32.107400 -11.135300 -14.338500
C -31.669100 -15.715800 -14.136900
N -31.640600 -17.099000 -14.066100
N -31.186200 -13.456000 -13.902000
C -30.748000 -14.750100 -13.655300
H -30.723100 -12.805100 -13.598500
O -29.669300 -14.941900 -13.063300
O -44.326200 -18.810500 -15.508500
H -43.250300 -16.719900 -14.992700
C -43.221600 -18.627700 -14.977600
N -42.749200 -17.333700 -14.781400
N -42.370200 -20.982300 -14.506800
C -42.295600 -19.596800 -14.515400
H -41.762200 -15.106600 -14.274100
C -41.549100 -17.009900 -14.194800
N -41.265700 -15.711300 -14.068200
C -41.253100 -21.358000 -13.956700
C -41.113400 -19.177100 -13.953500
H -40.993000 -22.236800 -13.770100
N -40.677700 -17.910200 -13.762600
H -40.487700 -15.467600 -13.727200
N -40.443700 -20.313200 -13.594200
C -39.114500 -20.378700 -12.971100
H -39.089000 -19.653200 -12.300800
H -39.035400 -21.244000 -12.611800
H -38.835500 -21.086100 -15.389500
O -38.095300 -20.102300 -13.876300
C -37.968500 -21.089400 -14.900400
H -37.875900 -21.966100 -14.456400
H -36.888600 -19.867600 -16.086500
H -36.868500 -21.345500 -16.590600
C -36.801200 -20.770200 -15.769100
O -35.600600 -21.056700 -15.068800
H -34.864200 -20.962000 -15.668300
