10
Fragment
O -19.440100 -14.885200 -15.104400
H -19.439800 -14.912100 -13.132900
C -18.965300 -14.550300 -14.028200
O -17.988700 -11.133300 -14.595600
N -17.902400 -13.787700 -13.877300
H -17.513800 -13.636200 -13.125000
C -17.354300 -11.916700 -15.244300
N -17.234500 -13.216600 -14.966200
H -16.832000 -11.562900 -16.119800
H -16.739800 -13.795700 -15.432400
42
Fragment
H -21.205600 -14.643000 -19.256900
H -20.839600 -16.885800 -20.023400
H -20.289400 -12.519800 -18.577300
C -20.209200 -15.056700 -19.178700
H -20.098200 -15.769400 -21.177000
C -20.044900 -16.165100 -20.170300
H -20.044700 -15.430500 -18.174300
C -19.310500 -12.976300 -18.550500
H -19.273400 -18.580400 -20.829400
O -19.269700 -14.044900 -19.475800
H -19.101200 -13.337200 -17.550100
O -18.787200 -16.782100 -19.956200
H -18.522400 -17.404100 -21.904000
C -18.517500 -17.813800 -20.908400
H -18.438500 -11.044500 -18.371900
H -18.368200 -11.762200 -19.983900
C -18.275300 -11.962600 -18.929000
C -17.183800 -18.398900 -20.596200
H -17.136800 -18.700000 -19.557200
H -17.010800 -19.258200 -21.224400
O -16.984700 -12.469000 -18.638200
O -16.174500 -17.435000 -20.871200
H -16.148500 -10.645800 -18.284900
H -16.022400 -11.204000 -19.952200
C -15.975400 -11.505100 -18.913100
C -14.884000 -17.941400 -20.580400
H -14.791100 -18.141800 -19.525500
H -14.720700 -18.859500 -21.137500
C -14.641700 -12.090200 -18.601000
H -14.636800 -12.499900 -17.605400
O -14.372000 -13.121900 -19.553200
H -14.058000 -16.566800 -21.959300
O -13.889500 -15.859100 -20.033600
H -13.885800 -11.323600 -18.680000
C -13.848700 -16.927700 -20.958900
H -13.114500 -14.473500 -21.335100
C -13.114300 -13.738900 -19.339100
H -13.061000 -14.134600 -18.332400
C -12.950100 -14.847300 -20.330700
H -12.869800 -17.384200 -20.932100
H -12.319700 -13.018200 -19.486000
H -11.953600 -15.261000 -20.252500
52
Fragment
O -19.440100 -14.885200 -15.104400
H -19.439800 -14.912100 -13.132900
C -18.965300 -14.550300 -14.028200
O -17.988700 -11.133300 -14.595600
N -17.902400 -13.787700 -13.877300
H -17.513800 -13.636200 -13.125000
C -17.354300 -11.916700 -15.244300
N -17.234500 -13.216600 -14.966200
H -16.832000 -11.562900 -16.119800
H -16.739800 -13.795700 -15.432400
H -21.205600 -14.643000 -19.256900
H -20.839600 -16.885800 -20.023400
H -20.289400 -12.519800 -18.577300
C -20.209200 -15.056700 -19.178700
H -20.098200 -15.769400 -21.177000
C -20.044900 -16.165100 -20.170300
H -20.044700 -15.430500 -18.174300
C -19.310500 -12.976300 -18.550500
H -19.273400 -18.580400 -20.829400
O -19.269700 -14.044900 -19.475800
H -19.101200 -13.337200 -17.550100
O -18.787200 -16.782100 -19.956200
H -18.522400 -17.404100 -21.904000
C -18.517500 -17.813800 -20.908400
H -18.438500 -11.044500 -18.371900
H -18.368200 -11.762200 -19.983900
C -18.275300 -11.962600 -18.929000
C -17.183800 -18.398900 -20.596200
H -17.136800 -18.700000 -19.557200
H -17.010800 -19.258200 -21.224400
O -16.984700 -12.469000 -18.638200
O -16.174500 -17.435000 -20.871200
H -16.148500 -10.645800 -18.284900
H -16.022400 -11.204000 -19.952200
C -15.975400 -11.505100 -18.913100
C -14.884000 -17.941400 -20.580400
H -14.791100 -18.141800 -19.525500
H -14.720700 -18.859500 -21.137500
C -14.641700 -12.090200 -18.601000
H -14.636800 -12.499900 -17.605400
O -14.372000 -13.121900 -19.553200
H -14.058000 -16.566800 -21.959300
O -13.889500 -15.859100 -20.033600
H -13.885800 -11.323600 -18.680000
C -13.848700 -16.927700 -20.958900
H -13.114500 -14.473500 -21.335100
C -13.114300 -13.738900 -19.339100
H -13.061000 -14.134600 -18.332400
C -12.950100 -14.847300 -20.330700
H -12.869800 -17.384200 -20.932100
H -12.319700 -13.018200 -19.486000
H -11.953600 -15.261000 -20.252500
