30
Fragment
N -12.229900 -25.858900 -31.516800
C -11.273300 -25.531400 -32.068500
H -10.912800 -24.061200 -34.296300
H -10.619500 -25.535900 -34.748900
C -10.264300 -24.780600 -34.253900
C -10.038300 -25.182900 -32.796900
H -9.899400 -23.890700 -36.627800
O -9.606100 -23.105500 -38.860300
H -9.601400 -24.448600 -32.334900
H -9.437200 -25.942700 -32.773400
N -9.111800 -23.961000 -36.288300
C -8.954800 -24.325900 -34.888000
H -8.613100 -23.561700 -34.400000
C -8.411400 -23.288000 -38.513800
H -8.326600 -23.054700 -41.085800
H -8.302300 -25.039300 -34.817300
C -8.019700 -23.732200 -37.061600
H -7.575200 -21.713100 -40.772200
C -7.512400 -22.679300 -40.715600
N -7.388600 -23.081600 -39.291700
H -7.285000 -23.316400 -43.367800
O -6.895200 -23.756100 -36.682000
H -6.676000 -21.889600 -43.143800
H -6.600200 -23.181800 -38.964100
C -6.503300 -22.839300 -43.044800
C -6.306100 -23.160900 -41.543100
H -6.197900 -24.118000 -41.430000
H -5.499700 -22.727100 -41.222500
C -5.381200 -23.193800 -43.841600
N -4.473200 -23.476400 -44.473400
30
Fragment
N -9.638400 -21.391600 -26.250300
C -8.730400 -21.674200 -26.882100
H -8.611900 -22.140900 -29.501200
H -7.913700 -20.750000 -29.293800
C -7.805500 -21.707100 -29.180600
C -7.608300 -22.028700 -27.678900
H -7.511400 -21.686200 -31.759700
H -7.435700 -22.978400 -27.579900
O -7.216400 -21.111900 -34.041700
H -6.826600 -21.551600 -27.355900
N -6.723000 -21.786400 -31.432000
C -6.599200 -22.188700 -30.008100
H -6.536400 -23.154900 -29.951500
C -6.091900 -21.135800 -33.662100
H -5.809300 -19.828700 -35.906400
H -5.785000 -21.813300 -29.637900
C -5.700200 -21.580000 -32.209900
H -5.498500 -21.306300 -36.323700
C -5.156800 -20.542100 -35.835700
N -4.999800 -20.907000 -34.435400
H -4.674400 -18.925300 -37.950300
H -4.510200 -20.419400 -38.388800
O -4.505500 -21.762500 -31.863400
H -4.212200 -20.977300 -34.095900
C -4.073400 -19.685100 -37.926800
C -3.847300 -20.087400 -36.469900
H -3.492100 -19.332100 -35.974800
H -3.198800 -20.806800 -36.427400
C -2.838300 -19.336600 -38.655200
N -1.881800 -19.009100 -39.206900
60
Fragment
N -12.229900 -25.858900 -31.516800
C -11.273300 -25.531400 -32.068500
H -10.912800 -24.061200 -34.296300
H -10.619500 -25.535900 -34.748900
C -10.264300 -24.780600 -34.253900
C -10.038300 -25.182900 -32.796900
H -9.899400 -23.890700 -36.627800
O -9.606100 -23.105500 -38.860300
H -9.601400 -24.448600 -32.334900
H -9.437200 -25.942700 -32.773400
N -9.111800 -23.961000 -36.288300
C -8.954800 -24.325900 -34.888000
H -8.613100 -23.561700 -34.400000
C -8.411400 -23.288000 -38.513800
H -8.326600 -23.054700 -41.085800
H -8.302300 -25.039300 -34.817300
C -8.019700 -23.732200 -37.061600
H -7.575200 -21.713100 -40.772200
C -7.512400 -22.679300 -40.715600
N -7.388600 -23.081600 -39.291700
H -7.285000 -23.316400 -43.367800
O -6.895200 -23.756100 -36.682000
H -6.676000 -21.889600 -43.143800
H -6.600200 -23.181800 -38.964100
C -6.503300 -22.839300 -43.044800
C -6.306100 -23.160900 -41.543100
H -6.197900 -24.118000 -41.430000
H -5.499700 -22.727100 -41.222500
C -5.381200 -23.193800 -43.841600
N -4.473200 -23.476400 -44.473400
N -9.638400 -21.391600 -26.250300
C -8.730400 -21.674200 -26.882100
H -8.611900 -22.140900 -29.501200
H -7.913700 -20.750000 -29.293800
C -7.805500 -21.707100 -29.180600
C -7.608300 -22.028700 -27.678900
H -7.511400 -21.686200 -31.759700
H -7.435700 -22.978400 -27.579900
O -7.216400 -21.111900 -34.041700
H -6.826600 -21.551600 -27.355900
N -6.723000 -21.786400 -31.432000
C -6.599200 -22.188700 -30.008100
H -6.536400 -23.154900 -29.951500
C -6.091900 -21.135800 -33.662100
H -5.809300 -19.828700 -35.906400
H -5.785000 -21.813300 -29.637900
C -5.700200 -21.580000 -32.209900
H -5.498500 -21.306300 -36.323700
C -5.156800 -20.542100 -35.835700
N -4.999800 -20.907000 -34.435400
H -4.674400 -18.925300 -37.950300
H -4.510200 -20.419400 -38.388800
O -4.505500 -21.762500 -31.863400
H -4.212200 -20.977300 -34.095900
C -4.073400 -19.685100 -37.926800
C -3.847300 -20.087400 -36.469900
H -3.492100 -19.332100 -35.974800
H -3.198800 -20.806800 -36.427400
C -2.838300 -19.336600 -38.655200
N -1.881800 -19.009100 -39.206900
