30
Fragment
O -21.933200 -13.723900 -12.492000
O -21.525400 -15.515300 -13.644900
N -21.174000 -14.519300 -13.026200
C -19.753900 -14.265300 -12.943400
O -19.636500 -13.973000 -19.310300
O -19.565100 -12.153900 -18.115100
N -19.266300 -13.285700 -12.148800
N -19.169900 -13.278800 -18.413000
H -18.901600 -15.658900 -14.236700
C -18.786700 -14.938800 -13.627700
C -18.101200 -13.823500 -17.622000
C -17.983700 -13.364500 -12.364400
H -17.818200 -12.454100 -16.070000
N -17.613600 -14.348800 -13.243700
C -17.570400 -13.271000 -16.486900
N -17.535300 -15.004300 -17.947300
O -17.478500 -11.768900 -10.820700
N -17.039100 -12.483700 -11.704800
C -16.649100 -15.167500 -17.005700
N -16.612800 -14.146100 -16.087900
H -16.331400 -15.734900 -13.988500
C -16.283800 -14.785700 -13.711400
O -15.984200 -17.204100 -17.792100
O -15.873400 -12.527500 -12.070000
N -15.809300 -16.339400 -16.944800
H -15.806600 -12.990200 -14.625900
C -15.788000 -13.946900 -14.879800
H -15.637500 -14.718700 -12.964500
O -14.975800 -16.401100 -16.038000
H -14.849800 -14.190400 -15.081400
12
Fragment
O -24.020400 -9.990800 -8.493500
H -23.477900 -11.144600 -9.868500
C -23.170600 -10.608100 -9.147200
H -21.990300 -9.157600 -7.515100
N -21.865000 -10.580100 -8.920800
H -21.414000 -11.784300 -10.460700
C -21.316200 -9.796100 -7.829400
H -21.063400 -10.392400 -7.094000
C -20.924000 -11.298100 -9.765000
H -20.525800 -9.309200 -8.142100
H -20.415000 -11.933900 -9.219500
H -20.308300 -10.661100 -10.183700
42
Fragment
O -21.933200 -13.723900 -12.492000
O -21.525400 -15.515300 -13.644900
N -21.174000 -14.519300 -13.026200
C -19.753900 -14.265300 -12.943400
O -19.636500 -13.973000 -19.310300
O -19.565100 -12.153900 -18.115100
N -19.266300 -13.285700 -12.148800
N -19.169900 -13.278800 -18.413000
H -18.901600 -15.658900 -14.236700
C -18.786700 -14.938800 -13.627700
C -18.101200 -13.823500 -17.622000
C -17.983700 -13.364500 -12.364400
H -17.818200 -12.454100 -16.070000
N -17.613600 -14.348800 -13.243700
C -17.570400 -13.271000 -16.486900
N -17.535300 -15.004300 -17.947300
O -17.478500 -11.768900 -10.820700
N -17.039100 -12.483700 -11.704800
C -16.649100 -15.167500 -17.005700
N -16.612800 -14.146100 -16.087900
H -16.331400 -15.734900 -13.988500
C -16.283800 -14.785700 -13.711400
O -15.984200 -17.204100 -17.792100
O -15.873400 -12.527500 -12.070000
N -15.809300 -16.339400 -16.944800
H -15.806600 -12.990200 -14.625900
C -15.788000 -13.946900 -14.879800
H -15.637500 -14.718700 -12.964500
O -14.975800 -16.401100 -16.038000
H -14.849800 -14.190400 -15.081400
O -24.020400 -9.990800 -8.493500
H -23.477900 -11.144600 -9.868500
C -23.170600 -10.608100 -9.147200
H -21.990300 -9.157600 -7.515100
N -21.865000 -10.580100 -8.920800
H -21.414000 -11.784300 -10.460700
C -21.316200 -9.796100 -7.829400
H -21.063400 -10.392400 -7.094000
C -20.924000 -11.298100 -9.765000
H -20.525800 -9.309200 -8.142100
H -20.415000 -11.933900 -9.219500
H -20.308300 -10.661100 -10.183700
