12
Fragment
H -60.223700 -65.596300 -5.941500
H -60.211600 -63.517900 -5.061900
N -59.464800 -65.197400 -5.877700
C -59.427000 -63.929700 -5.348000
O -58.382500 -66.974500 -6.766600
C -58.354100 -65.842800 -6.302200
C -58.262000 -63.297700 -5.242700
F -58.200000 -62.034500 -4.742100
N -57.169800 -65.157300 -6.175200
C -56.995300 -63.877600 -5.652700
H -56.461100 -65.561100 -6.449600
O -55.917500 -63.370300 -5.565700
15
Fragment
H -53.984800 -64.327800 -7.356500
C -53.122000 -64.244400 -7.688200
H -52.897600 -66.198900 -8.134400
N -52.547800 -63.031100 -7.720800
C -52.458300 -65.379200 -8.141700
C -51.312500 -62.949600 -8.156200
C -51.150100 -65.308800 -8.606100
O -51.128100 -67.521400 -9.426100
H -50.907900 -62.111600 -8.181600
C -50.572100 -64.045600 -8.584300
C -50.489000 -66.500200 -9.106800
H -49.688800 -63.933700 -8.856900
N -49.155400 -66.479700 -9.208400
H -48.735000 -67.173300 -9.492600
H -48.718700 -65.772800 -8.985500
27
Fragment
H -60.223700 -65.596300 -5.941500
H -60.211600 -63.517900 -5.061900
N -59.464800 -65.197400 -5.877700
C -59.427000 -63.929700 -5.348000
O -58.382500 -66.974500 -6.766600
C -58.354100 -65.842800 -6.302200
C -58.262000 -63.297700 -5.242700
F -58.200000 -62.034500 -4.742100
N -57.169800 -65.157300 -6.175200
C -56.995300 -63.877600 -5.652700
H -56.461100 -65.561100 -6.449600
O -55.917500 -63.370300 -5.565700
H -53.984800 -64.327800 -7.356500
C -53.122000 -64.244400 -7.688200
H -52.897600 -66.198900 -8.134400
N -52.547800 -63.031100 -7.720800
C -52.458300 -65.379200 -8.141700
C -51.312500 -62.949600 -8.156200
C -51.150100 -65.308800 -8.606100
O -51.128100 -67.521400 -9.426100
H -50.907900 -62.111600 -8.181600
C -50.572100 -64.045600 -8.584300
C -50.489000 -66.500200 -9.106800
H -49.688800 -63.933700 -8.856900
N -49.155400 -66.479700 -9.208400
H -48.735000 -67.173300 -9.492600
H -48.718700 -65.772800 -8.985500
