12
Fragment
H -60.223700 -65.596300 -5.941500
H -60.211600 -63.517900 -5.061900
N -59.464800 -65.197400 -5.877700
C -59.427000 -63.929700 -5.348000
O -58.382500 -66.974500 -6.766600
C -58.354100 -65.842800 -6.302200
C -58.262000 -63.297700 -5.242700
F -58.200000 -62.034500 -4.742100
N -57.169800 -65.157300 -6.175200
C -56.995300 -63.877600 -5.652700
H -56.461100 -65.561100 -6.449600
O -55.917500 -63.370300 -5.565700
12
Fragment
H -60.223700 -65.596300 -2.313300
H -60.211600 -63.517900 -1.433700
N -59.464800 -65.197400 -2.249500
C -59.427000 -63.929700 -1.719800
O -58.382500 -66.974500 -3.138400
C -58.354100 -65.842800 -2.674000
C -58.262000 -63.297700 -1.614500
F -58.200000 -62.034500 -1.113900
N -57.169800 -65.157300 -2.547000
C -56.995300 -63.877600 -2.024500
H -56.461100 -65.561100 -2.821400
O -55.917500 -63.370300 -1.937500
24
Fragment
H -60.223700 -65.596300 -5.941500
H -60.211600 -63.517900 -5.061900
N -59.464800 -65.197400 -5.877700
C -59.427000 -63.929700 -5.348000
O -58.382500 -66.974500 -6.766600
C -58.354100 -65.842800 -6.302200
C -58.262000 -63.297700 -5.242700
F -58.200000 -62.034500 -4.742100
N -57.169800 -65.157300 -6.175200
C -56.995300 -63.877600 -5.652700
H -56.461100 -65.561100 -6.449600
O -55.917500 -63.370300 -5.565700
H -60.223700 -65.596300 -2.313300
H -60.211600 -63.517900 -1.433700
N -59.464800 -65.197400 -2.249500
C -59.427000 -63.929700 -1.719800
O -58.382500 -66.974500 -3.138400
C -58.354100 -65.842800 -2.674000
C -58.262000 -63.297700 -1.614500
F -58.200000 -62.034500 -1.113900
N -57.169800 -65.157300 -2.547000
C -56.995300 -63.877600 -2.024500
H -56.461100 -65.561100 -2.821400
O -55.917500 -63.370300 -1.937500
