12
Fragment
H -60.223700 -65.596300 -5.941500
H -60.211600 -63.517900 -5.061900
N -59.464800 -65.197400 -5.877700
C -59.427000 -63.929700 -5.348000
O -58.382500 -66.974500 -6.766600
C -58.354100 -65.842800 -6.302200
C -58.262000 -63.297700 -5.242700
F -58.200000 -62.034500 -4.742100
N -57.169800 -65.157300 -6.175200
C -56.995300 -63.877600 -5.652700
H -56.461100 -65.561100 -6.449600
O -55.917500 -63.370300 -5.565700
15
Fragment
H -64.612300 -67.946200 -5.357300
H -64.596000 -66.545700 -5.864400
N -64.175600 -67.239300 -5.580200
H -63.642200 -69.785300 -5.228700
C -62.842000 -67.218800 -5.478600
C -62.758900 -69.673400 -4.956100
H -62.423100 -71.607400 -4.553400
O -62.202900 -66.197600 -5.797900
C -62.180900 -68.410200 -4.977900
C -62.018500 -70.769400 -4.528000
C -60.872700 -68.339800 -4.513500
N -60.783200 -70.687900 -4.092600
H -60.433400 -67.520100 -4.506200
C -60.209000 -69.474600 -4.060000
H -59.346200 -69.391200 -3.728300
27
Fragment
H -60.223700 -65.596300 -5.941500
H -60.211600 -63.517900 -5.061900
N -59.464800 -65.197400 -5.877700
C -59.427000 -63.929700 -5.348000
O -58.382500 -66.974500 -6.766600
C -58.354100 -65.842800 -6.302200
C -58.262000 -63.297700 -5.242700
F -58.200000 -62.034500 -4.742100
N -57.169800 -65.157300 -6.175200
C -56.995300 -63.877600 -5.652700
H -56.461100 -65.561100 -6.449600
O -55.917500 -63.370300 -5.565700
H -64.612300 -67.946200 -5.357300
H -64.596000 -66.545700 -5.864400
N -64.175600 -67.239300 -5.580200
H -63.642200 -69.785300 -5.228700
C -62.842000 -67.218800 -5.478600
C -62.758900 -69.673400 -4.956100
H -62.423100 -71.607400 -4.553400
O -62.202900 -66.197600 -5.797900
C -62.180900 -68.410200 -4.977900
C -62.018500 -70.769400 -4.528000
C -60.872700 -68.339800 -4.513500
N -60.783200 -70.687900 -4.092600
H -60.433400 -67.520100 -4.506200
C -60.209000 -69.474600 -4.060000
H -59.346200 -69.391200 -3.728300
