12
Fragment
H -60.223700 -65.596300 -5.941500
H -60.211600 -63.517900 -5.061900
N -59.464800 -65.197400 -5.877700
C -59.427000 -63.929700 -5.348000
O -58.382500 -66.974500 -6.766600
C -58.354100 -65.842800 -6.302200
C -58.262000 -63.297700 -5.242700
F -58.200000 -62.034500 -4.742100
N -57.169800 -65.157300 -6.175200
C -56.995300 -63.877600 -5.652700
H -56.461100 -65.561100 -6.449600
O -55.917500 -63.370300 -5.565700
12
Fragment
F -66.821800 -62.961600 -4.567900
O -65.572200 -65.048500 -3.192800
C -65.512900 -62.898300 -4.263100
H -65.175100 -61.099800 -4.974700
C -64.942400 -64.043400 -3.577400
C -64.776200 -61.829900 -4.557000
N -63.591900 -63.936400 -3.363300
N -63.447200 -61.789800 -4.255900
H -63.202800 -64.622800 -3.020100
H -63.000700 -61.082800 -4.455800
C -62.785400 -62.838100 -3.635500
O -61.594600 -62.829200 -3.421400
24
Fragment
H -60.223700 -65.596300 -5.941500
H -60.211600 -63.517900 -5.061900
N -59.464800 -65.197400 -5.877700
C -59.427000 -63.929700 -5.348000
O -58.382500 -66.974500 -6.766600
C -58.354100 -65.842800 -6.302200
C -58.262000 -63.297700 -5.242700
F -58.200000 -62.034500 -4.742100
N -57.169800 -65.157300 -6.175200
C -56.995300 -63.877600 -5.652700
H -56.461100 -65.561100 -6.449600
O -55.917500 -63.370300 -5.565700
F -66.821800 -62.961600 -4.567900
O -65.572200 -65.048500 -3.192800
C -65.512900 -62.898300 -4.263100
H -65.175100 -61.099800 -4.974700
C -64.942400 -64.043400 -3.577400
C -64.776200 -61.829900 -4.557000
N -63.591900 -63.936400 -3.363300
N -63.447200 -61.789800 -4.255900
H -63.202800 -64.622800 -3.020100
H -63.000700 -61.082800 -4.455800
C -62.785400 -62.838100 -3.635500
O -61.594600 -62.829200 -3.421400
