15
Fragment
H -9.997700 -5.900600 -26.644700
H -9.822600 -7.219400 -26.007600
N -9.477700 -6.485300 -26.376800
H -9.264300 -4.101200 -27.640600
C -8.321200 -4.112500 -27.646900
H -8.154400 -2.305200 -28.584800
C -8.143600 -6.358000 -26.426300
C -7.668400 -3.034900 -28.222600
C -7.567400 -5.139300 -27.084500
O -7.378400 -7.210100 -25.955300
C -6.282100 -3.014700 -28.230700
C -6.171600 -5.035000 -27.141600
H -5.842500 -2.291100 -28.624000
H -5.628300 -5.722500 -26.764300
N -5.534200 -4.001600 -27.707700
12
Fragment
O -13.949500 -5.224500 -23.804300
H -13.897400 -7.335700 -22.550500
N -13.103000 -7.042700 -22.720900
C -12.972900 -5.851600 -23.415400
O -12.318800 -8.870600 -21.615300
C -12.088900 -7.827600 -22.235800
C -11.595500 -5.464700 -23.627200
F -11.379100 -4.332800 -24.307200
N -10.832500 -7.379200 -22.494300
C -10.584200 -6.214600 -23.181000
H -10.143200 -7.874000 -22.188200
H -9.637600 -5.983600 -23.305400
27
Fragment
H -9.997700 -5.900600 -26.644700
H -9.822600 -7.219400 -26.007600
N -9.477700 -6.485300 -26.376800
H -9.264300 -4.101200 -27.640600
C -8.321200 -4.112500 -27.646900
H -8.154400 -2.305200 -28.584800
C -8.143600 -6.358000 -26.426300
C -7.668400 -3.034900 -28.222600
C -7.567400 -5.139300 -27.084500
O -7.378400 -7.210100 -25.955300
C -6.282100 -3.014700 -28.230700
C -6.171600 -5.035000 -27.141600
H -5.842500 -2.291100 -28.624000
H -5.628300 -5.722500 -26.764300
N -5.534200 -4.001600 -27.707700
O -13.949500 -5.224500 -23.804300
H -13.897400 -7.335700 -22.550500
N -13.103000 -7.042700 -22.720900
C -12.972900 -5.851600 -23.415400
O -12.318800 -8.870600 -21.615300
C -12.088900 -7.827600 -22.235800
C -11.595500 -5.464700 -23.627200
F -11.379100 -4.332800 -24.307200
N -10.832500 -7.379200 -22.494300
C -10.584200 -6.214600 -23.181000
H -10.143200 -7.874000 -22.188200
H -9.637600 -5.983600 -23.305400
