15
Fragment
H -9.997700 -5.900600 -26.644700
H -9.822600 -7.219400 -26.007600
N -9.477700 -6.485300 -26.376800
H -9.264300 -4.101200 -27.640600
C -8.321200 -4.112500 -27.646900
H -8.154400 -2.305200 -28.584800
C -8.143600 -6.358000 -26.426300
C -7.668400 -3.034900 -28.222600
C -7.567400 -5.139300 -27.084500
O -7.378400 -7.210100 -25.955300
C -6.282100 -3.014700 -28.230700
C -6.171600 -5.035000 -27.141600
H -5.842500 -2.291100 -28.624000
H -5.628300 -5.722500 -26.764300
N -5.534200 -4.001600 -27.707700
12
Fragment
F -12.867900 -6.046100 -30.288700
H -12.702500 -8.315100 -28.968500
C -11.898800 -7.889600 -29.210000
C -11.785600 -6.736800 -29.881900
H -10.839600 -9.319600 -28.400900
N -10.773200 -8.567800 -28.821200
C -10.511200 -6.163400 -30.196600
O -10.352400 -5.112600 -30.825500
C -9.517300 -8.119900 -29.088600
N -9.446600 -6.916000 -29.756500
H -8.664100 -6.602100 -29.944800
O -8.511300 -8.747400 -28.761100
27
Fragment
H -9.997700 -5.900600 -26.644700
H -9.822600 -7.219400 -26.007600
N -9.477700 -6.485300 -26.376800
H -9.264300 -4.101200 -27.640600
C -8.321200 -4.112500 -27.646900
H -8.154400 -2.305200 -28.584800
C -8.143600 -6.358000 -26.426300
C -7.668400 -3.034900 -28.222600
C -7.567400 -5.139300 -27.084500
O -7.378400 -7.210100 -25.955300
C -6.282100 -3.014700 -28.230700
C -6.171600 -5.035000 -27.141600
H -5.842500 -2.291100 -28.624000
H -5.628300 -5.722500 -26.764300
N -5.534200 -4.001600 -27.707700
F -12.867900 -6.046100 -30.288700
H -12.702500 -8.315100 -28.968500
C -11.898800 -7.889600 -29.210000
C -11.785600 -6.736800 -29.881900
H -10.839600 -9.319600 -28.400900
N -10.773200 -8.567800 -28.821200
C -10.511200 -6.163400 -30.196600
O -10.352400 -5.112600 -30.825500
C -9.517300 -8.119900 -29.088600
N -9.446600 -6.916000 -29.756500
H -8.664100 -6.602100 -29.944800
O -8.511300 -8.747400 -28.761100
