15
Fragment
H -9.997700 -5.900600 -26.644700
H -9.822600 -7.219400 -26.007600
N -9.477700 -6.485300 -26.376800
H -9.264300 -4.101200 -27.640600
C -8.321200 -4.112500 -27.646900
H -8.154400 -2.305200 -28.584800
C -8.143600 -6.358000 -26.426300
C -7.668400 -3.034900 -28.222600
C -7.567400 -5.139300 -27.084500
O -7.378400 -7.210100 -25.955300
C -6.282100 -3.014700 -28.230700
C -6.171600 -5.035000 -27.141600
H -5.842500 -2.291100 -28.624000
H -5.628300 -5.722500 -26.764300
N -5.534200 -4.001600 -27.707700
12
Fragment
H -3.566600 -4.017000 -27.851200
O -2.877100 -6.061500 -26.648500
N -2.676100 -4.130600 -27.828000
H -2.318300 -2.452600 -28.852500
C -2.166800 -5.211900 -27.185500
C -1.883100 -3.176300 -28.421100
N -0.790000 -5.301500 -27.175700
C -0.542600 -3.291700 -28.368600
H -0.430200 -5.933300 -26.794600
C 0.100000 -4.403400 -27.730200
F 0.254500 -2.349400 -28.903500
O 1.314100 -4.587100 -27.655300
27
Fragment
H -9.997700 -5.900600 -26.644700
H -9.822600 -7.219400 -26.007600
N -9.477700 -6.485300 -26.376800
H -9.264300 -4.101200 -27.640600
C -8.321200 -4.112500 -27.646900
H -8.154400 -2.305200 -28.584800
C -8.143600 -6.358000 -26.426300
C -7.668400 -3.034900 -28.222600
C -7.567400 -5.139300 -27.084500
O -7.378400 -7.210100 -25.955300
C -6.282100 -3.014700 -28.230700
C -6.171600 -5.035000 -27.141600
H -5.842500 -2.291100 -28.624000
H -5.628300 -5.722500 -26.764300
N -5.534200 -4.001600 -27.707700
H -3.566600 -4.017000 -27.851200
O -2.877100 -6.061500 -26.648500
N -2.676100 -4.130600 -27.828000
H -2.318300 -2.452600 -28.852500
C -2.166800 -5.211900 -27.185500
C -1.883100 -3.176300 -28.421100
N -0.790000 -5.301500 -27.175700
C -0.542600 -3.291700 -28.368600
H -0.430200 -5.933300 -26.794600
C 0.100000 -4.403400 -27.730200
F 0.254500 -2.349400 -28.903500
O 1.314100 -4.587100 -27.655300
