15
Fragment
H -9.997700 -5.900600 -26.644700
H -9.822600 -7.219400 -26.007600
N -9.477700 -6.485300 -26.376800
H -9.264300 -4.101200 -27.640600
C -8.321200 -4.112500 -27.646900
H -8.154400 -2.305200 -28.584800
C -8.143600 -6.358000 -26.426300
C -7.668400 -3.034900 -28.222600
C -7.567400 -5.139300 -27.084500
O -7.378400 -7.210100 -25.955300
C -6.282100 -3.014700 -28.230700
C -6.171600 -5.035000 -27.141600
H -5.842500 -2.291100 -28.624000
H -5.628300 -5.722500 -26.764300
N -5.534200 -4.001600 -27.707700
12
Fragment
O -9.953500 -0.516900 -25.887600
F -8.893900 -2.754600 -24.639400
C -8.739400 -0.700600 -25.812700
H -8.209200 0.829200 -26.748200
C -8.096800 -1.812300 -25.174300
N -7.849400 0.197500 -26.367200
C -6.756300 -1.927700 -25.121800
C -6.472600 0.107800 -26.357400
H -6.321200 -2.651500 -24.690400
N -5.963300 -0.973400 -25.714900
O -5.762400 0.957400 -26.894400
H -5.072800 -1.087100 -25.691700
27
Fragment
H -9.997700 -5.900600 -26.644700
H -9.822600 -7.219400 -26.007600
N -9.477700 -6.485300 -26.376800
H -9.264300 -4.101200 -27.640600
C -8.321200 -4.112500 -27.646900
H -8.154400 -2.305200 -28.584800
C -8.143600 -6.358000 -26.426300
C -7.668400 -3.034900 -28.222600
C -7.567400 -5.139300 -27.084500
O -7.378400 -7.210100 -25.955300
C -6.282100 -3.014700 -28.230700
C -6.171600 -5.035000 -27.141600
H -5.842500 -2.291100 -28.624000
H -5.628300 -5.722500 -26.764300
N -5.534200 -4.001600 -27.707700
O -9.953500 -0.516900 -25.887600
F -8.893900 -2.754600 -24.639400
C -8.739400 -0.700600 -25.812700
H -8.209200 0.829200 -26.748200
C -8.096800 -1.812300 -25.174300
N -7.849400 0.197500 -26.367200
C -6.756300 -1.927700 -25.121800
C -6.472600 0.107800 -26.357400
H -6.321200 -2.651500 -24.690400
N -5.963300 -0.973400 -25.714900
O -5.762400 0.957400 -26.894400
H -5.072800 -1.087100 -25.691700
