15
Fragment
H -9.997700 -5.900600 -26.644700
H -9.822600 -7.219400 -26.007600
N -9.477700 -6.485300 -26.376800
H -9.264300 -4.101200 -27.640600
C -8.321200 -4.112500 -27.646900
H -8.154400 -2.305200 -28.584800
C -8.143600 -6.358000 -26.426300
C -7.668400 -3.034900 -28.222600
C -7.567400 -5.139300 -27.084500
O -7.378400 -7.210100 -25.955300
C -6.282100 -3.014700 -28.230700
C -6.171600 -5.035000 -27.141600
H -5.842500 -2.291100 -28.624000
H -5.628300 -5.722500 -26.764300
N -5.534200 -4.001600 -27.707700
12
Fragment
F -7.275100 -5.045200 -23.638700
H -7.147700 -7.300100 -22.364900
C -6.320300 -6.924500 -22.623500
C -6.198600 -5.767700 -23.281500
H -5.256800 -8.362500 -21.856200
N -5.199600 -7.629800 -22.276500
C -4.903300 -5.208600 -23.624600
O -4.718400 -4.141700 -24.171800
C -3.946800 -7.217200 -22.581900
N -3.850700 -6.027600 -23.242400
H -3.038600 -5.765400 -23.430400
O -2.943600 -7.884200 -22.279400
27
Fragment
H -9.997700 -5.900600 -26.644700
H -9.822600 -7.219400 -26.007600
N -9.477700 -6.485300 -26.376800
H -9.264300 -4.101200 -27.640600
C -8.321200 -4.112500 -27.646900
H -8.154400 -2.305200 -28.584800
C -8.143600 -6.358000 -26.426300
C -7.668400 -3.034900 -28.222600
C -7.567400 -5.139300 -27.084500
O -7.378400 -7.210100 -25.955300
C -6.282100 -3.014700 -28.230700
C -6.171600 -5.035000 -27.141600
H -5.842500 -2.291100 -28.624000
H -5.628300 -5.722500 -26.764300
N -5.534200 -4.001600 -27.707700
F -7.275100 -5.045200 -23.638700
H -7.147700 -7.300100 -22.364900
C -6.320300 -6.924500 -22.623500
C -6.198600 -5.767700 -23.281500
H -5.256800 -8.362500 -21.856200
N -5.199600 -7.629800 -22.276500
C -4.903300 -5.208600 -23.624600
O -4.718400 -4.141700 -24.171800
C -3.946800 -7.217200 -22.581900
N -3.850700 -6.027600 -23.242400
H -3.038600 -5.765400 -23.430400
O -2.943600 -7.884200 -22.279400
