15
Fragment
H -9.997700 -5.900600 -26.644700
H -9.822600 -7.219400 -26.007600
N -9.477700 -6.485300 -26.376800
H -9.264300 -4.101200 -27.640600
C -8.321200 -4.112500 -27.646900
H -8.154400 -2.305200 -28.584800
C -8.143600 -6.358000 -26.426300
C -7.668400 -3.034900 -28.222600
C -7.567400 -5.139300 -27.084500
O -7.378400 -7.210100 -25.955300
C -6.282100 -3.014700 -28.230700
C -6.171600 -5.035000 -27.141600
H -5.842500 -2.291100 -28.624000
H -5.628300 -5.722500 -26.764300
N -5.534200 -4.001600 -27.707700
12
Fragment
O -5.695800 2.780200 -31.263500
H -5.600800 0.661400 -30.112500
N -4.788700 0.923500 -30.300500
C -4.692600 2.113100 -30.961000
O -3.921100 -0.962300 -29.371100
C -3.736100 0.104600 -29.918300
N -3.439800 2.525700 -31.266400
H -3.382600 3.258500 -31.686700
C -2.440800 0.663700 -30.261400
C -2.319100 1.820500 -30.919400
H -1.491700 2.196000 -31.178000
F -1.364300 -0.058800 -29.904200
27
Fragment
H -9.997700 -5.900600 -26.644700
H -9.822600 -7.219400 -26.007600
N -9.477700 -6.485300 -26.376800
H -9.264300 -4.101200 -27.640600
C -8.321200 -4.112500 -27.646900
H -8.154400 -2.305200 -28.584800
C -8.143600 -6.358000 -26.426300
C -7.668400 -3.034900 -28.222600
C -7.567400 -5.139300 -27.084500
O -7.378400 -7.210100 -25.955300
C -6.282100 -3.014700 -28.230700
C -6.171600 -5.035000 -27.141600
H -5.842500 -2.291100 -28.624000
H -5.628300 -5.722500 -26.764300
N -5.534200 -4.001600 -27.707700
O -5.695800 2.780200 -31.263500
H -5.600800 0.661400 -30.112500
N -4.788700 0.923500 -30.300500
C -4.692600 2.113100 -30.961000
O -3.921100 -0.962300 -29.371100
C -3.736100 0.104600 -29.918300
N -3.439800 2.525700 -31.266400
H -3.382600 3.258500 -31.686700
C -2.440800 0.663700 -30.261400
C -2.319100 1.820500 -30.919400
H -1.491700 2.196000 -31.178000
F -1.364300 -0.058800 -29.904200
