15
Fragment
H -9.997700 -5.900600 -26.644700
H -9.822600 -7.219400 -26.007600
N -9.477700 -6.485300 -26.376800
H -9.264300 -4.101200 -27.640600
C -8.321200 -4.112500 -27.646900
H -8.154400 -2.305200 -28.584800
C -8.143600 -6.358000 -26.426300
C -7.668400 -3.034900 -28.222600
C -7.567400 -5.139300 -27.084500
O -7.378400 -7.210100 -25.955300
C -6.282100 -3.014700 -28.230700
C -6.171600 -5.035000 -27.141600
H -5.842500 -2.291100 -28.624000
H -5.628300 -5.722500 -26.764300
N -5.534200 -4.001600 -27.707700
12
Fragment
H -6.584700 -8.489600 -28.622200
O -5.980600 -10.612900 -27.543200
N -5.721800 -8.617300 -28.601400
H -5.353700 -6.923000 -29.536000
C -5.239500 -9.750300 -28.028500
C -4.903900 -7.657500 -29.159300
N -3.874200 -9.894500 -28.061800
H -3.593200 -10.590600 -27.712000
C -3.577700 -7.820000 -29.140200
C -2.959800 -8.986100 -28.564200
F -2.751800 -6.896100 -29.663100
O -1.754800 -9.213100 -28.503200
27
Fragment
H -9.997700 -5.900600 -26.644700
H -9.822600 -7.219400 -26.007600
N -9.477700 -6.485300 -26.376800
H -9.264300 -4.101200 -27.640600
C -8.321200 -4.112500 -27.646900
H -8.154400 -2.305200 -28.584800
C -8.143600 -6.358000 -26.426300
C -7.668400 -3.034900 -28.222600
C -7.567400 -5.139300 -27.084500
O -7.378400 -7.210100 -25.955300
C -6.282100 -3.014700 -28.230700
C -6.171600 -5.035000 -27.141600
H -5.842500 -2.291100 -28.624000
H -5.628300 -5.722500 -26.764300
N -5.534200 -4.001600 -27.707700
H -6.584700 -8.489600 -28.622200
O -5.980600 -10.612900 -27.543200
N -5.721800 -8.617300 -28.601400
H -5.353700 -6.923000 -29.536000
C -5.239500 -9.750300 -28.028500
C -4.903900 -7.657500 -29.159300
N -3.874200 -9.894500 -28.061800
H -3.593200 -10.590600 -27.712000
C -3.577700 -7.820000 -29.140200
C -2.959800 -8.986100 -28.564200
F -2.751800 -6.896100 -29.663100
O -1.754800 -9.213100 -28.503200
