15
Fragment
H -9.997700 -5.900600 -26.644700
H -9.822600 -7.219400 -26.007600
N -9.477700 -6.485300 -26.376800
H -9.264300 -4.101200 -27.640600
C -8.321200 -4.112500 -27.646900
H -8.154400 -2.305200 -28.584800
C -8.143600 -6.358000 -26.426300
C -7.668400 -3.034900 -28.222600
C -7.567400 -5.139300 -27.084500
O -7.378400 -7.210100 -25.955300
C -6.282100 -3.014700 -28.230700
C -6.171600 -5.035000 -27.141600
H -5.842500 -2.291100 -28.624000
H -5.628300 -5.722500 -26.764300
N -5.534200 -4.001600 -27.707700
12
Fragment
H -11.778400 0.879600 -30.237500
H -11.272700 2.770000 -31.354700
C -10.831700 1.110600 -30.361900
N -10.583400 2.275100 -31.048600
F -10.036800 -0.771200 -29.235700
C -9.820400 0.360700 -29.915700
C -9.327000 2.723600 -31.307100
O -9.097100 3.766600 -31.927600
C -8.443100 0.747600 -30.127500
N -8.312900 1.938600 -30.822000
H -7.518500 2.231600 -30.992400
O -7.466500 0.120500 -29.738600
27
Fragment
H -9.997700 -5.900600 -26.644700
H -9.822600 -7.219400 -26.007600
N -9.477700 -6.485300 -26.376800
H -9.264300 -4.101200 -27.640600
C -8.321200 -4.112500 -27.646900
H -8.154400 -2.305200 -28.584800
C -8.143600 -6.358000 -26.426300
C -7.668400 -3.034900 -28.222600
C -7.567400 -5.139300 -27.084500
O -7.378400 -7.210100 -25.955300
C -6.282100 -3.014700 -28.230700
C -6.171600 -5.035000 -27.141600
H -5.842500 -2.291100 -28.624000
H -5.628300 -5.722500 -26.764300
N -5.534200 -4.001600 -27.707700
H -11.778400 0.879600 -30.237500
H -11.272700 2.770000 -31.354700
C -10.831700 1.110600 -30.361900
N -10.583400 2.275100 -31.048600
F -10.036800 -0.771200 -29.235700
C -9.820400 0.360700 -29.915700
C -9.327000 2.723600 -31.307100
O -9.097100 3.766600 -31.927600
C -8.443100 0.747600 -30.127500
N -8.312900 1.938600 -30.822000
H -7.518500 2.231600 -30.992400
O -7.466500 0.120500 -29.738600
