33
Fragment
H -25.069300 -5.895400 -25.597200
O -24.338200 -5.618700 -28.187600
C -24.239500 -6.358200 -25.433000
H -23.986400 -6.898100 -23.359500
C -23.668100 -6.899700 -24.280400
N -23.372800 -6.258000 -27.791500
C -23.370500 -6.620500 -26.415100
C -22.498700 -7.476400 -24.647400
O -22.420600 -6.583600 -28.488600
O -22.283100 -7.298300 -25.993300
H -21.578600 -8.245600 -22.957000
C -21.495100 -8.195900 -23.903600
N -20.481100 -8.679500 -24.505700
H -19.767000 -9.448700 -22.812100
N -19.599800 -9.371700 -23.705600
C -18.542800 -9.955700 -24.299700
O -18.364800 -9.857800 -25.518400
H -18.347400 -10.339100 -21.636900
O -17.719300 -10.862000 -19.371800
C -17.685300 -10.800300 -22.076400
C -17.586600 -10.724900 -23.456100
H -17.081500 -10.820300 -25.790400
N -16.866600 -11.546200 -19.899800
C -16.756400 -11.514900 -21.360000
C -16.514000 -11.379400 -24.122600
O -16.371100 -11.314400 -25.434600
O -16.091700 -12.260900 -19.283300
C -15.715800 -12.171900 -21.968600
C -15.601600 -12.086000 -23.335400
H -15.113300 -12.649100 -21.475900
O -14.451000 -13.034900 -25.083700
N -14.442400 -12.757400 -23.932600
O -13.548200 -13.068600 -23.225900
6
Fragment
H -20.664800 -8.895300 -28.382400
H -19.939500 -8.606500 -27.142700
C -19.872100 -8.597700 -28.074900
H -19.404600 -7.732200 -28.301900
C -18.884600 -9.546600 -28.543300
N -18.122500 -10.296600 -28.923300
39
Fragment
H -25.069300 -5.895400 -25.597200
O -24.338200 -5.618700 -28.187600
C -24.239500 -6.358200 -25.433000
H -23.986400 -6.898100 -23.359500
C -23.668100 -6.899700 -24.280400
N -23.372800 -6.258000 -27.791500
C -23.370500 -6.620500 -26.415100
C -22.498700 -7.476400 -24.647400
O -22.420600 -6.583600 -28.488600
O -22.283100 -7.298300 -25.993300
H -21.578600 -8.245600 -22.957000
C -21.495100 -8.195900 -23.903600
N -20.481100 -8.679500 -24.505700
H -19.767000 -9.448700 -22.812100
N -19.599800 -9.371700 -23.705600
C -18.542800 -9.955700 -24.299700
O -18.364800 -9.857800 -25.518400
H -18.347400 -10.339100 -21.636900
O -17.719300 -10.862000 -19.371800
C -17.685300 -10.800300 -22.076400
C -17.586600 -10.724900 -23.456100
H -17.081500 -10.820300 -25.790400
N -16.866600 -11.546200 -19.899800
C -16.756400 -11.514900 -21.360000
C -16.514000 -11.379400 -24.122600
O -16.371100 -11.314400 -25.434600
O -16.091700 -12.260900 -19.283300
C -15.715800 -12.171900 -21.968600
C -15.601600 -12.086000 -23.335400
H -15.113300 -12.649100 -21.475900
O -14.451000 -13.034900 -25.083700
N -14.442400 -12.757400 -23.932600
O -13.548200 -13.068600 -23.225900
H -20.664800 -8.895300 -28.382400
H -19.939500 -8.606500 -27.142700
C -19.872100 -8.597700 -28.074900
H -19.404600 -7.732200 -28.301900
C -18.884600 -9.546600 -28.543300
N -18.122500 -10.296600 -28.923300
