22
Fragment
H -25.163300 -8.766200 -20.305300
H -24.795800 -8.769600 -17.912000
H -24.508900 -9.880100 -21.194700
C -24.377300 -9.324600 -20.410600
N -24.232200 -10.189400 -19.221200
C -24.013500 -9.325900 -18.047800
H -23.903300 -9.881500 -17.259900
H -23.796000 -7.080300 -19.290500
N -23.206400 -8.470600 -20.617400
H -23.142600 -11.573600 -20.182200
C -23.022100 -11.002300 -19.408100
C -23.022100 -7.651600 -19.408100
H -22.901700 -11.573600 -18.634000
N -22.837900 -8.470600 -18.198800
H -22.248200 -7.080300 -19.525600
H -22.141000 -9.881500 -21.556300
C -22.030700 -9.325900 -20.768300
N -21.812100 -10.189400 -19.594900
C -21.666900 -9.324600 -18.405500
H -21.535400 -9.880100 -17.621400
H -21.248400 -8.769600 -20.904200
H -20.881000 -8.766200 -18.510900
14
Fragment
H -20.533500 -11.447000 -20.162200
O -20.079400 -12.054600 -20.671700
H -19.941400 -12.200300 -18.069500
C -19.467100 -12.881100 -18.489800
C -19.450500 -12.951600 -19.863900
H -19.044400 -13.479100 -22.213900
H -18.800300 -13.750800 -16.803000
C -18.788100 -13.807600 -17.731200
C -18.758600 -13.977200 -20.487200
O -18.734900 -14.102500 -21.846400
C -18.098900 -14.805800 -18.344500
C -18.086300 -14.898900 -19.718600
H -17.634500 -15.429200 -17.834400
H -17.620700 -15.590000 -20.130100
36
Fragment
H -25.163300 -8.766200 -20.305300
H -24.795800 -8.769600 -17.912000
H -24.508900 -9.880100 -21.194700
C -24.377300 -9.324600 -20.410600
N -24.232200 -10.189400 -19.221200
C -24.013500 -9.325900 -18.047800
H -23.903300 -9.881500 -17.259900
H -23.796000 -7.080300 -19.290500
N -23.206400 -8.470600 -20.617400
H -23.142600 -11.573600 -20.182200
C -23.022100 -11.002300 -19.408100
C -23.022100 -7.651600 -19.408100
H -22.901700 -11.573600 -18.634000
N -22.837900 -8.470600 -18.198800
H -22.248200 -7.080300 -19.525600
H -22.141000 -9.881500 -21.556300
C -22.030700 -9.325900 -20.768300
N -21.812100 -10.189400 -19.594900
C -21.666900 -9.324600 -18.405500
H -21.535400 -9.880100 -17.621400
H -21.248400 -8.769600 -20.904200
H -20.881000 -8.766200 -18.510900
H -20.533500 -11.447000 -20.162200
O -20.079400 -12.054600 -20.671700
H -19.941400 -12.200300 -18.069500
C -19.467100 -12.881100 -18.489800
C -19.450500 -12.951600 -19.863900
H -19.044400 -13.479100 -22.213900
H -18.800300 -13.750800 -16.803000
C -18.788100 -13.807600 -17.731200
C -18.758600 -13.977200 -20.487200
O -18.734900 -14.102500 -21.846400
C -18.098900 -14.805800 -18.344500
C -18.086300 -14.898900 -19.718600
H -17.634500 -15.429200 -17.834400
H -17.620700 -15.590000 -20.130100
