22
Fragment
H -25.163300 -8.766200 -20.305300
H -24.795800 -8.769600 -17.912000
H -24.508900 -9.880100 -21.194700
C -24.377300 -9.324600 -20.410600
N -24.232200 -10.189400 -19.221200
C -24.013500 -9.325900 -18.047800
H -23.903300 -9.881500 -17.259900
H -23.796000 -7.080300 -19.290500
N -23.206400 -8.470600 -20.617400
H -23.142600 -11.573600 -20.182200
C -23.022100 -11.002300 -19.408100
C -23.022100 -7.651600 -19.408100
H -22.901700 -11.573600 -18.634000
N -22.837900 -8.470600 -18.198800
H -22.248200 -7.080300 -19.525600
H -22.141000 -9.881500 -21.556300
C -22.030700 -9.325900 -20.768300
N -21.812100 -10.189400 -19.594900
C -21.666900 -9.324600 -18.405500
H -21.535400 -9.880100 -17.621400
H -21.248400 -8.769600 -20.904200
H -20.881000 -8.766200 -18.510900
14
Fragment
H -28.423500 -15.590000 -18.686100
H -28.409700 -15.429200 -20.981800
C -27.957900 -14.898900 -19.097500
C -27.945400 -14.805800 -20.471600
O -27.309400 -14.102500 -16.969800
C -27.285600 -13.977200 -18.329000
C -27.256200 -13.807600 -21.084900
H -27.243900 -13.750800 -22.013200
H -26.999900 -13.479100 -16.602200
C -26.593700 -12.951600 -18.952300
C -26.577200 -12.881100 -20.326400
H -26.102900 -12.200300 -20.746700
O -25.964900 -12.054600 -18.144400
H -25.510700 -11.447000 -18.653900
36
Fragment
H -25.163300 -8.766200 -20.305300
H -24.795800 -8.769600 -17.912000
H -24.508900 -9.880100 -21.194700
C -24.377300 -9.324600 -20.410600
N -24.232200 -10.189400 -19.221200
C -24.013500 -9.325900 -18.047800
H -23.903300 -9.881500 -17.259900
H -23.796000 -7.080300 -19.290500
N -23.206400 -8.470600 -20.617400
H -23.142600 -11.573600 -20.182200
C -23.022100 -11.002300 -19.408100
C -23.022100 -7.651600 -19.408100
H -22.901700 -11.573600 -18.634000
N -22.837900 -8.470600 -18.198800
H -22.248200 -7.080300 -19.525600
H -22.141000 -9.881500 -21.556300
C -22.030700 -9.325900 -20.768300
N -21.812100 -10.189400 -19.594900
C -21.666900 -9.324600 -18.405500
H -21.535400 -9.880100 -17.621400
H -21.248400 -8.769600 -20.904200
H -20.881000 -8.766200 -18.510900
H -28.423500 -15.590000 -18.686100
H -28.409700 -15.429200 -20.981800
C -27.957900 -14.898900 -19.097500
C -27.945400 -14.805800 -20.471600
O -27.309400 -14.102500 -16.969800
C -27.285600 -13.977200 -18.329000
C -27.256200 -13.807600 -21.084900
H -27.243900 -13.750800 -22.013200
H -26.999900 -13.479100 -16.602200
C -26.593700 -12.951600 -18.952300
C -26.577200 -12.881100 -20.326400
H -26.102900 -12.200300 -20.746700
O -25.964900 -12.054600 -18.144400
H -25.510700 -11.447000 -18.653900
