22
Fragment
H -25.163300 -8.766200 -20.305300
H -24.795800 -8.769600 -17.912000
H -24.508900 -9.880100 -21.194700
C -24.377300 -9.324600 -20.410600
N -24.232200 -10.189400 -19.221200
C -24.013500 -9.325900 -18.047800
H -23.903300 -9.881500 -17.259900
H -23.796000 -7.080300 -19.290500
N -23.206400 -8.470600 -20.617400
H -23.142600 -11.573600 -20.182200
C -23.022100 -11.002300 -19.408100
C -23.022100 -7.651600 -19.408100
H -22.901700 -11.573600 -18.634000
N -22.837900 -8.470600 -18.198800
H -22.248200 -7.080300 -19.525600
H -22.141000 -9.881500 -21.556300
C -22.030700 -9.325900 -20.768300
N -21.812100 -10.189400 -19.594900
C -21.666900 -9.324600 -18.405500
H -21.535400 -9.880100 -17.621400
H -21.248400 -8.769600 -20.904200
H -20.881000 -8.766200 -18.510900
14
Fragment
H -28.810900 -12.500700 -25.707400
O -28.356700 -11.893100 -26.216900
H -28.218700 -11.747400 -23.614600
C -27.744400 -11.066600 -24.035000
C -27.727900 -10.996100 -25.409000
H -27.321700 -10.468600 -27.759100
H -27.077700 -10.196900 -22.348100
C -27.065400 -10.140100 -23.276400
C -27.036000 -9.970500 -26.032300
O -27.012200 -9.845200 -27.391600
C -26.376200 -9.141900 -23.889700
C -26.363700 -9.048800 -25.263800
H -25.911900 -8.518500 -23.379500
H -25.898100 -8.357700 -25.675200
36
Fragment
H -25.163300 -8.766200 -20.305300
H -24.795800 -8.769600 -17.912000
H -24.508900 -9.880100 -21.194700
C -24.377300 -9.324600 -20.410600
N -24.232200 -10.189400 -19.221200
C -24.013500 -9.325900 -18.047800
H -23.903300 -9.881500 -17.259900
H -23.796000 -7.080300 -19.290500
N -23.206400 -8.470600 -20.617400
H -23.142600 -11.573600 -20.182200
C -23.022100 -11.002300 -19.408100
C -23.022100 -7.651600 -19.408100
H -22.901700 -11.573600 -18.634000
N -22.837900 -8.470600 -18.198800
H -22.248200 -7.080300 -19.525600
H -22.141000 -9.881500 -21.556300
C -22.030700 -9.325900 -20.768300
N -21.812100 -10.189400 -19.594900
C -21.666900 -9.324600 -18.405500
H -21.535400 -9.880100 -17.621400
H -21.248400 -8.769600 -20.904200
H -20.881000 -8.766200 -18.510900
H -28.810900 -12.500700 -25.707400
O -28.356700 -11.893100 -26.216900
H -28.218700 -11.747400 -23.614600
C -27.744400 -11.066600 -24.035000
C -27.727900 -10.996100 -25.409000
H -27.321700 -10.468600 -27.759100
H -27.077700 -10.196900 -22.348100
C -27.065400 -10.140100 -23.276400
C -27.036000 -9.970500 -26.032300
O -27.012200 -9.845200 -27.391600
C -26.376200 -9.141900 -23.889700
C -26.363700 -9.048800 -25.263800
H -25.911900 -8.518500 -23.379500
H -25.898100 -8.357700 -25.675200
