20
Fragment
H -21.951300 -8.932000 -17.579000
O -21.480600 -9.582500 -17.332700
C -20.670700 -9.198100 -16.360400
O -20.650000 -8.053500 -15.946700
H -20.353700 -11.111800 -15.711000
C -19.793400 -10.310000 -15.860200
H -19.696000 -9.827300 -13.848800
H -19.133800 -10.533100 -16.564500
C -19.043400 -9.995600 -14.573900
H -18.653800 -11.957200 -14.037500
H -18.509500 -9.171700 -14.700400
C -18.119900 -11.133300 -14.163900
H -18.029500 -10.595800 -12.173400
H -17.467300 -11.301600 -14.889100
C -17.369900 -10.818900 -12.877600
H -16.809600 -10.017100 -13.026900
O -16.513300 -13.075400 -12.791200
C -16.492600 -11.930800 -12.377500
O -15.682700 -11.546400 -11.405200
H -15.212000 -12.196900 -11.158900
20
Fragment
H -15.069900 -11.159000 -14.732000
H -15.069600 -8.624400 -14.304800
O -14.938800 -13.583200 -15.909600
C -14.157500 -13.663800 -14.988500
H -14.102100 -15.457700 -14.906300
C -14.089900 -8.644900 -14.445100
C -14.081500 -11.148200 -14.781500
H -13.922300 -8.567800 -15.417900
O -13.895400 -6.303000 -14.246900
H -13.825600 -11.020400 -15.729200
H -13.805500 -10.108500 -13.008700
O -13.735600 -14.825900 -14.491000
H -13.708700 -12.561100 -13.320000
C -13.549600 -9.980700 -13.956400
C -13.541100 -12.484000 -14.292800
H -13.528900 -5.671200 -13.831500
C -13.473500 -7.465100 -13.749400
O -12.692200 -7.545600 -12.828300
H -12.561400 -12.504500 -14.433100
H -12.561100 -9.969900 -14.005900
40
Fragment
H -21.951300 -8.932000 -17.579000
O -21.480600 -9.582500 -17.332700
C -20.670700 -9.198100 -16.360400
O -20.650000 -8.053500 -15.946700
H -20.353700 -11.111800 -15.711000
C -19.793400 -10.310000 -15.860200
H -19.696000 -9.827300 -13.848800
H -19.133800 -10.533100 -16.564500
C -19.043400 -9.995600 -14.573900
H -18.653800 -11.957200 -14.037500
H -18.509500 -9.171700 -14.700400
C -18.119900 -11.133300 -14.163900
H -18.029500 -10.595800 -12.173400
H -17.467300 -11.301600 -14.889100
C -17.369900 -10.818900 -12.877600
H -16.809600 -10.017100 -13.026900
O -16.513300 -13.075400 -12.791200
C -16.492600 -11.930800 -12.377500
O -15.682700 -11.546400 -11.405200
H -15.212000 -12.196900 -11.158900
H -15.069900 -11.159000 -14.732000
H -15.069600 -8.624400 -14.304800
O -14.938800 -13.583200 -15.909600
C -14.157500 -13.663800 -14.988500
H -14.102100 -15.457700 -14.906300
C -14.089900 -8.644900 -14.445100
C -14.081500 -11.148200 -14.781500
H -13.922300 -8.567800 -15.417900
O -13.895400 -6.303000 -14.246900
H -13.825600 -11.020400 -15.729200
H -13.805500 -10.108500 -13.008700
O -13.735600 -14.825900 -14.491000
H -13.708700 -12.561100 -13.320000
C -13.549600 -9.980700 -13.956400
C -13.541100 -12.484000 -14.292800
H -13.528900 -5.671200 -13.831500
C -13.473500 -7.465100 -13.749400
O -12.692200 -7.545600 -12.828300
H -12.561400 -12.504500 -14.433100
H -12.561100 -9.969900 -14.005900
