52
Fragment
H -37.248700 -11.353300 -23.791200
H -37.071200 -9.895700 -21.917900
C -36.318800 -11.375100 -23.799300
O -36.226600 -9.833200 -21.981400
H -36.183900 -12.561200 -25.346000
C -35.693900 -12.123900 -24.688700
C -35.598900 -10.607800 -22.858600
H -34.702000 -9.034600 -21.023100
H -34.620200 -7.595500 -18.970400
H -34.342000 -6.718700 -20.240400
C -34.319800 -12.258000 -24.653600
C -34.223400 -10.727800 -22.819500
C -33.934200 -7.212900 -19.525000
H -33.885700 -12.822000 -25.248800
N -33.848200 -9.137900 -21.027200
C -33.609000 -11.543200 -23.731800
H -33.388600 -6.623800 -18.998700
C -33.347300 -10.013000 -21.862600
O -33.291500 -9.815900 -18.283400
C -33.069000 -8.327000 -20.104000
H -32.682000 -11.619100 -23.721000
C -32.530700 -9.219500 -19.002700
H -32.315500 -7.927200 -20.588600
O -32.137200 -10.219600 -21.873400
N -31.204300 -9.309400 -18.879900
H -31.190800 -10.827800 -17.604500
H -30.722400 -11.415800 -20.233600
H -30.722000 -8.773200 -19.348200
C -30.530000 -10.238600 -18.022900
O -30.268700 -11.891100 -19.743700
O -29.873500 -9.477500 -17.008000
H -29.781500 -11.003700 -15.738000
C -29.557600 -11.076300 -18.819200
H -29.262400 -12.648300 -17.511400
H -29.218000 -9.151300 -14.486900
C -29.159400 -10.348600 -16.119900
H -28.967400 -10.476500 -19.321300
C -28.708600 -11.958600 -17.933800
C -28.529700 -9.571800 -15.025400
C -28.104300 -11.059000 -16.885200
H -27.971400 -8.873200 -15.401900
O -27.746100 -10.420100 -14.215600
O -27.721600 -12.557300 -18.758500
H -27.511300 -10.405600 -17.314400
O -27.348100 -11.872600 -15.986300
H -26.974800 -12.341700 -18.493900
C -26.763000 -11.057300 -14.955200
H -26.621200 -12.628800 -13.644700
H -26.148600 -10.400000 -15.346600
C -26.005200 -12.019500 -14.055000
H -25.542100 -11.524700 -13.374800
H -25.367100 -12.512600 -14.578700
52
Fragment
H -32.025100 -15.304900 -25.910100
H -31.850100 -14.317000 -27.114000
C -31.387000 -14.811800 -26.433800
H -31.243600 -13.192300 -25.142200
H -30.770900 -15.421000 -26.844100
C -30.629200 -13.849600 -25.533600
H -30.417400 -15.134000 -21.994900
O -30.044100 -14.664900 -24.502500
H -29.880900 -13.197800 -23.174400
O -29.670600 -15.349600 -21.730300
O -29.646000 -13.212400 -26.273200
H -29.420800 -11.665500 -25.086900
C -29.287800 -13.851200 -23.603600
C -28.862500 -12.364100 -25.463400
C -28.683500 -14.750900 -22.555000
H -28.424800 -13.268800 -21.167500
C -28.232700 -13.140900 -24.368900
H -28.174200 -11.943600 -26.001900
H -28.129800 -15.440600 -22.977400
C -27.834600 -13.868500 -21.669600
H -27.610700 -13.795900 -24.750800
O -27.518700 -12.269700 -23.480800
O -27.123500 -14.683300 -20.745100
C -26.862200 -13.030900 -22.465900
H -26.670200 -11.565500 -21.140600
H -26.669800 -14.208100 -20.255200
H -26.201400 -13.620000 -22.884300
N -26.187900 -12.101600 -21.608900
O -25.255000 -13.011900 -18.615400
H -25.076600 -10.719400 -19.900200
C -24.861500 -12.011700 -21.486100
H -24.710200 -14.411400 -16.767800
C -24.323100 -11.119300 -20.384800
O -24.100700 -12.608100 -22.205400
C -24.044900 -12.805300 -18.626200
H -24.003600 -9.416000 -21.490100
C -23.783200 -14.335400 -16.757000
N -23.544000 -11.930200 -19.461600
H -23.506400 -15.614300 -15.240000
C -23.457900 -10.005200 -20.963800
C -23.168800 -13.520100 -17.669300
C -23.072400 -15.050200 -15.835200
H -23.050200 -9.511000 -20.248400
H -22.772000 -10.387700 -21.518400
H -22.690200 -11.826900 -19.465700
C -21.793300 -13.400000 -17.630200
C -21.698300 -14.916200 -15.800100
H -21.208300 -15.353500 -15.142800
O -21.165600 -12.625400 -18.507400
C -21.073400 -14.167300 -16.689500
H -20.321000 -12.688000 -18.570900
H -20.143400 -14.145500 -16.697600
104
Fragment
H -37.248700 -11.353300 -23.791200
H -37.071200 -9.895700 -21.917900
C -36.318800 -11.375100 -23.799300
O -36.226600 -9.833200 -21.981400
H -36.183900 -12.561200 -25.346000
C -35.693900 -12.123900 -24.688700
C -35.598900 -10.607800 -22.858600
H -34.702000 -9.034600 -21.023100
H -34.620200 -7.595500 -18.970400
H -34.342000 -6.718700 -20.240400
C -34.319800 -12.258000 -24.653600
C -34.223400 -10.727800 -22.819500
C -33.934200 -7.212900 -19.525000
H -33.885700 -12.822000 -25.248800
N -33.848200 -9.137900 -21.027200
C -33.609000 -11.543200 -23.731800
H -33.388600 -6.623800 -18.998700
C -33.347300 -10.013000 -21.862600
O -33.291500 -9.815900 -18.283400
C -33.069000 -8.327000 -20.104000
H -32.682000 -11.619100 -23.721000
C -32.530700 -9.219500 -19.002700
H -32.315500 -7.927200 -20.588600
O -32.137200 -10.219600 -21.873400
N -31.204300 -9.309400 -18.879900
H -31.190800 -10.827800 -17.604500
H -30.722400 -11.415800 -20.233600
H -30.722000 -8.773200 -19.348200
C -30.530000 -10.238600 -18.022900
O -30.268700 -11.891100 -19.743700
O -29.873500 -9.477500 -17.008000
H -29.781500 -11.003700 -15.738000
C -29.557600 -11.076300 -18.819200
H -29.262400 -12.648300 -17.511400
H -29.218000 -9.151300 -14.486900
C -29.159400 -10.348600 -16.119900
H -28.967400 -10.476500 -19.321300
C -28.708600 -11.958600 -17.933800
C -28.529700 -9.571800 -15.025400
C -28.104300 -11.059000 -16.885200
H -27.971400 -8.873200 -15.401900
O -27.746100 -10.420100 -14.215600
O -27.721600 -12.557300 -18.758500
H -27.511300 -10.405600 -17.314400
O -27.348100 -11.872600 -15.986300
H -26.974800 -12.341700 -18.493900
C -26.763000 -11.057300 -14.955200
H -26.621200 -12.628800 -13.644700
H -26.148600 -10.400000 -15.346600
C -26.005200 -12.019500 -14.055000
H -25.542100 -11.524700 -13.374800
H -25.367100 -12.512600 -14.578700
H -32.025100 -15.304900 -25.910100
H -31.850100 -14.317000 -27.114000
C -31.387000 -14.811800 -26.433800
H -31.243600 -13.192300 -25.142200
H -30.770900 -15.421000 -26.844100
C -30.629200 -13.849600 -25.533600
H -30.417400 -15.134000 -21.994900
O -30.044100 -14.664900 -24.502500
H -29.880900 -13.197800 -23.174400
O -29.670600 -15.349600 -21.730300
O -29.646000 -13.212400 -26.273200
H -29.420800 -11.665500 -25.086900
C -29.287800 -13.851200 -23.603600
C -28.862500 -12.364100 -25.463400
C -28.683500 -14.750900 -22.555000
H -28.424800 -13.268800 -21.167500
C -28.232700 -13.140900 -24.368900
H -28.174200 -11.943600 -26.001900
H -28.129800 -15.440600 -22.977400
C -27.834600 -13.868500 -21.669600
H -27.610700 -13.795900 -24.750800
O -27.518700 -12.269700 -23.480800
O -27.123500 -14.683300 -20.745100
C -26.862200 -13.030900 -22.465900
H -26.670200 -11.565500 -21.140600
H -26.669800 -14.208100 -20.255200
H -26.201400 -13.620000 -22.884300
N -26.187900 -12.101600 -21.608900
O -25.255000 -13.011900 -18.615400
H -25.076600 -10.719400 -19.900200
C -24.861500 -12.011700 -21.486100
H -24.710200 -14.411400 -16.767800
C -24.323100 -11.119300 -20.384800
O -24.100700 -12.608100 -22.205400
C -24.044900 -12.805300 -18.626200
H -24.003600 -9.416000 -21.490100
C -23.783200 -14.335400 -16.757000
N -23.544000 -11.930200 -19.461600
H -23.506400 -15.614300 -15.240000
C -23.457900 -10.005200 -20.963800
C -23.168800 -13.520100 -17.669300
C -23.072400 -15.050200 -15.835200
H -23.050200 -9.511000 -20.248400
H -22.772000 -10.387700 -21.518400
H -22.690200 -11.826900 -19.465700
C -21.793300 -13.400000 -17.630200
C -21.698300 -14.916200 -15.800100
H -21.208300 -15.353500 -15.142800
O -21.165600 -12.625400 -18.507400
C -21.073400 -14.167300 -16.689500
H -20.321000 -12.688000 -18.570900
H -20.143400 -14.145500 -16.697600
