22
Fragment
H -16.345000 -11.736600 -27.568700
H -15.894600 -10.692300 -29.498500
H -15.574700 -12.543400 -25.285500
C -15.501500 -11.368100 -27.700600
C -15.233700 -10.746400 -28.846900
C -14.751500 -12.139600 -25.443700
C -14.516000 -11.482600 -26.661900
H -14.288100 -9.441800 -30.985000
C -13.955300 -10.159200 -29.100500
H -13.937600 -12.606900 -23.688200
C -13.787400 -12.185900 -24.503900
C -13.648300 -9.510800 -30.313200
C -13.239000 -10.907100 -26.861600
C -12.950000 -10.239200 -28.115700
C -12.558700 -11.590000 -24.782200
C -12.412800 -8.991000 -30.491600
N -12.271800 -10.967500 -25.911800
H -12.194700 -8.552000 -31.281100
H -11.897900 -11.633100 -24.129600
N -11.712300 -9.711500 -28.322300
C -11.480600 -9.122700 -29.480700
H -10.631100 -8.773100 -29.626500
22
Fragment
H -15.589600 -7.863600 -37.122000
H -15.139200 -8.907900 -39.051700
H -14.819300 -7.056900 -34.838700
C -14.746100 -8.232100 -37.253800
C -14.478400 -8.853800 -38.400200
C -13.996100 -7.460600 -34.996900
C -13.760700 -8.117600 -36.215200
H -13.532700 -10.158400 -40.538200
C -13.200000 -9.441000 -38.653700
H -13.182200 -6.993400 -33.241400
C -13.032100 -7.414400 -34.057100
C -12.892900 -10.089400 -39.866400
C -12.483600 -8.693100 -36.414800
C -12.194700 -9.361100 -37.669000
C -11.803300 -8.010200 -34.335500
C -11.657400 -10.609200 -40.044900
N -11.516400 -8.632700 -35.465000
H -11.439300 -11.048300 -40.834300
H -11.142500 -7.967100 -33.682800
N -10.957000 -9.888700 -37.875500
C -10.725200 -10.477500 -39.033900
H -9.875800 -10.827200 -39.179700
44
Fragment
H -16.345000 -11.736600 -27.568700
H -15.894600 -10.692300 -29.498500
H -15.574700 -12.543400 -25.285500
C -15.501500 -11.368100 -27.700600
C -15.233700 -10.746400 -28.846900
C -14.751500 -12.139600 -25.443700
C -14.516000 -11.482600 -26.661900
H -14.288100 -9.441800 -30.985000
C -13.955300 -10.159200 -29.100500
H -13.937600 -12.606900 -23.688200
C -13.787400 -12.185900 -24.503900
C -13.648300 -9.510800 -30.313200
C -13.239000 -10.907100 -26.861600
C -12.950000 -10.239200 -28.115700
C -12.558700 -11.590000 -24.782200
C -12.412800 -8.991000 -30.491600
N -12.271800 -10.967500 -25.911800
H -12.194700 -8.552000 -31.281100
H -11.897900 -11.633100 -24.129600
N -11.712300 -9.711500 -28.322300
C -11.480600 -9.122700 -29.480700
H -10.631100 -8.773100 -29.626500
H -15.589600 -7.863600 -37.122000
H -15.139200 -8.907900 -39.051700
H -14.819300 -7.056900 -34.838700
C -14.746100 -8.232100 -37.253800
C -14.478400 -8.853800 -38.400200
C -13.996100 -7.460600 -34.996900
C -13.760700 -8.117600 -36.215200
H -13.532700 -10.158400 -40.538200
C -13.200000 -9.441000 -38.653700
H -13.182200 -6.993400 -33.241400
C -13.032100 -7.414400 -34.057100
C -12.892900 -10.089400 -39.866400
C -12.483600 -8.693100 -36.414800
C -12.194700 -9.361100 -37.669000
C -11.803300 -8.010200 -34.335500
C -11.657400 -10.609200 -40.044900
N -11.516400 -8.632700 -35.465000
H -11.439300 -11.048300 -40.834300
H -11.142500 -7.967100 -33.682800
N -10.957000 -9.888700 -37.875500
C -10.725200 -10.477500 -39.033900
H -9.875800 -10.827200 -39.179700
