22
Fragment
H -16.345000 -11.736600 -27.568700
H -15.894600 -10.692300 -29.498500
H -15.574700 -12.543400 -25.285500
C -15.501500 -11.368100 -27.700600
C -15.233700 -10.746400 -28.846900
C -14.751500 -12.139600 -25.443700
C -14.516000 -11.482600 -26.661900
H -14.288100 -9.441800 -30.985000
C -13.955300 -10.159200 -29.100500
H -13.937600 -12.606900 -23.688200
C -13.787400 -12.185900 -24.503900
C -13.648300 -9.510800 -30.313200
C -13.239000 -10.907100 -26.861600
C -12.950000 -10.239200 -28.115700
C -12.558700 -11.590000 -24.782200
C -12.412800 -8.991000 -30.491600
N -12.271800 -10.967500 -25.911800
H -12.194700 -8.552000 -31.281100
H -11.897900 -11.633100 -24.129600
N -11.712300 -9.711500 -28.322300
C -11.480600 -9.122700 -29.480700
H -10.631100 -8.773100 -29.626500
22
Fragment
H -23.764600 -14.747200 -27.692900
C -22.915100 -14.397600 -27.838700
N -22.683400 -13.808800 -28.997100
H -22.497800 -11.887200 -33.189800
H -22.201100 -14.968300 -26.038300
N -22.123900 -12.552800 -31.407600
C -21.982900 -14.529300 -26.827800
C -21.837100 -11.930300 -32.537200
C -21.445700 -13.281100 -29.203700
C -21.156800 -12.613200 -30.457800
C -20.747500 -14.009500 -27.006200
C -20.608300 -11.334400 -32.815500
H -20.458200 -10.913400 -33.631200
C -20.440400 -13.361100 -28.218900
H -20.107700 -14.078500 -26.334400
C -19.879700 -12.037700 -30.657500
C -19.644200 -11.380700 -31.875700
C -19.162000 -12.773900 -28.472500
C -18.894200 -12.152200 -29.618800
H -18.821000 -10.976900 -32.033900
H -18.501100 -12.828000 -27.820900
H -18.050700 -11.783700 -29.750700
44
Fragment
H -16.345000 -11.736600 -27.568700
H -15.894600 -10.692300 -29.498500
H -15.574700 -12.543400 -25.285500
C -15.501500 -11.368100 -27.700600
C -15.233700 -10.746400 -28.846900
C -14.751500 -12.139600 -25.443700
C -14.516000 -11.482600 -26.661900
H -14.288100 -9.441800 -30.985000
C -13.955300 -10.159200 -29.100500
H -13.937600 -12.606900 -23.688200
C -13.787400 -12.185900 -24.503900
C -13.648300 -9.510800 -30.313200
C -13.239000 -10.907100 -26.861600
C -12.950000 -10.239200 -28.115700
C -12.558700 -11.590000 -24.782200
C -12.412800 -8.991000 -30.491600
N -12.271800 -10.967500 -25.911800
H -12.194700 -8.552000 -31.281100
H -11.897900 -11.633100 -24.129600
N -11.712300 -9.711500 -28.322300
C -11.480600 -9.122700 -29.480700
H -10.631100 -8.773100 -29.626500
H -23.764600 -14.747200 -27.692900
C -22.915100 -14.397600 -27.838700
N -22.683400 -13.808800 -28.997100
H -22.497800 -11.887200 -33.189800
H -22.201100 -14.968300 -26.038300
N -22.123900 -12.552800 -31.407600
C -21.982900 -14.529300 -26.827800
C -21.837100 -11.930300 -32.537200
C -21.445700 -13.281100 -29.203700
C -21.156800 -12.613200 -30.457800
C -20.747500 -14.009500 -27.006200
C -20.608300 -11.334400 -32.815500
H -20.458200 -10.913400 -33.631200
C -20.440400 -13.361100 -28.218900
H -20.107700 -14.078500 -26.334400
C -19.879700 -12.037700 -30.657500
C -19.644200 -11.380700 -31.875700
C -19.162000 -12.773900 -28.472500
C -18.894200 -12.152200 -29.618800
H -18.821000 -10.976900 -32.033900
H -18.501100 -12.828000 -27.820900
H -18.050700 -11.783700 -29.750700
