22
Fragment
H -16.345000 -11.736600 -27.568700
H -15.894600 -10.692300 -29.498500
H -15.574700 -12.543400 -25.285500
C -15.501500 -11.368100 -27.700600
C -15.233700 -10.746400 -28.846900
C -14.751500 -12.139600 -25.443700
C -14.516000 -11.482600 -26.661900
H -14.288100 -9.441800 -30.985000
C -13.955300 -10.159200 -29.100500
H -13.937600 -12.606900 -23.688200
C -13.787400 -12.185900 -24.503900
C -13.648300 -9.510800 -30.313200
C -13.239000 -10.907100 -26.861600
C -12.950000 -10.239200 -28.115700
C -12.558700 -11.590000 -24.782200
C -12.412800 -8.991000 -30.491600
N -12.271800 -10.967500 -25.911800
H -12.194700 -8.552000 -31.281100
H -11.897900 -11.633100 -24.129600
N -11.712300 -9.711500 -28.322300
C -11.480600 -9.122700 -29.480700
H -10.631100 -8.773100 -29.626500
14
Fragment
H -20.067000 -10.482200 -25.728800
H -19.638300 -9.321900 -27.457900
N -19.218000 -10.334800 -25.425200
H -18.935400 -10.693900 -24.655000
N -18.828300 -9.077300 -27.227900
C -18.406300 -9.522600 -26.066400
H -18.211100 -8.530000 -27.660400
O -17.330200 -10.454000 -23.687800
C -17.132700 -9.136100 -25.520900
N -16.699300 -9.590800 -24.256600
O -16.614300 -7.767200 -27.251700
N -16.297000 -8.210200 -26.157300
O -15.717700 -9.179200 -23.736200
O -15.286600 -7.827600 -25.655000
36
Fragment
H -16.345000 -11.736600 -27.568700
H -15.894600 -10.692300 -29.498500
H -15.574700 -12.543400 -25.285500
C -15.501500 -11.368100 -27.700600
C -15.233700 -10.746400 -28.846900
C -14.751500 -12.139600 -25.443700
C -14.516000 -11.482600 -26.661900
H -14.288100 -9.441800 -30.985000
C -13.955300 -10.159200 -29.100500
H -13.937600 -12.606900 -23.688200
C -13.787400 -12.185900 -24.503900
C -13.648300 -9.510800 -30.313200
C -13.239000 -10.907100 -26.861600
C -12.950000 -10.239200 -28.115700
C -12.558700 -11.590000 -24.782200
C -12.412800 -8.991000 -30.491600
N -12.271800 -10.967500 -25.911800
H -12.194700 -8.552000 -31.281100
H -11.897900 -11.633100 -24.129600
N -11.712300 -9.711500 -28.322300
C -11.480600 -9.122700 -29.480700
H -10.631100 -8.773100 -29.626500
H -20.067000 -10.482200 -25.728800
H -19.638300 -9.321900 -27.457900
N -19.218000 -10.334800 -25.425200
H -18.935400 -10.693900 -24.655000
N -18.828300 -9.077300 -27.227900
C -18.406300 -9.522600 -26.066400
H -18.211100 -8.530000 -27.660400
O -17.330200 -10.454000 -23.687800
C -17.132700 -9.136100 -25.520900
N -16.699300 -9.590800 -24.256600
O -16.614300 -7.767200 -27.251700
N -16.297000 -8.210200 -26.157300
O -15.717700 -9.179200 -23.736200
O -15.286600 -7.827600 -25.655000
