22
Fragment
H -16.345000 -11.736600 -27.568700
H -15.894600 -10.692300 -29.498500
H -15.574700 -12.543400 -25.285500
C -15.501500 -11.368100 -27.700600
C -15.233700 -10.746400 -28.846900
C -14.751500 -12.139600 -25.443700
C -14.516000 -11.482600 -26.661900
H -14.288100 -9.441800 -30.985000
C -13.955300 -10.159200 -29.100500
H -13.937600 -12.606900 -23.688200
C -13.787400 -12.185900 -24.503900
C -13.648300 -9.510800 -30.313200
C -13.239000 -10.907100 -26.861600
C -12.950000 -10.239200 -28.115700
C -12.558700 -11.590000 -24.782200
C -12.412800 -8.991000 -30.491600
N -12.271800 -10.967500 -25.911800
H -12.194700 -8.552000 -31.281100
H -11.897900 -11.633100 -24.129600
N -11.712300 -9.711500 -28.322300
C -11.480600 -9.122700 -29.480700
H -10.631100 -8.773100 -29.626500
14
Fragment
O -9.377100 -7.852600 -31.664400
O -8.946100 -6.501000 -33.583200
N -8.366700 -7.470000 -31.162100
O -8.049400 -7.913000 -30.067700
N -7.964400 -6.089400 -33.062800
C -7.531000 -6.544100 -31.798500
O -7.333600 -5.226200 -33.631600
H -6.452600 -7.150200 -29.659000
C -6.257400 -6.157600 -31.253000
N -5.835400 -6.602900 -30.091500
H -5.728300 -4.986300 -32.664400
N -5.445700 -5.345400 -31.894200
H -5.025400 -6.358300 -29.861500
H -4.596700 -5.198000 -31.590600
36
Fragment
H -16.345000 -11.736600 -27.568700
H -15.894600 -10.692300 -29.498500
H -15.574700 -12.543400 -25.285500
C -15.501500 -11.368100 -27.700600
C -15.233700 -10.746400 -28.846900
C -14.751500 -12.139600 -25.443700
C -14.516000 -11.482600 -26.661900
H -14.288100 -9.441800 -30.985000
C -13.955300 -10.159200 -29.100500
H -13.937600 -12.606900 -23.688200
C -13.787400 -12.185900 -24.503900
C -13.648300 -9.510800 -30.313200
C -13.239000 -10.907100 -26.861600
C -12.950000 -10.239200 -28.115700
C -12.558700 -11.590000 -24.782200
C -12.412800 -8.991000 -30.491600
N -12.271800 -10.967500 -25.911800
H -12.194700 -8.552000 -31.281100
H -11.897900 -11.633100 -24.129600
N -11.712300 -9.711500 -28.322300
C -11.480600 -9.122700 -29.480700
H -10.631100 -8.773100 -29.626500
O -9.377100 -7.852600 -31.664400
O -8.946100 -6.501000 -33.583200
N -8.366700 -7.470000 -31.162100
O -8.049400 -7.913000 -30.067700
N -7.964400 -6.089400 -33.062800
C -7.531000 -6.544100 -31.798500
O -7.333600 -5.226200 -33.631600
H -6.452600 -7.150200 -29.659000
C -6.257400 -6.157600 -31.253000
N -5.835400 -6.602900 -30.091500
H -5.728300 -4.986300 -32.664400
N -5.445700 -5.345400 -31.894200
H -5.025400 -6.358300 -29.861500
H -4.596700 -5.198000 -31.590600
