22
Fragment
H -16.345000 -11.736600 -27.568700
H -15.894600 -10.692300 -29.498500
H -15.574700 -12.543400 -25.285500
C -15.501500 -11.368100 -27.700600
C -15.233700 -10.746400 -28.846900
C -14.751500 -12.139600 -25.443700
C -14.516000 -11.482600 -26.661900
H -14.288100 -9.441800 -30.985000
C -13.955300 -10.159200 -29.100500
H -13.937600 -12.606900 -23.688200
C -13.787400 -12.185900 -24.503900
C -13.648300 -9.510800 -30.313200
C -13.239000 -10.907100 -26.861600
C -12.950000 -10.239200 -28.115700
C -12.558700 -11.590000 -24.782200
C -12.412800 -8.991000 -30.491600
N -12.271800 -10.967500 -25.911800
H -12.194700 -8.552000 -31.281100
H -11.897900 -11.633100 -24.129600
N -11.712300 -9.711500 -28.322300
C -11.480600 -9.122700 -29.480700
H -10.631100 -8.773100 -29.626500
14
Fragment
O -19.864500 -11.747600 -22.111100
O -19.433500 -13.099200 -24.030000
N -18.854100 -12.130200 -21.608800
O -18.536800 -11.687200 -20.514400
N -18.451800 -13.510800 -23.509500
C -18.018400 -13.056100 -22.245300
O -17.820900 -14.374000 -24.078300
H -16.940000 -12.450100 -20.105700
C -16.744800 -13.442600 -21.699800
N -16.322800 -12.997300 -20.538300
H -16.215700 -14.613900 -23.111200
N -15.933100 -14.254900 -22.341000
H -15.512800 -13.241900 -20.308300
H -15.084100 -14.402300 -22.037400
36
Fragment
H -16.345000 -11.736600 -27.568700
H -15.894600 -10.692300 -29.498500
H -15.574700 -12.543400 -25.285500
C -15.501500 -11.368100 -27.700600
C -15.233700 -10.746400 -28.846900
C -14.751500 -12.139600 -25.443700
C -14.516000 -11.482600 -26.661900
H -14.288100 -9.441800 -30.985000
C -13.955300 -10.159200 -29.100500
H -13.937600 -12.606900 -23.688200
C -13.787400 -12.185900 -24.503900
C -13.648300 -9.510800 -30.313200
C -13.239000 -10.907100 -26.861600
C -12.950000 -10.239200 -28.115700
C -12.558700 -11.590000 -24.782200
C -12.412800 -8.991000 -30.491600
N -12.271800 -10.967500 -25.911800
H -12.194700 -8.552000 -31.281100
H -11.897900 -11.633100 -24.129600
N -11.712300 -9.711500 -28.322300
C -11.480600 -9.122700 -29.480700
H -10.631100 -8.773100 -29.626500
O -19.864500 -11.747600 -22.111100
O -19.433500 -13.099200 -24.030000
N -18.854100 -12.130200 -21.608800
O -18.536800 -11.687200 -20.514400
N -18.451800 -13.510800 -23.509500
C -18.018400 -13.056100 -22.245300
O -17.820900 -14.374000 -24.078300
H -16.940000 -12.450100 -20.105700
C -16.744800 -13.442600 -21.699800
N -16.322800 -12.997300 -20.538300
H -16.215700 -14.613900 -23.111200
N -15.933100 -14.254900 -22.341000
H -15.512800 -13.241900 -20.308300
H -15.084100 -14.402300 -22.037400
