22
Fragment
H -16.345000 -11.736600 -27.568700
H -15.894600 -10.692300 -29.498500
H -15.574700 -12.543400 -25.285500
C -15.501500 -11.368100 -27.700600
C -15.233700 -10.746400 -28.846900
C -14.751500 -12.139600 -25.443700
C -14.516000 -11.482600 -26.661900
H -14.288100 -9.441800 -30.985000
C -13.955300 -10.159200 -29.100500
H -13.937600 -12.606900 -23.688200
C -13.787400 -12.185900 -24.503900
C -13.648300 -9.510800 -30.313200
C -13.239000 -10.907100 -26.861600
C -12.950000 -10.239200 -28.115700
C -12.558700 -11.590000 -24.782200
C -12.412800 -8.991000 -30.491600
N -12.271800 -10.967500 -25.911800
H -12.194700 -8.552000 -31.281100
H -11.897900 -11.633100 -24.129600
N -11.712300 -9.711500 -28.322300
C -11.480600 -9.122700 -29.480700
H -10.631100 -8.773100 -29.626500
22
Fragment
H -14.788000 -4.853000 -18.139700
C -13.938500 -5.202700 -18.285500
N -13.706800 -5.791500 -19.443900
H -13.521200 -7.713100 -23.636600
H -13.224400 -4.631900 -16.485100
N -13.147300 -7.047500 -21.854400
C -13.006300 -5.071000 -17.274500
C -12.860500 -7.670000 -22.983900
C -12.469100 -6.319100 -19.650400
C -12.180100 -6.987100 -20.904600
C -11.770800 -5.590800 -17.453000
C -11.631700 -8.265800 -23.262300
H -11.481500 -8.686800 -24.078000
C -11.463800 -6.239200 -18.665700
H -11.131000 -5.521800 -16.781200
C -10.903100 -7.562600 -21.104200
C -10.667600 -8.219600 -22.322500
C -10.185400 -6.826400 -18.919200
C -9.917600 -7.448100 -20.065600
H -9.844400 -8.623300 -22.480700
H -9.524500 -6.772300 -18.267700
H -9.074100 -7.816600 -20.197400
44
Fragment
H -16.345000 -11.736600 -27.568700
H -15.894600 -10.692300 -29.498500
H -15.574700 -12.543400 -25.285500
C -15.501500 -11.368100 -27.700600
C -15.233700 -10.746400 -28.846900
C -14.751500 -12.139600 -25.443700
C -14.516000 -11.482600 -26.661900
H -14.288100 -9.441800 -30.985000
C -13.955300 -10.159200 -29.100500
H -13.937600 -12.606900 -23.688200
C -13.787400 -12.185900 -24.503900
C -13.648300 -9.510800 -30.313200
C -13.239000 -10.907100 -26.861600
C -12.950000 -10.239200 -28.115700
C -12.558700 -11.590000 -24.782200
C -12.412800 -8.991000 -30.491600
N -12.271800 -10.967500 -25.911800
H -12.194700 -8.552000 -31.281100
H -11.897900 -11.633100 -24.129600
N -11.712300 -9.711500 -28.322300
C -11.480600 -9.122700 -29.480700
H -10.631100 -8.773100 -29.626500
H -14.788000 -4.853000 -18.139700
C -13.938500 -5.202700 -18.285500
N -13.706800 -5.791500 -19.443900
H -13.521200 -7.713100 -23.636600
H -13.224400 -4.631900 -16.485100
N -13.147300 -7.047500 -21.854400
C -13.006300 -5.071000 -17.274500
C -12.860500 -7.670000 -22.983900
C -12.469100 -6.319100 -19.650400
C -12.180100 -6.987100 -20.904600
C -11.770800 -5.590800 -17.453000
C -11.631700 -8.265800 -23.262300
H -11.481500 -8.686800 -24.078000
C -11.463800 -6.239200 -18.665700
H -11.131000 -5.521800 -16.781200
C -10.903100 -7.562600 -21.104200
C -10.667600 -8.219600 -22.322500
C -10.185400 -6.826400 -18.919200
C -9.917600 -7.448100 -20.065600
H -9.844400 -8.623300 -22.480700
H -9.524500 -6.772300 -18.267700
H -9.074100 -7.816600 -20.197400
