30
Fragment
H -8.857200 -0.497000 -16.042900
H -8.812500 -1.611200 -13.886500
C -8.507300 -1.479200 -15.973000
C -8.473800 -2.123100 -14.746000
H -8.119200 -1.638500 -18.033100
C -8.098100 -2.132800 -17.103800
C -8.051100 -3.414100 -14.640700
H -8.033500 -3.868200 -13.698600
C -7.630500 -3.462500 -17.042100
C -7.604900 -4.108700 -15.796900
H -7.513600 -2.603000 -19.610500
C -7.191200 -3.589400 -19.502500
C -7.174800 -4.185800 -18.226400
C -7.141400 -5.444700 -15.708000
H -7.129000 -5.896900 -14.767700
H -6.764900 -3.803800 -21.534500
C -6.752500 -4.256000 -20.594200
C -6.719100 -5.514900 -18.075800
C -6.702700 -6.111400 -16.799800
H -6.380300 -7.097800 -16.691800
C -6.289000 -5.592000 -20.505300
C -6.263400 -6.238200 -19.260100
H -5.860400 -5.832600 -22.603600
C -5.842800 -6.286700 -21.661500
C -5.795800 -7.568000 -19.198400
H -5.774700 -8.062200 -18.269100
C -5.420100 -7.577600 -21.556300
C -5.386600 -8.221500 -20.329200
H -5.081400 -8.089600 -22.415700
H -5.036800 -9.203700 -20.259400
30
Fragment
H -8.500900 -6.914600 -25.118400
H -8.456200 -8.028700 -22.962100
C -8.151000 -7.896800 -25.048500
C -8.117500 -8.540700 -23.821500
H -7.763000 -8.056100 -27.108700
C -7.741800 -8.550300 -26.179300
C -7.694800 -9.831600 -23.716200
H -7.677200 -10.285700 -22.774200
C -7.274200 -9.880100 -26.117600
C -7.248700 -10.526300 -24.872500
H -7.157300 -9.020500 -28.686000
C -6.834900 -10.006900 -28.578000
C -6.818500 -10.603400 -27.302000
C -6.785200 -11.862300 -24.783500
H -6.772700 -12.314500 -23.843300
H -6.408600 -10.221400 -30.610000
C -6.396200 -10.673600 -29.669800
C -6.362800 -11.932500 -27.151300
C -6.346400 -12.528900 -25.875300
H -6.024100 -13.515300 -25.767300
C -5.932700 -12.009600 -29.580900
C -5.907200 -12.655800 -28.335700
H -5.504100 -12.250100 -31.679100
C -5.486500 -12.704200 -30.737100
C -5.439500 -13.985500 -28.274000
H -5.418400 -14.479800 -27.344600
C -5.063800 -13.995200 -30.631800
C -5.030400 -14.639100 -29.404800
H -4.725200 -14.507100 -31.491300
H -4.680500 -15.621300 -29.334900
60
Fragment
H -8.857200 -0.497000 -16.042900
H -8.812500 -1.611200 -13.886500
C -8.507300 -1.479200 -15.973000
C -8.473800 -2.123100 -14.746000
H -8.119200 -1.638500 -18.033100
C -8.098100 -2.132800 -17.103800
C -8.051100 -3.414100 -14.640700
H -8.033500 -3.868200 -13.698600
C -7.630500 -3.462500 -17.042100
C -7.604900 -4.108700 -15.796900
H -7.513600 -2.603000 -19.610500
C -7.191200 -3.589400 -19.502500
C -7.174800 -4.185800 -18.226400
C -7.141400 -5.444700 -15.708000
H -7.129000 -5.896900 -14.767700
H -6.764900 -3.803800 -21.534500
C -6.752500 -4.256000 -20.594200
C -6.719100 -5.514900 -18.075800
C -6.702700 -6.111400 -16.799800
H -6.380300 -7.097800 -16.691800
C -6.289000 -5.592000 -20.505300
C -6.263400 -6.238200 -19.260100
H -5.860400 -5.832600 -22.603600
C -5.842800 -6.286700 -21.661500
C -5.795800 -7.568000 -19.198400
H -5.774700 -8.062200 -18.269100
C -5.420100 -7.577600 -21.556300
C -5.386600 -8.221500 -20.329200
H -5.081400 -8.089600 -22.415700
H -5.036800 -9.203700 -20.259400
H -8.500900 -6.914600 -25.118400
H -8.456200 -8.028700 -22.962100
C -8.151000 -7.896800 -25.048500
C -8.117500 -8.540700 -23.821500
H -7.763000 -8.056100 -27.108700
C -7.741800 -8.550300 -26.179300
C -7.694800 -9.831600 -23.716200
H -7.677200 -10.285700 -22.774200
C -7.274200 -9.880100 -26.117600
C -7.248700 -10.526300 -24.872500
H -7.157300 -9.020500 -28.686000
C -6.834900 -10.006900 -28.578000
C -6.818500 -10.603400 -27.302000
C -6.785200 -11.862300 -24.783500
H -6.772700 -12.314500 -23.843300
H -6.408600 -10.221400 -30.610000
C -6.396200 -10.673600 -29.669800
C -6.362800 -11.932500 -27.151300
C -6.346400 -12.528900 -25.875300
H -6.024100 -13.515300 -25.767300
C -5.932700 -12.009600 -29.580900
C -5.907200 -12.655800 -28.335700
H -5.504100 -12.250100 -31.679100
C -5.486500 -12.704200 -30.737100
C -5.439500 -13.985500 -28.274000
H -5.418400 -14.479800 -27.344600
C -5.063800 -13.995200 -30.631800
C -5.030400 -14.639100 -29.404800
H -4.725200 -14.507100 -31.491300
H -4.680500 -15.621300 -29.334900
