30
Fragment
H -8.857200 -0.497000 -16.042900
H -8.812500 -1.611200 -13.886500
C -8.507300 -1.479200 -15.973000
C -8.473800 -2.123100 -14.746000
H -8.119200 -1.638500 -18.033100
C -8.098100 -2.132800 -17.103800
C -8.051100 -3.414100 -14.640700
H -8.033500 -3.868200 -13.698600
C -7.630500 -3.462500 -17.042100
C -7.604900 -4.108700 -15.796900
H -7.513600 -2.603000 -19.610500
C -7.191200 -3.589400 -19.502500
C -7.174800 -4.185800 -18.226400
C -7.141400 -5.444700 -15.708000
H -7.129000 -5.896900 -14.767700
H -6.764900 -3.803800 -21.534500
C -6.752500 -4.256000 -20.594200
C -6.719100 -5.514900 -18.075800
C -6.702700 -6.111400 -16.799800
H -6.380300 -7.097800 -16.691800
C -6.289000 -5.592000 -20.505300
C -6.263400 -6.238200 -19.260100
H -5.860400 -5.832600 -22.603600
C -5.842800 -6.286700 -21.661500
C -5.795800 -7.568000 -19.198400
H -5.774700 -8.062200 -18.269100
C -5.420100 -7.577600 -21.556300
C -5.386600 -8.221500 -20.329200
H -5.081400 -8.089600 -22.415700
H -5.036800 -9.203700 -20.259400
20
Fragment
N -12.453900 5.504700 -7.060800
C -12.162800 4.408000 -6.975500
N -11.931200 2.072800 -4.489700
C -11.853800 2.479000 -5.551500
C -11.775200 3.035700 -6.861100
H -11.565300 3.903600 -9.395000
C -11.348500 2.305300 -7.958400
C -11.316000 2.898600 -9.262500
H -11.012200 0.477900 -6.873800
C -10.957400 0.934100 -7.818600
C -10.904100 2.200300 -10.332500
H -10.849200 2.656400 -11.277300
C -10.545400 0.235800 -8.888600
C -10.513000 0.829100 -10.192800
H -10.296200 -0.769200 -8.756100
C -10.086200 0.098700 -11.290000
C -10.007600 0.655400 -12.599600
N -9.930200 1.061600 -13.661400
C -9.698600 -1.273600 -11.175600
N -9.407600 -2.370300 -11.090300
50
Fragment
H -8.857200 -0.497000 -16.042900
H -8.812500 -1.611200 -13.886500
C -8.507300 -1.479200 -15.973000
C -8.473800 -2.123100 -14.746000
H -8.119200 -1.638500 -18.033100
C -8.098100 -2.132800 -17.103800
C -8.051100 -3.414100 -14.640700
H -8.033500 -3.868200 -13.698600
C -7.630500 -3.462500 -17.042100
C -7.604900 -4.108700 -15.796900
H -7.513600 -2.603000 -19.610500
C -7.191200 -3.589400 -19.502500
C -7.174800 -4.185800 -18.226400
C -7.141400 -5.444700 -15.708000
H -7.129000 -5.896900 -14.767700
H -6.764900 -3.803800 -21.534500
C -6.752500 -4.256000 -20.594200
C -6.719100 -5.514900 -18.075800
C -6.702700 -6.111400 -16.799800
H -6.380300 -7.097800 -16.691800
C -6.289000 -5.592000 -20.505300
C -6.263400 -6.238200 -19.260100
H -5.860400 -5.832600 -22.603600
C -5.842800 -6.286700 -21.661500
C -5.795800 -7.568000 -19.198400
H -5.774700 -8.062200 -18.269100
C -5.420100 -7.577600 -21.556300
C -5.386600 -8.221500 -20.329200
H -5.081400 -8.089600 -22.415700
H -5.036800 -9.203700 -20.259400
N -12.453900 5.504700 -7.060800
C -12.162800 4.408000 -6.975500
N -11.931200 2.072800 -4.489700
C -11.853800 2.479000 -5.551500
C -11.775200 3.035700 -6.861100
H -11.565300 3.903600 -9.395000
C -11.348500 2.305300 -7.958400
C -11.316000 2.898600 -9.262500
H -11.012200 0.477900 -6.873800
C -10.957400 0.934100 -7.818600
C -10.904100 2.200300 -10.332500
H -10.849200 2.656400 -11.277300
C -10.545400 0.235800 -8.888600
C -10.513000 0.829100 -10.192800
H -10.296200 -0.769200 -8.756100
C -10.086200 0.098700 -11.290000
C -10.007600 0.655400 -12.599600
N -9.930200 1.061600 -13.661400
C -9.698600 -1.273600 -11.175600
N -9.407600 -2.370300 -11.090300
