30
Fragment
H -8.857200 -0.497000 -16.042900
H -8.812500 -1.611200 -13.886500
C -8.507300 -1.479200 -15.973000
C -8.473800 -2.123100 -14.746000
H -8.119200 -1.638500 -18.033100
C -8.098100 -2.132800 -17.103800
C -8.051100 -3.414100 -14.640700
H -8.033500 -3.868200 -13.698600
C -7.630500 -3.462500 -17.042100
C -7.604900 -4.108700 -15.796900
H -7.513600 -2.603000 -19.610500
C -7.191200 -3.589400 -19.502500
C -7.174800 -4.185800 -18.226400
C -7.141400 -5.444700 -15.708000
H -7.129000 -5.896900 -14.767700
H -6.764900 -3.803800 -21.534500
C -6.752500 -4.256000 -20.594200
C -6.719100 -5.514900 -18.075800
C -6.702700 -6.111400 -16.799800
H -6.380300 -7.097800 -16.691800
C -6.289000 -5.592000 -20.505300
C -6.263400 -6.238200 -19.260100
H -5.860400 -5.832600 -22.603600
C -5.842800 -6.286700 -21.661500
C -5.795800 -7.568000 -19.198400
H -5.774700 -8.062200 -18.269100
C -5.420100 -7.577600 -21.556300
C -5.386600 -8.221500 -20.329200
H -5.081400 -8.089600 -22.415700
H -5.036800 -9.203700 -20.259400
30
Fragment
H -9.213400 5.920500 -6.967300
H -9.168700 4.806400 -4.811000
C -8.863600 4.938300 -6.897400
C -8.830100 4.294500 -5.670400
H -8.475500 4.779100 -8.957600
C -8.454400 4.284800 -8.028200
C -8.407400 3.003500 -5.565100
H -8.389800 2.549400 -4.623100
C -7.986800 2.955100 -7.966500
C -7.961200 2.308900 -6.721400
H -7.869900 3.814600 -10.534900
C -7.547500 2.828200 -10.426900
C -7.531100 2.231800 -9.150900
C -7.497700 0.972800 -6.632400
H -7.485300 0.520600 -5.692200
H -7.121200 2.613800 -12.458900
C -7.108700 2.161600 -11.518700
C -7.075400 0.902600 -9.000200
C -7.059000 0.306200 -7.724200
H -6.736600 -0.680200 -7.616200
C -6.645200 0.825500 -11.429800
C -6.619700 0.179300 -10.184600
H -6.216700 0.585000 -13.528000
C -6.199100 0.130900 -12.586000
C -6.152100 -1.150400 -10.122900
H -6.130900 -1.644700 -9.193500
C -5.776400 -1.160100 -12.480700
C -5.742900 -1.803900 -11.253700
H -5.437700 -1.672000 -13.340200
H -5.393000 -2.786100 -11.183800
60
Fragment
H -8.857200 -0.497000 -16.042900
H -8.812500 -1.611200 -13.886500
C -8.507300 -1.479200 -15.973000
C -8.473800 -2.123100 -14.746000
H -8.119200 -1.638500 -18.033100
C -8.098100 -2.132800 -17.103800
C -8.051100 -3.414100 -14.640700
H -8.033500 -3.868200 -13.698600
C -7.630500 -3.462500 -17.042100
C -7.604900 -4.108700 -15.796900
H -7.513600 -2.603000 -19.610500
C -7.191200 -3.589400 -19.502500
C -7.174800 -4.185800 -18.226400
C -7.141400 -5.444700 -15.708000
H -7.129000 -5.896900 -14.767700
H -6.764900 -3.803800 -21.534500
C -6.752500 -4.256000 -20.594200
C -6.719100 -5.514900 -18.075800
C -6.702700 -6.111400 -16.799800
H -6.380300 -7.097800 -16.691800
C -6.289000 -5.592000 -20.505300
C -6.263400 -6.238200 -19.260100
H -5.860400 -5.832600 -22.603600
C -5.842800 -6.286700 -21.661500
C -5.795800 -7.568000 -19.198400
H -5.774700 -8.062200 -18.269100
C -5.420100 -7.577600 -21.556300
C -5.386600 -8.221500 -20.329200
H -5.081400 -8.089600 -22.415700
H -5.036800 -9.203700 -20.259400
H -9.213400 5.920500 -6.967300
H -9.168700 4.806400 -4.811000
C -8.863600 4.938300 -6.897400
C -8.830100 4.294500 -5.670400
H -8.475500 4.779100 -8.957600
C -8.454400 4.284800 -8.028200
C -8.407400 3.003500 -5.565100
H -8.389800 2.549400 -4.623100
C -7.986800 2.955100 -7.966500
C -7.961200 2.308900 -6.721400
H -7.869900 3.814600 -10.534900
C -7.547500 2.828200 -10.426900
C -7.531100 2.231800 -9.150900
C -7.497700 0.972800 -6.632400
H -7.485300 0.520600 -5.692200
H -7.121200 2.613800 -12.458900
C -7.108700 2.161600 -11.518700
C -7.075400 0.902600 -9.000200
C -7.059000 0.306200 -7.724200
H -6.736600 -0.680200 -7.616200
C -6.645200 0.825500 -11.429800
C -6.619700 0.179300 -10.184600
H -6.216700 0.585000 -13.528000
C -6.199100 0.130900 -12.586000
C -6.152100 -1.150400 -10.122900
H -6.130900 -1.644700 -9.193500
C -5.776400 -1.160100 -12.480700
C -5.742900 -1.803900 -11.253700
H -5.437700 -1.672000 -13.340200
H -5.393000 -2.786100 -11.183800
