30
Fragment
H -8.857200 -0.497000 -16.042900
H -8.812500 -1.611200 -13.886500
C -8.507300 -1.479200 -15.973000
C -8.473800 -2.123100 -14.746000
H -8.119200 -1.638500 -18.033100
C -8.098100 -2.132800 -17.103800
C -8.051100 -3.414100 -14.640700
H -8.033500 -3.868200 -13.698600
C -7.630500 -3.462500 -17.042100
C -7.604900 -4.108700 -15.796900
H -7.513600 -2.603000 -19.610500
C -7.191200 -3.589400 -19.502500
C -7.174800 -4.185800 -18.226400
C -7.141400 -5.444700 -15.708000
H -7.129000 -5.896900 -14.767700
H -6.764900 -3.803800 -21.534500
C -6.752500 -4.256000 -20.594200
C -6.719100 -5.514900 -18.075800
C -6.702700 -6.111400 -16.799800
H -6.380300 -7.097800 -16.691800
C -6.289000 -5.592000 -20.505300
C -6.263400 -6.238200 -19.260100
H -5.860400 -5.832600 -22.603600
C -5.842800 -6.286700 -21.661500
C -5.795800 -7.568000 -19.198400
H -5.774700 -8.062200 -18.269100
C -5.420100 -7.577600 -21.556300
C -5.386600 -8.221500 -20.329200
H -5.081400 -8.089600 -22.415700
H -5.036800 -9.203700 -20.259400
30
Fragment
H -9.261700 7.487700 -16.042900
H -9.217000 6.373600 -13.886500
C -8.911800 6.505500 -15.973000
C -8.878300 5.861700 -14.746000
H -8.523700 6.346300 -18.033100
C -8.502600 5.852000 -17.103800
C -8.455600 4.570700 -14.640700
H -8.438000 4.116600 -13.698600
C -8.035000 4.522300 -17.042100
C -8.009400 3.876100 -15.796900
H -7.918100 5.381800 -19.610500
C -7.595700 4.395400 -19.502500
C -7.579300 3.799000 -18.226400
C -7.545900 2.540000 -15.708000
H -7.533500 2.087800 -14.767700
H -7.169400 4.181000 -21.534500
C -7.157000 3.728800 -20.594200
C -7.123600 2.469800 -18.075800
C -7.107200 1.873400 -16.799800
H -6.784800 0.887000 -16.691800
C -6.693500 2.392700 -20.505300
C -6.667900 1.746500 -19.260100
H -6.264900 2.152200 -22.603600
C -6.247300 1.698100 -21.661500
C -6.200300 0.416800 -19.198400
H -6.179200 -0.077500 -18.269100
C -5.824600 0.407100 -21.556300
C -5.791100 -0.236700 -20.329200
H -5.485900 -0.104800 -22.415700
H -5.441200 -1.218900 -20.259400
60
Fragment
H -8.857200 -0.497000 -16.042900
H -8.812500 -1.611200 -13.886500
C -8.507300 -1.479200 -15.973000
C -8.473800 -2.123100 -14.746000
H -8.119200 -1.638500 -18.033100
C -8.098100 -2.132800 -17.103800
C -8.051100 -3.414100 -14.640700
H -8.033500 -3.868200 -13.698600
C -7.630500 -3.462500 -17.042100
C -7.604900 -4.108700 -15.796900
H -7.513600 -2.603000 -19.610500
C -7.191200 -3.589400 -19.502500
C -7.174800 -4.185800 -18.226400
C -7.141400 -5.444700 -15.708000
H -7.129000 -5.896900 -14.767700
H -6.764900 -3.803800 -21.534500
C -6.752500 -4.256000 -20.594200
C -6.719100 -5.514900 -18.075800
C -6.702700 -6.111400 -16.799800
H -6.380300 -7.097800 -16.691800
C -6.289000 -5.592000 -20.505300
C -6.263400 -6.238200 -19.260100
H -5.860400 -5.832600 -22.603600
C -5.842800 -6.286700 -21.661500
C -5.795800 -7.568000 -19.198400
H -5.774700 -8.062200 -18.269100
C -5.420100 -7.577600 -21.556300
C -5.386600 -8.221500 -20.329200
H -5.081400 -8.089600 -22.415700
H -5.036800 -9.203700 -20.259400
H -9.261700 7.487700 -16.042900
H -9.217000 6.373600 -13.886500
C -8.911800 6.505500 -15.973000
C -8.878300 5.861700 -14.746000
H -8.523700 6.346300 -18.033100
C -8.502600 5.852000 -17.103800
C -8.455600 4.570700 -14.640700
H -8.438000 4.116600 -13.698600
C -8.035000 4.522300 -17.042100
C -8.009400 3.876100 -15.796900
H -7.918100 5.381800 -19.610500
C -7.595700 4.395400 -19.502500
C -7.579300 3.799000 -18.226400
C -7.545900 2.540000 -15.708000
H -7.533500 2.087800 -14.767700
H -7.169400 4.181000 -21.534500
C -7.157000 3.728800 -20.594200
C -7.123600 2.469800 -18.075800
C -7.107200 1.873400 -16.799800
H -6.784800 0.887000 -16.691800
C -6.693500 2.392700 -20.505300
C -6.667900 1.746500 -19.260100
H -6.264900 2.152200 -22.603600
C -6.247300 1.698100 -21.661500
C -6.200300 0.416800 -19.198400
H -6.179200 -0.077500 -18.269100
C -5.824600 0.407100 -21.556300
C -5.791100 -0.236700 -20.329200
H -5.485900 -0.104800 -22.415700
H -5.441200 -1.218900 -20.259400
