30
Fragment
H -8.857200 -0.497000 -16.042900
H -8.812500 -1.611200 -13.886500
C -8.507300 -1.479200 -15.973000
C -8.473800 -2.123100 -14.746000
H -8.119200 -1.638500 -18.033100
C -8.098100 -2.132800 -17.103800
C -8.051100 -3.414100 -14.640700
H -8.033500 -3.868200 -13.698600
C -7.630500 -3.462500 -17.042100
C -7.604900 -4.108700 -15.796900
H -7.513600 -2.603000 -19.610500
C -7.191200 -3.589400 -19.502500
C -7.174800 -4.185800 -18.226400
C -7.141400 -5.444700 -15.708000
H -7.129000 -5.896900 -14.767700
H -6.764900 -3.803800 -21.534500
C -6.752500 -4.256000 -20.594200
C -6.719100 -5.514900 -18.075800
C -6.702700 -6.111400 -16.799800
H -6.380300 -7.097800 -16.691800
C -6.289000 -5.592000 -20.505300
C -6.263400 -6.238200 -19.260100
H -5.860400 -5.832600 -22.603600
C -5.842800 -6.286700 -21.661500
C -5.795800 -7.568000 -19.198400
H -5.774700 -8.062200 -18.269100
C -5.420100 -7.577600 -21.556300
C -5.386600 -8.221500 -20.329200
H -5.081400 -8.089600 -22.415700
H -5.036800 -9.203700 -20.259400
30
Fragment
H -8.905400 1.070200 -25.118400
H -8.860700 -0.044000 -22.962100
C -8.555500 0.088000 -25.048500
C -8.522000 -0.555900 -23.821500
H -8.167500 -0.071300 -27.108700
C -8.146300 -0.565600 -26.179300
C -8.099300 -1.846900 -23.716200
H -8.081700 -2.301000 -22.774200
C -7.678700 -1.895300 -26.117600
C -7.653200 -2.541500 -24.872500
H -7.561800 -1.035800 -28.686000
C -7.239400 -2.022200 -28.578000
C -7.223000 -2.618600 -27.302000
C -7.189700 -3.877500 -24.783500
H -7.177200 -4.329700 -23.843300
H -6.813100 -2.236600 -30.610000
C -6.800700 -2.688800 -29.669800
C -6.767300 -3.947700 -27.151300
C -6.750900 -4.544200 -25.875300
H -6.428600 -5.530600 -25.767300
C -6.337200 -4.024800 -29.580900
C -6.311600 -4.671000 -28.335700
H -5.908600 -4.265400 -31.679100
C -5.891000 -4.719500 -30.737100
C -5.844000 -6.000800 -28.274000
H -5.822900 -6.495000 -27.344600
C -5.468300 -6.010400 -30.631800
C -5.434800 -6.654300 -29.404800
H -5.129700 -6.522400 -31.491300
H -5.085000 -7.636500 -29.334900
60
Fragment
H -8.857200 -0.497000 -16.042900
H -8.812500 -1.611200 -13.886500
C -8.507300 -1.479200 -15.973000
C -8.473800 -2.123100 -14.746000
H -8.119200 -1.638500 -18.033100
C -8.098100 -2.132800 -17.103800
C -8.051100 -3.414100 -14.640700
H -8.033500 -3.868200 -13.698600
C -7.630500 -3.462500 -17.042100
C -7.604900 -4.108700 -15.796900
H -7.513600 -2.603000 -19.610500
C -7.191200 -3.589400 -19.502500
C -7.174800 -4.185800 -18.226400
C -7.141400 -5.444700 -15.708000
H -7.129000 -5.896900 -14.767700
H -6.764900 -3.803800 -21.534500
C -6.752500 -4.256000 -20.594200
C -6.719100 -5.514900 -18.075800
C -6.702700 -6.111400 -16.799800
H -6.380300 -7.097800 -16.691800
C -6.289000 -5.592000 -20.505300
C -6.263400 -6.238200 -19.260100
H -5.860400 -5.832600 -22.603600
C -5.842800 -6.286700 -21.661500
C -5.795800 -7.568000 -19.198400
H -5.774700 -8.062200 -18.269100
C -5.420100 -7.577600 -21.556300
C -5.386600 -8.221500 -20.329200
H -5.081400 -8.089600 -22.415700
H -5.036800 -9.203700 -20.259400
H -8.905400 1.070200 -25.118400
H -8.860700 -0.044000 -22.962100
C -8.555500 0.088000 -25.048500
C -8.522000 -0.555900 -23.821500
H -8.167500 -0.071300 -27.108700
C -8.146300 -0.565600 -26.179300
C -8.099300 -1.846900 -23.716200
H -8.081700 -2.301000 -22.774200
C -7.678700 -1.895300 -26.117600
C -7.653200 -2.541500 -24.872500
H -7.561800 -1.035800 -28.686000
C -7.239400 -2.022200 -28.578000
C -7.223000 -2.618600 -27.302000
C -7.189700 -3.877500 -24.783500
H -7.177200 -4.329700 -23.843300
H -6.813100 -2.236600 -30.610000
C -6.800700 -2.688800 -29.669800
C -6.767300 -3.947700 -27.151300
C -6.750900 -4.544200 -25.875300
H -6.428600 -5.530600 -25.767300
C -6.337200 -4.024800 -29.580900
C -6.311600 -4.671000 -28.335700
H -5.908600 -4.265400 -31.679100
C -5.891000 -4.719500 -30.737100
C -5.844000 -6.000800 -28.274000
H -5.822900 -6.495000 -27.344600
C -5.468300 -6.010400 -30.631800
C -5.434800 -6.654300 -29.404800
H -5.129700 -6.522400 -31.491300
H -5.085000 -7.636500 -29.334900
