30
Fragment
O -6.294600 -7.987100 -25.028500
O -6.079500 -9.268900 -23.278100
N -5.639800 -8.629500 -24.222900
O -4.661200 -2.826000 -14.659600
O -4.507200 -6.801000 -20.324600
N -4.498200 -7.594000 -21.483000
N -4.481400 -3.476900 -15.868000
N -4.259400 -8.562700 -24.376800
H -4.019600 -8.414300 -25.231400
N -3.926600 -5.587300 -17.813500
N -3.919000 -3.411000 -13.656700
C -3.652500 -4.452600 -15.604600
C -3.531500 -8.438100 -21.258000
C -3.514100 -7.276600 -19.564200
C -3.503400 -9.468300 -23.636000
C -3.294500 -4.401600 -14.230100
C -3.283800 -6.593300 -18.302000
C -3.266400 -5.431800 -16.608100
C -3.145400 -9.417300 -22.261500
N -2.878900 -10.458900 -24.209400
N -2.871300 -8.282600 -20.052600
H -2.778300 -5.455700 -12.634700
N -2.538500 -5.307200 -13.489300
N -2.316500 -10.393000 -21.998100
N -2.299700 -6.275900 -16.383100
O -2.290700 -7.069000 -17.541500
O -2.136700 -11.043900 -23.206500
N -1.158100 -5.240500 -13.643200
O -0.718400 -4.601000 -14.588000
O -0.503300 -5.882800 -12.837600
30
Fragment
O -12.947400 -7.987100 -25.028500
O -12.732300 -9.268900 -23.278100
N -12.292600 -8.629500 -24.222900
O -11.314000 -2.826000 -14.659600
O -11.160000 -6.801000 -20.324600
N -11.151000 -7.594000 -21.483000
N -11.134200 -3.476900 -15.868000
N -10.912200 -8.562700 -24.376800
H -10.672400 -8.414300 -25.231400
N -10.579400 -5.587300 -17.813500
N -10.571800 -3.411000 -13.656700
C -10.305300 -4.452600 -15.604600
C -10.184300 -8.438100 -21.258000
C -10.166900 -7.276600 -19.564200
C -10.156200 -9.468300 -23.636000
C -9.947300 -4.401600 -14.230100
C -9.936600 -6.593300 -18.302000
C -9.919200 -5.431800 -16.608100
C -9.798200 -9.417300 -22.261500
N -9.531700 -10.458900 -24.209400
N -9.524100 -8.282600 -20.052600
H -9.431100 -5.455700 -12.634700
N -9.191300 -5.307200 -13.489300
N -8.969300 -10.393000 -21.998100
N -8.952500 -6.275900 -16.383100
O -8.943500 -7.069000 -17.541500
O -8.789500 -11.043900 -23.206500
N -7.810900 -5.240500 -13.643200
O -7.371200 -4.601000 -14.588000
O -7.156100 -5.882800 -12.837600
60
Fragment
O -6.294600 -7.987100 -25.028500
O -6.079500 -9.268900 -23.278100
N -5.639800 -8.629500 -24.222900
O -4.661200 -2.826000 -14.659600
O -4.507200 -6.801000 -20.324600
N -4.498200 -7.594000 -21.483000
N -4.481400 -3.476900 -15.868000
N -4.259400 -8.562700 -24.376800
H -4.019600 -8.414300 -25.231400
N -3.926600 -5.587300 -17.813500
N -3.919000 -3.411000 -13.656700
C -3.652500 -4.452600 -15.604600
C -3.531500 -8.438100 -21.258000
C -3.514100 -7.276600 -19.564200
C -3.503400 -9.468300 -23.636000
C -3.294500 -4.401600 -14.230100
C -3.283800 -6.593300 -18.302000
C -3.266400 -5.431800 -16.608100
C -3.145400 -9.417300 -22.261500
N -2.878900 -10.458900 -24.209400
N -2.871300 -8.282600 -20.052600
H -2.778300 -5.455700 -12.634700
N -2.538500 -5.307200 -13.489300
N -2.316500 -10.393000 -21.998100
N -2.299700 -6.275900 -16.383100
O -2.290700 -7.069000 -17.541500
O -2.136700 -11.043900 -23.206500
N -1.158100 -5.240500 -13.643200
O -0.718400 -4.601000 -14.588000
O -0.503300 -5.882800 -12.837600
O -12.947400 -7.987100 -25.028500
O -12.732300 -9.268900 -23.278100
N -12.292600 -8.629500 -24.222900
O -11.314000 -2.826000 -14.659600
O -11.160000 -6.801000 -20.324600
N -11.151000 -7.594000 -21.483000
N -11.134200 -3.476900 -15.868000
N -10.912200 -8.562700 -24.376800
H -10.672400 -8.414300 -25.231400
N -10.579400 -5.587300 -17.813500
N -10.571800 -3.411000 -13.656700
C -10.305300 -4.452600 -15.604600
C -10.184300 -8.438100 -21.258000
C -10.166900 -7.276600 -19.564200
C -10.156200 -9.468300 -23.636000
C -9.947300 -4.401600 -14.230100
C -9.936600 -6.593300 -18.302000
C -9.919200 -5.431800 -16.608100
C -9.798200 -9.417300 -22.261500
N -9.531700 -10.458900 -24.209400
N -9.524100 -8.282600 -20.052600
H -9.431100 -5.455700 -12.634700
N -9.191300 -5.307200 -13.489300
N -8.969300 -10.393000 -21.998100
N -8.952500 -6.275900 -16.383100
O -8.943500 -7.069000 -17.541500
O -8.789500 -11.043900 -23.206500
N -7.810900 -5.240500 -13.643200
O -7.371200 -4.601000 -14.588000
O -7.156100 -5.882800 -12.837600
