30
Fragment
O -6.294600 -7.987100 -25.028500
O -6.079500 -9.268900 -23.278100
N -5.639800 -8.629500 -24.222900
O -4.661200 -2.826000 -14.659600
O -4.507200 -6.801000 -20.324600
N -4.498200 -7.594000 -21.483000
N -4.481400 -3.476900 -15.868000
N -4.259400 -8.562700 -24.376800
H -4.019600 -8.414300 -25.231400
N -3.926600 -5.587300 -17.813500
N -3.919000 -3.411000 -13.656700
C -3.652500 -4.452600 -15.604600
C -3.531500 -8.438100 -21.258000
C -3.514100 -7.276600 -19.564200
C -3.503400 -9.468300 -23.636000
C -3.294500 -4.401600 -14.230100
C -3.283800 -6.593300 -18.302000
C -3.266400 -5.431800 -16.608100
C -3.145400 -9.417300 -22.261500
N -2.878900 -10.458900 -24.209400
N -2.871300 -8.282600 -20.052600
H -2.778300 -5.455700 -12.634700
N -2.538500 -5.307200 -13.489300
N -2.316500 -10.393000 -21.998100
N -2.299700 -6.275900 -16.383100
O -2.290700 -7.069000 -17.541500
O -2.136700 -11.043900 -23.206500
N -1.158100 -5.240500 -13.643200
O -0.718400 -4.601000 -14.588000
O -0.503300 -5.882800 -12.837600
14
Fragment
H -3.486500 -2.109600 -18.428200
H -2.977800 -3.212100 -19.474500
C -2.680700 -2.529000 -18.822000
H -2.405200 -1.081600 -20.250800
O -1.917200 -3.153600 -17.792100
C -1.867000 -1.487400 -19.526300
H -1.621700 -0.771800 -18.887600
H -0.980600 -4.445900 -18.978500
C -0.735200 -3.730400 -18.339800
O -0.685000 -2.064100 -20.074000
H -0.197000 -4.136100 -17.615300
C 0.078500 -2.688800 -19.044100
H 0.375600 -2.005600 -18.391600
H 0.884300 -3.108200 -19.437900
44
Fragment
O -6.294600 -7.987100 -25.028500
O -6.079500 -9.268900 -23.278100
N -5.639800 -8.629500 -24.222900
O -4.661200 -2.826000 -14.659600
O -4.507200 -6.801000 -20.324600
N -4.498200 -7.594000 -21.483000
N -4.481400 -3.476900 -15.868000
N -4.259400 -8.562700 -24.376800
H -4.019600 -8.414300 -25.231400
N -3.926600 -5.587300 -17.813500
N -3.919000 -3.411000 -13.656700
C -3.652500 -4.452600 -15.604600
C -3.531500 -8.438100 -21.258000
C -3.514100 -7.276600 -19.564200
C -3.503400 -9.468300 -23.636000
C -3.294500 -4.401600 -14.230100
C -3.283800 -6.593300 -18.302000
C -3.266400 -5.431800 -16.608100
C -3.145400 -9.417300 -22.261500
N -2.878900 -10.458900 -24.209400
N -2.871300 -8.282600 -20.052600
H -2.778300 -5.455700 -12.634700
N -2.538500 -5.307200 -13.489300
N -2.316500 -10.393000 -21.998100
N -2.299700 -6.275900 -16.383100
O -2.290700 -7.069000 -17.541500
O -2.136700 -11.043900 -23.206500
N -1.158100 -5.240500 -13.643200
O -0.718400 -4.601000 -14.588000
O -0.503300 -5.882800 -12.837600
H -3.486500 -2.109600 -18.428200
H -2.977800 -3.212100 -19.474500
C -2.680700 -2.529000 -18.822000
H -2.405200 -1.081600 -20.250800
O -1.917200 -3.153600 -17.792100
C -1.867000 -1.487400 -19.526300
H -1.621700 -0.771800 -18.887600
H -0.980600 -4.445900 -18.978500
C -0.735200 -3.730400 -18.339800
O -0.685000 -2.064100 -20.074000
H -0.197000 -4.136100 -17.615300
C 0.078500 -2.688800 -19.044100
H 0.375600 -2.005600 -18.391600
H 0.884300 -3.108200 -19.437900
