30
Fragment
O -6.294600 -7.987100 -25.028500
O -6.079500 -9.268900 -23.278100
N -5.639800 -8.629500 -24.222900
O -4.661200 -2.826000 -14.659600
O -4.507200 -6.801000 -20.324600
N -4.498200 -7.594000 -21.483000
N -4.481400 -3.476900 -15.868000
N -4.259400 -8.562700 -24.376800
H -4.019600 -8.414300 -25.231400
N -3.926600 -5.587300 -17.813500
N -3.919000 -3.411000 -13.656700
C -3.652500 -4.452600 -15.604600
C -3.531500 -8.438100 -21.258000
C -3.514100 -7.276600 -19.564200
C -3.503400 -9.468300 -23.636000
C -3.294500 -4.401600 -14.230100
C -3.283800 -6.593300 -18.302000
C -3.266400 -5.431800 -16.608100
C -3.145400 -9.417300 -22.261500
N -2.878900 -10.458900 -24.209400
N -2.871300 -8.282600 -20.052600
H -2.778300 -5.455700 -12.634700
N -2.538500 -5.307200 -13.489300
N -2.316500 -10.393000 -21.998100
N -2.299700 -6.275900 -16.383100
O -2.290700 -7.069000 -17.541500
O -2.136700 -11.043900 -23.206500
N -1.158100 -5.240500 -13.643200
O -0.718400 -4.601000 -14.588000
O -0.503300 -5.882800 -12.837600
30
Fragment
O -7.741600 -15.494400 -37.650500
O -7.526400 -16.776300 -35.900100
N -7.086700 -16.136800 -36.845000
O -6.108100 -10.333400 -27.281600
O -5.954100 -14.308300 -32.946700
N -5.945100 -15.101300 -34.105000
N -5.928400 -10.984300 -28.490100
N -5.706400 -16.070100 -36.998800
H -5.466500 -15.921600 -37.853500
N -5.373500 -13.094600 -30.435500
N -5.365900 -10.918400 -26.278700
C -5.099400 -11.959900 -28.226700
C -4.978400 -15.945400 -33.880100
C -4.961100 -14.783900 -32.186200
C -4.950300 -16.975700 -36.258100
C -4.741400 -11.909000 -26.852100
C -4.730700 -14.100700 -30.924000
C -4.713300 -12.939200 -29.230100
C -4.592400 -16.924700 -34.883500
N -4.325800 -17.966200 -36.831500
N -4.318200 -15.790000 -32.674700
H -4.225200 -12.963000 -25.256700
N -3.985400 -12.814500 -26.111300
N -3.763400 -17.900300 -34.620100
N -3.746700 -13.783300 -29.005200
O -3.737600 -14.576300 -30.163500
O -3.583600 -18.551200 -35.828500
N -2.605000 -12.747800 -26.265200
O -2.165300 -12.108400 -27.210100
O -1.950200 -13.390200 -25.459700
60
Fragment
O -6.294600 -7.987100 -25.028500
O -6.079500 -9.268900 -23.278100
N -5.639800 -8.629500 -24.222900
O -4.661200 -2.826000 -14.659600
O -4.507200 -6.801000 -20.324600
N -4.498200 -7.594000 -21.483000
N -4.481400 -3.476900 -15.868000
N -4.259400 -8.562700 -24.376800
H -4.019600 -8.414300 -25.231400
N -3.926600 -5.587300 -17.813500
N -3.919000 -3.411000 -13.656700
C -3.652500 -4.452600 -15.604600
C -3.531500 -8.438100 -21.258000
C -3.514100 -7.276600 -19.564200
C -3.503400 -9.468300 -23.636000
C -3.294500 -4.401600 -14.230100
C -3.283800 -6.593300 -18.302000
C -3.266400 -5.431800 -16.608100
C -3.145400 -9.417300 -22.261500
N -2.878900 -10.458900 -24.209400
N -2.871300 -8.282600 -20.052600
H -2.778300 -5.455700 -12.634700
N -2.538500 -5.307200 -13.489300
N -2.316500 -10.393000 -21.998100
N -2.299700 -6.275900 -16.383100
O -2.290700 -7.069000 -17.541500
O -2.136700 -11.043900 -23.206500
N -1.158100 -5.240500 -13.643200
O -0.718400 -4.601000 -14.588000
O -0.503300 -5.882800 -12.837600
O -7.741600 -15.494400 -37.650500
O -7.526400 -16.776300 -35.900100
N -7.086700 -16.136800 -36.845000
O -6.108100 -10.333400 -27.281600
O -5.954100 -14.308300 -32.946700
N -5.945100 -15.101300 -34.105000
N -5.928400 -10.984300 -28.490100
N -5.706400 -16.070100 -36.998800
H -5.466500 -15.921600 -37.853500
N -5.373500 -13.094600 -30.435500
N -5.365900 -10.918400 -26.278700
C -5.099400 -11.959900 -28.226700
C -4.978400 -15.945400 -33.880100
C -4.961100 -14.783900 -32.186200
C -4.950300 -16.975700 -36.258100
C -4.741400 -11.909000 -26.852100
C -4.730700 -14.100700 -30.924000
C -4.713300 -12.939200 -29.230100
C -4.592400 -16.924700 -34.883500
N -4.325800 -17.966200 -36.831500
N -4.318200 -15.790000 -32.674700
H -4.225200 -12.963000 -25.256700
N -3.985400 -12.814500 -26.111300
N -3.763400 -17.900300 -34.620100
N -3.746700 -13.783300 -29.005200
O -3.737600 -14.576300 -30.163500
O -3.583600 -18.551200 -35.828500
N -2.605000 -12.747800 -26.265200
O -2.165300 -12.108400 -27.210100
O -1.950200 -13.390200 -25.459700
