30
Fragment
O -6.294600 -7.987100 -25.028500
O -6.079500 -9.268900 -23.278100
N -5.639800 -8.629500 -24.222900
O -4.661200 -2.826000 -14.659600
O -4.507200 -6.801000 -20.324600
N -4.498200 -7.594000 -21.483000
N -4.481400 -3.476900 -15.868000
N -4.259400 -8.562700 -24.376800
H -4.019600 -8.414300 -25.231400
N -3.926600 -5.587300 -17.813500
N -3.919000 -3.411000 -13.656700
C -3.652500 -4.452600 -15.604600
C -3.531500 -8.438100 -21.258000
C -3.514100 -7.276600 -19.564200
C -3.503400 -9.468300 -23.636000
C -3.294500 -4.401600 -14.230100
C -3.283800 -6.593300 -18.302000
C -3.266400 -5.431800 -16.608100
C -3.145400 -9.417300 -22.261500
N -2.878900 -10.458900 -24.209400
N -2.871300 -8.282600 -20.052600
H -2.778300 -5.455700 -12.634700
N -2.538500 -5.307200 -13.489300
N -2.316500 -10.393000 -21.998100
N -2.299700 -6.275900 -16.383100
O -2.290700 -7.069000 -17.541500
O -2.136700 -11.043900 -23.206500
N -1.158100 -5.240500 -13.643200
O -0.718400 -4.601000 -14.588000
O -0.503300 -5.882800 -12.837600
14
Fragment
H 0.447500 -5.562500 -9.405900
H 0.891800 -6.615900 -10.526800
C 1.225700 -6.023600 -9.807300
H 1.677500 -4.518400 -11.101100
O 1.875900 -6.815200 -8.806000
C 2.143800 -5.021000 -10.386700
H 2.416300 -4.377800 -9.684900
H 2.725100 -8.079200 -10.095100
C 3.019400 -7.459500 -9.382000
O 3.302300 -5.658900 -10.927700
H 3.483900 -7.990600 -8.686500
C 3.952200 -6.461600 -9.947400
H 4.295400 -5.883000 -9.220400
H 4.722800 -6.927000 -10.358900
44
Fragment
O -6.294600 -7.987100 -25.028500
O -6.079500 -9.268900 -23.278100
N -5.639800 -8.629500 -24.222900
O -4.661200 -2.826000 -14.659600
O -4.507200 -6.801000 -20.324600
N -4.498200 -7.594000 -21.483000
N -4.481400 -3.476900 -15.868000
N -4.259400 -8.562700 -24.376800
H -4.019600 -8.414300 -25.231400
N -3.926600 -5.587300 -17.813500
N -3.919000 -3.411000 -13.656700
C -3.652500 -4.452600 -15.604600
C -3.531500 -8.438100 -21.258000
C -3.514100 -7.276600 -19.564200
C -3.503400 -9.468300 -23.636000
C -3.294500 -4.401600 -14.230100
C -3.283800 -6.593300 -18.302000
C -3.266400 -5.431800 -16.608100
C -3.145400 -9.417300 -22.261500
N -2.878900 -10.458900 -24.209400
N -2.871300 -8.282600 -20.052600
H -2.778300 -5.455700 -12.634700
N -2.538500 -5.307200 -13.489300
N -2.316500 -10.393000 -21.998100
N -2.299700 -6.275900 -16.383100
O -2.290700 -7.069000 -17.541500
O -2.136700 -11.043900 -23.206500
N -1.158100 -5.240500 -13.643200
O -0.718400 -4.601000 -14.588000
O -0.503300 -5.882800 -12.837600
H 0.447500 -5.562500 -9.405900
H 0.891800 -6.615900 -10.526800
C 1.225700 -6.023600 -9.807300
H 1.677500 -4.518400 -11.101100
O 1.875900 -6.815200 -8.806000
C 2.143800 -5.021000 -10.386700
H 2.416300 -4.377800 -9.684900
H 2.725100 -8.079200 -10.095100
C 3.019400 -7.459500 -9.382000
O 3.302300 -5.658900 -10.927700
H 3.483900 -7.990600 -8.686500
C 3.952200 -6.461600 -9.947400
H 4.295400 -5.883000 -9.220400
H 4.722800 -6.927000 -10.358900
