16
Fragment
O -39.314000 -37.323700 -4.090800
C -38.207800 -37.207500 -3.567400
H -38.143100 -40.045100 -3.317600
H -37.932100 -35.238500 -3.597200
N -37.581700 -35.994000 -3.382200
C -37.381900 -39.607400 -3.009200
C -37.277000 -38.233500 -3.050400
C -36.341900 -36.124200 -2.817600
H -36.340300 -41.238400 -2.437100
C -36.300500 -40.311500 -2.486200
C -36.140700 -37.583100 -2.600000
O -35.589700 -35.205900 -2.563700
C -35.175800 -39.658400 -2.041000
C -35.070300 -38.286300 -2.084100
H -34.468000 -40.156400 -1.701300
H -34.307700 -37.850200 -1.778400
16
Fragment
H -32.464800 -39.801800 0.111100
H -32.304500 -37.495600 0.188200
C -31.702200 -39.365700 -0.194600
C -31.596700 -37.993600 -0.151500
O -31.182800 -42.446100 -0.674200
C -30.631800 -40.068900 -0.710500
C -30.472000 -37.340500 -0.596700
H -30.432200 -36.413600 -0.547600
C -30.430600 -41.527800 -0.928100
C -29.495500 -39.418500 -1.160900
C -29.390600 -38.044600 -1.119700
N -29.190800 -41.658000 -1.492700
H -28.840400 -42.413500 -1.707700
H -28.629400 -37.606900 -1.428100
C -28.564700 -40.444500 -1.677900
O -27.458500 -40.328300 -2.201300
32
Fragment
O -39.314000 -37.323700 -4.090800
C -38.207800 -37.207500 -3.567400
H -38.143100 -40.045100 -3.317600
H -37.932100 -35.238500 -3.597200
N -37.581700 -35.994000 -3.382200
C -37.381900 -39.607400 -3.009200
C -37.277000 -38.233500 -3.050400
C -36.341900 -36.124200 -2.817600
H -36.340300 -41.238400 -2.437100
C -36.300500 -40.311500 -2.486200
C -36.140700 -37.583100 -2.600000
O -35.589700 -35.205900 -2.563700
C -35.175800 -39.658400 -2.041000
C -35.070300 -38.286300 -2.084100
H -34.468000 -40.156400 -1.701300
H -34.307700 -37.850200 -1.778400
H -32.464800 -39.801800 0.111100
H -32.304500 -37.495600 0.188200
C -31.702200 -39.365700 -0.194600
C -31.596700 -37.993600 -0.151500
O -31.182800 -42.446100 -0.674200
C -30.631800 -40.068900 -0.710500
C -30.472000 -37.340500 -0.596700
H -30.432200 -36.413600 -0.547600
C -30.430600 -41.527800 -0.928100
C -29.495500 -39.418500 -1.160900
C -29.390600 -38.044600 -1.119700
N -29.190800 -41.658000 -1.492700
H -28.840400 -42.413500 -1.707700
H -28.629400 -37.606900 -1.428100
C -28.564700 -40.444500 -1.677900
O -27.458500 -40.328300 -2.201300
