16
Fragment
O -39.314000 -37.323700 -4.090800
C -38.207800 -37.207500 -3.567400
H -38.143100 -40.045100 -3.317600
H -37.932100 -35.238500 -3.597200
N -37.581700 -35.994000 -3.382200
C -37.381900 -39.607400 -3.009200
C -37.277000 -38.233500 -3.050400
C -36.341900 -36.124200 -2.817600
H -36.340300 -41.238400 -2.437100
C -36.300500 -40.311500 -2.486200
C -36.140700 -37.583100 -2.600000
O -35.589700 -35.205900 -2.563700
C -35.175800 -39.658400 -2.041000
C -35.070300 -38.286300 -2.084100
H -34.468000 -40.156400 -1.701300
H -34.307700 -37.850200 -1.778400
15
Fragment
H -41.153200 -34.643100 -1.913700
H -41.153200 -30.066900 -1.913700
N -40.424600 -32.355000 -1.553500
N -40.405900 -34.643400 -1.487800
N -40.405900 -30.066600 -1.487800
H -40.042100 -35.388600 -1.261400
H -40.042100 -29.321400 -1.261400
C -39.813000 -33.488700 -1.177500
C -39.813000 -31.221300 -1.177500
N -38.646900 -33.547000 -0.507900
N -38.646900 -31.163000 -0.507900
C -38.115600 -32.355000 -0.201800
N -36.947600 -32.355000 0.456900
H -36.572600 -33.100500 0.665500
H -36.572600 -31.609500 0.665500
31
Fragment
O -39.314000 -37.323700 -4.090800
C -38.207800 -37.207500 -3.567400
H -38.143100 -40.045100 -3.317600
H -37.932100 -35.238500 -3.597200
N -37.581700 -35.994000 -3.382200
C -37.381900 -39.607400 -3.009200
C -37.277000 -38.233500 -3.050400
C -36.341900 -36.124200 -2.817600
H -36.340300 -41.238400 -2.437100
C -36.300500 -40.311500 -2.486200
C -36.140700 -37.583100 -2.600000
O -35.589700 -35.205900 -2.563700
C -35.175800 -39.658400 -2.041000
C -35.070300 -38.286300 -2.084100
H -34.468000 -40.156400 -1.701300
H -34.307700 -37.850200 -1.778400
H -41.153200 -34.643100 -1.913700
H -41.153200 -30.066900 -1.913700
N -40.424600 -32.355000 -1.553500
N -40.405900 -34.643400 -1.487800
N -40.405900 -30.066600 -1.487800
H -40.042100 -35.388600 -1.261400
H -40.042100 -29.321400 -1.261400
C -39.813000 -33.488700 -1.177500
C -39.813000 -31.221300 -1.177500
N -38.646900 -33.547000 -0.507900
N -38.646900 -31.163000 -0.507900
C -38.115600 -32.355000 -0.201800
N -36.947600 -32.355000 0.456900
H -36.572600 -33.100500 0.665500
H -36.572600 -31.609500 0.665500
