20
Fragment
H -24.617300 -8.353300 -26.039900
Cl -24.260700 -9.110600 -23.684600
O -23.989100 -8.329300 -26.565700
C -22.906800 -8.879900 -25.994600
C -22.861300 -9.326100 -24.656000
C -21.809300 -8.529100 -28.161700
N -21.805800 -8.162500 -29.236900
C -21.766100 -9.002400 -26.807800
C -21.723000 -9.901600 -24.120900
Cl -21.661800 -10.497300 -22.514700
C -20.604500 -10.008200 -24.938600
C -20.600900 -9.563500 -26.251100
O -19.419100 -10.552900 -24.570500
H -19.321900 -9.238300 -28.595500
C -19.274200 -9.849000 -26.766800
N -18.814700 -9.619900 -28.014500
C -18.618900 -10.437900 -25.719400
H -18.014400 -9.855000 -28.229000
C -17.307200 -10.934500 -25.641800
N -16.238400 -11.338600 -25.640400
20
Fragment
N -27.096300 -11.197400 -25.747300
C -26.027600 -11.601500 -25.745900
H -25.320300 -12.681000 -23.158700
C -24.715800 -12.098100 -25.668300
N -24.520100 -12.916100 -23.373200
C -24.060600 -12.687000 -24.620900
H -24.012800 -13.297700 -22.792200
O -23.915600 -11.983100 -26.817200
C -22.733800 -12.972500 -25.136600
C -22.730300 -12.527800 -26.449100
Cl -21.673000 -12.038700 -28.873000
C -21.611800 -12.634400 -27.266800
C -21.568600 -13.533600 -24.579900
N -21.529000 -14.373500 -22.150800
C -21.525500 -14.006900 -23.226000
C -20.473400 -13.209900 -26.731700
C -20.427900 -13.656100 -25.393100
O -19.345700 -14.206700 -24.822000
Cl -19.074000 -13.425400 -27.703100
H -18.717400 -14.182700 -25.347800
40
Fragment
H -24.617300 -8.353300 -26.039900
Cl -24.260700 -9.110600 -23.684600
O -23.989100 -8.329300 -26.565700
C -22.906800 -8.879900 -25.994600
C -22.861300 -9.326100 -24.656000
C -21.809300 -8.529100 -28.161700
N -21.805800 -8.162500 -29.236900
C -21.766100 -9.002400 -26.807800
C -21.723000 -9.901600 -24.120900
Cl -21.661800 -10.497300 -22.514700
C -20.604500 -10.008200 -24.938600
C -20.600900 -9.563500 -26.251100
O -19.419100 -10.552900 -24.570500
H -19.321900 -9.238300 -28.595500
C -19.274200 -9.849000 -26.766800
N -18.814700 -9.619900 -28.014500
C -18.618900 -10.437900 -25.719400
H -18.014400 -9.855000 -28.229000
C -17.307200 -10.934500 -25.641800
N -16.238400 -11.338600 -25.640400
N -27.096300 -11.197400 -25.747300
C -26.027600 -11.601500 -25.745900
H -25.320300 -12.681000 -23.158700
C -24.715800 -12.098100 -25.668300
N -24.520100 -12.916100 -23.373200
C -24.060600 -12.687000 -24.620900
H -24.012800 -13.297700 -22.792200
O -23.915600 -11.983100 -26.817200
C -22.733800 -12.972500 -25.136600
C -22.730300 -12.527800 -26.449100
Cl -21.673000 -12.038700 -28.873000
C -21.611800 -12.634400 -27.266800
C -21.568600 -13.533600 -24.579900
N -21.529000 -14.373500 -22.150800
C -21.525500 -14.006900 -23.226000
C -20.473400 -13.209900 -26.731700
C -20.427900 -13.656100 -25.393100
O -19.345700 -14.206700 -24.822000
Cl -19.074000 -13.425400 -27.703100
H -18.717400 -14.182700 -25.347800
