20
Fragment
H -24.617300 -8.353300 -26.039900
Cl -24.260700 -9.110600 -23.684600
O -23.989100 -8.329300 -26.565700
C -22.906800 -8.879900 -25.994600
C -22.861300 -9.326100 -24.656000
C -21.809300 -8.529100 -28.161700
N -21.805800 -8.162500 -29.236900
C -21.766100 -9.002400 -26.807800
C -21.723000 -9.901600 -24.120900
Cl -21.661800 -10.497300 -22.514700
C -20.604500 -10.008200 -24.938600
C -20.600900 -9.563500 -26.251100
O -19.419100 -10.552900 -24.570500
H -19.321900 -9.238300 -28.595500
C -19.274200 -9.849000 -26.766800
N -18.814700 -9.619900 -28.014500
C -18.618900 -10.437900 -25.719400
H -18.014400 -9.855000 -28.229000
C -17.307200 -10.934500 -25.641800
N -16.238400 -11.338600 -25.640400
20
Fragment
N -30.144800 -11.338600 -17.182700
C -29.076100 -10.934500 -17.181300
H -28.368900 -9.855000 -14.594100
C -27.764400 -10.437900 -17.103700
N -27.568600 -9.619900 -14.808600
C -27.109100 -9.849000 -16.056300
H -27.061400 -9.238300 -14.227500
O -26.964100 -10.552900 -18.252600
C -25.782400 -9.563500 -16.572000
C -25.778800 -10.008200 -17.884500
Cl -24.721500 -10.497300 -20.308400
C -24.660300 -9.901600 -18.702200
C -24.617100 -9.002400 -16.015300
N -24.577500 -8.162500 -13.586200
C -24.574000 -8.529100 -14.661400
C -23.521900 -9.326100 -18.167100
C -23.476400 -8.879900 -16.828400
O -22.394200 -8.329300 -16.257400
Cl -22.122600 -9.110600 -19.138500
H -21.766000 -8.353300 -16.783200
40
Fragment
H -24.617300 -8.353300 -26.039900
Cl -24.260700 -9.110600 -23.684600
O -23.989100 -8.329300 -26.565700
C -22.906800 -8.879900 -25.994600
C -22.861300 -9.326100 -24.656000
C -21.809300 -8.529100 -28.161700
N -21.805800 -8.162500 -29.236900
C -21.766100 -9.002400 -26.807800
C -21.723000 -9.901600 -24.120900
Cl -21.661800 -10.497300 -22.514700
C -20.604500 -10.008200 -24.938600
C -20.600900 -9.563500 -26.251100
O -19.419100 -10.552900 -24.570500
H -19.321900 -9.238300 -28.595500
C -19.274200 -9.849000 -26.766800
N -18.814700 -9.619900 -28.014500
C -18.618900 -10.437900 -25.719400
H -18.014400 -9.855000 -28.229000
C -17.307200 -10.934500 -25.641800
N -16.238400 -11.338600 -25.640400
N -30.144800 -11.338600 -17.182700
C -29.076100 -10.934500 -17.181300
H -28.368900 -9.855000 -14.594100
C -27.764400 -10.437900 -17.103700
N -27.568600 -9.619900 -14.808600
C -27.109100 -9.849000 -16.056300
H -27.061400 -9.238300 -14.227500
O -26.964100 -10.552900 -18.252600
C -25.782400 -9.563500 -16.572000
C -25.778800 -10.008200 -17.884500
Cl -24.721500 -10.497300 -20.308400
C -24.660300 -9.901600 -18.702200
C -24.617100 -9.002400 -16.015300
N -24.577500 -8.162500 -13.586200
C -24.574000 -8.529100 -14.661400
C -23.521900 -9.326100 -18.167100
C -23.476400 -8.879900 -16.828400
O -22.394200 -8.329300 -16.257400
Cl -22.122600 -9.110600 -19.138500
H -21.766000 -8.353300 -16.783200
