20
Fragment
H -24.617300 -8.353300 -26.039900
Cl -24.260700 -9.110600 -23.684600
O -23.989100 -8.329300 -26.565700
C -22.906800 -8.879900 -25.994600
C -22.861300 -9.326100 -24.656000
C -21.809300 -8.529100 -28.161700
N -21.805800 -8.162500 -29.236900
C -21.766100 -9.002400 -26.807800
C -21.723000 -9.901600 -24.120900
Cl -21.661800 -10.497300 -22.514700
C -20.604500 -10.008200 -24.938600
C -20.600900 -9.563500 -26.251100
O -19.419100 -10.552900 -24.570500
H -19.321900 -9.238300 -28.595500
C -19.274200 -9.849000 -26.766800
N -18.814700 -9.619900 -28.014500
C -18.618900 -10.437900 -25.719400
H -18.014400 -9.855000 -28.229000
C -17.307200 -10.934500 -25.641800
N -16.238400 -11.338600 -25.640400
20
Fragment
H -34.888300 -4.597300 -26.039900
Cl -34.531700 -5.354600 -23.684600
O -34.260100 -4.573300 -26.565700
C -33.177800 -5.123900 -25.994600
C -33.132300 -5.570100 -24.656000
C -32.080300 -4.773100 -28.161700
N -32.076800 -4.406500 -29.236900
C -32.037100 -5.246400 -26.807800
C -31.994000 -6.145600 -24.120900
Cl -31.932800 -6.741300 -22.514700
C -30.875500 -6.252200 -24.938600
C -30.871900 -5.807500 -26.251100
O -29.690100 -6.796900 -24.570500
H -29.592900 -5.482300 -28.595500
C -29.545200 -6.093000 -26.766800
N -29.085700 -5.863900 -28.014500
C -28.889900 -6.681900 -25.719400
H -28.285400 -6.099000 -28.229000
C -27.578200 -7.178500 -25.641800
N -26.509400 -7.582600 -25.640400
40
Fragment
H -24.617300 -8.353300 -26.039900
Cl -24.260700 -9.110600 -23.684600
O -23.989100 -8.329300 -26.565700
C -22.906800 -8.879900 -25.994600
C -22.861300 -9.326100 -24.656000
C -21.809300 -8.529100 -28.161700
N -21.805800 -8.162500 -29.236900
C -21.766100 -9.002400 -26.807800
C -21.723000 -9.901600 -24.120900
Cl -21.661800 -10.497300 -22.514700
C -20.604500 -10.008200 -24.938600
C -20.600900 -9.563500 -26.251100
O -19.419100 -10.552900 -24.570500
H -19.321900 -9.238300 -28.595500
C -19.274200 -9.849000 -26.766800
N -18.814700 -9.619900 -28.014500
C -18.618900 -10.437900 -25.719400
H -18.014400 -9.855000 -28.229000
C -17.307200 -10.934500 -25.641800
N -16.238400 -11.338600 -25.640400
H -34.888300 -4.597300 -26.039900
Cl -34.531700 -5.354600 -23.684600
O -34.260100 -4.573300 -26.565700
C -33.177800 -5.123900 -25.994600
C -33.132300 -5.570100 -24.656000
C -32.080300 -4.773100 -28.161700
N -32.076800 -4.406500 -29.236900
C -32.037100 -5.246400 -26.807800
C -31.994000 -6.145600 -24.120900
Cl -31.932800 -6.741300 -22.514700
C -30.875500 -6.252200 -24.938600
C -30.871900 -5.807500 -26.251100
O -29.690100 -6.796900 -24.570500
H -29.592900 -5.482300 -28.595500
C -29.545200 -6.093000 -26.766800
N -29.085700 -5.863900 -28.014500
C -28.889900 -6.681900 -25.719400
H -28.285400 -6.099000 -28.229000
C -27.578200 -7.178500 -25.641800
N -26.509400 -7.582600 -25.640400
