20
Fragment
H -24.617300 -8.353300 -26.039900
Cl -24.260700 -9.110600 -23.684600
O -23.989100 -8.329300 -26.565700
C -22.906800 -8.879900 -25.994600
C -22.861300 -9.326100 -24.656000
C -21.809300 -8.529100 -28.161700
N -21.805800 -8.162500 -29.236900
C -21.766100 -9.002400 -26.807800
C -21.723000 -9.901600 -24.120900
Cl -21.661800 -10.497300 -22.514700
C -20.604500 -10.008200 -24.938600
C -20.600900 -9.563500 -26.251100
O -19.419100 -10.552900 -24.570500
H -19.321900 -9.238300 -28.595500
C -19.274200 -9.849000 -26.766800
N -18.814700 -9.619900 -28.014500
C -18.618900 -10.437900 -25.719400
H -18.014400 -9.855000 -28.229000
C -17.307200 -10.934500 -25.641800
N -16.238400 -11.338600 -25.640400
20
Fragment
H -14.346300 -12.109300 -26.039900
Cl -13.989700 -12.866600 -23.684600
O -13.718100 -12.085300 -26.565700
C -12.635800 -12.635900 -25.994600
C -12.590300 -13.082100 -24.656000
C -11.538300 -12.285100 -28.161700
N -11.534800 -11.918500 -29.236900
C -11.495100 -12.758400 -26.807800
C -11.452000 -13.657600 -24.120900
Cl -11.390800 -14.253300 -22.514700
C -10.333500 -13.764200 -24.938600
C -10.329900 -13.319500 -26.251100
O -9.148100 -14.308900 -24.570500
H -9.050900 -12.994300 -28.595500
C -9.003200 -13.605000 -26.766800
N -8.543700 -13.375900 -28.014500
C -8.347900 -14.193900 -25.719400
H -7.743400 -13.611000 -28.229000
C -7.036200 -14.690500 -25.641800
N -5.967400 -15.094600 -25.640400
40
Fragment
H -24.617300 -8.353300 -26.039900
Cl -24.260700 -9.110600 -23.684600
O -23.989100 -8.329300 -26.565700
C -22.906800 -8.879900 -25.994600
C -22.861300 -9.326100 -24.656000
C -21.809300 -8.529100 -28.161700
N -21.805800 -8.162500 -29.236900
C -21.766100 -9.002400 -26.807800
C -21.723000 -9.901600 -24.120900
Cl -21.661800 -10.497300 -22.514700
C -20.604500 -10.008200 -24.938600
C -20.600900 -9.563500 -26.251100
O -19.419100 -10.552900 -24.570500
H -19.321900 -9.238300 -28.595500
C -19.274200 -9.849000 -26.766800
N -18.814700 -9.619900 -28.014500
C -18.618900 -10.437900 -25.719400
H -18.014400 -9.855000 -28.229000
C -17.307200 -10.934500 -25.641800
N -16.238400 -11.338600 -25.640400
H -14.346300 -12.109300 -26.039900
Cl -13.989700 -12.866600 -23.684600
O -13.718100 -12.085300 -26.565700
C -12.635800 -12.635900 -25.994600
C -12.590300 -13.082100 -24.656000
C -11.538300 -12.285100 -28.161700
N -11.534800 -11.918500 -29.236900
C -11.495100 -12.758400 -26.807800
C -11.452000 -13.657600 -24.120900
Cl -11.390800 -14.253300 -22.514700
C -10.333500 -13.764200 -24.938600
C -10.329900 -13.319500 -26.251100
O -9.148100 -14.308900 -24.570500
H -9.050900 -12.994300 -28.595500
C -9.003200 -13.605000 -26.766800
N -8.543700 -13.375900 -28.014500
C -8.347900 -14.193900 -25.719400
H -7.743400 -13.611000 -28.229000
C -7.036200 -14.690500 -25.641800
N -5.967400 -15.094600 -25.640400
