20
Fragment
H -24.617300 -8.353300 -26.039900
Cl -24.260700 -9.110600 -23.684600
O -23.989100 -8.329300 -26.565700
C -22.906800 -8.879900 -25.994600
C -22.861300 -9.326100 -24.656000
C -21.809300 -8.529100 -28.161700
N -21.805800 -8.162500 -29.236900
C -21.766100 -9.002400 -26.807800
C -21.723000 -9.901600 -24.120900
Cl -21.661800 -10.497300 -22.514700
C -20.604500 -10.008200 -24.938600
C -20.600900 -9.563500 -26.251100
O -19.419100 -10.552900 -24.570500
H -19.321900 -9.238300 -28.595500
C -19.274200 -9.849000 -26.766800
N -18.814700 -9.619900 -28.014500
C -18.618900 -10.437900 -25.719400
H -18.014400 -9.855000 -28.229000
C -17.307200 -10.934500 -25.641800
N -16.238400 -11.338600 -25.640400
20
Fragment
H -27.665800 -6.670700 -17.475200
Cl -27.309300 -5.913400 -15.120000
O -27.037600 -6.694700 -18.001100
C -25.955400 -6.144100 -17.430000
C -25.909900 -5.697900 -16.091400
C -24.857800 -6.494900 -19.597000
N -24.854300 -6.861500 -20.672200
C -24.814700 -6.021600 -18.243100
C -24.771500 -5.122400 -15.556300
Cl -24.710300 -4.526700 -13.950000
C -23.653000 -5.015800 -16.374000
C -23.649500 -5.460500 -17.686400
O -22.467700 -4.471100 -16.005900
H -22.370400 -5.785700 -20.030900
C -22.322700 -5.175000 -18.202200
N -21.863200 -5.404100 -19.449900
C -21.667400 -4.586100 -17.154800
H -21.063000 -5.169000 -19.664400
C -20.355700 -4.089500 -17.077200
N -19.287000 -3.685400 -17.075800
40
Fragment
H -24.617300 -8.353300 -26.039900
Cl -24.260700 -9.110600 -23.684600
O -23.989100 -8.329300 -26.565700
C -22.906800 -8.879900 -25.994600
C -22.861300 -9.326100 -24.656000
C -21.809300 -8.529100 -28.161700
N -21.805800 -8.162500 -29.236900
C -21.766100 -9.002400 -26.807800
C -21.723000 -9.901600 -24.120900
Cl -21.661800 -10.497300 -22.514700
C -20.604500 -10.008200 -24.938600
C -20.600900 -9.563500 -26.251100
O -19.419100 -10.552900 -24.570500
H -19.321900 -9.238300 -28.595500
C -19.274200 -9.849000 -26.766800
N -18.814700 -9.619900 -28.014500
C -18.618900 -10.437900 -25.719400
H -18.014400 -9.855000 -28.229000
C -17.307200 -10.934500 -25.641800
N -16.238400 -11.338600 -25.640400
H -27.665800 -6.670700 -17.475200
Cl -27.309300 -5.913400 -15.120000
O -27.037600 -6.694700 -18.001100
C -25.955400 -6.144100 -17.430000
C -25.909900 -5.697900 -16.091400
C -24.857800 -6.494900 -19.597000
N -24.854300 -6.861500 -20.672200
C -24.814700 -6.021600 -18.243100
C -24.771500 -5.122400 -15.556300
Cl -24.710300 -4.526700 -13.950000
C -23.653000 -5.015800 -16.374000
C -23.649500 -5.460500 -17.686400
O -22.467700 -4.471100 -16.005900
H -22.370400 -5.785700 -20.030900
C -22.322700 -5.175000 -18.202200
N -21.863200 -5.404100 -19.449900
C -21.667400 -4.586100 -17.154800
H -21.063000 -5.169000 -19.664400
C -20.355700 -4.089500 -17.077200
N -19.287000 -3.685400 -17.075800
