34
Fragment
H -13.089400 -14.546000 -34.173700
O -12.531700 -14.026900 -33.821400
H -12.522800 -16.490000 -32.963100
C -12.211600 -15.876200 -32.308600
C -12.148900 -14.527900 -32.593800
H -11.853700 -17.261100 -30.869300
H -11.840400 -16.154700 -28.186800
C -11.816500 -16.330100 -31.056900
C -11.672700 -13.640400 -31.640400
H -11.602700 -12.715300 -31.843100
C -11.366400 -15.458500 -30.069100
C -11.297000 -14.108500 -30.388400
C -11.006000 -16.025800 -28.705200
H -10.987600 -13.491800 -29.735000
H -10.592000 -16.915600 -28.833200
H -10.489100 -14.288100 -27.705000
O -10.241900 -16.850500 -26.237300
C -10.055800 -15.159900 -27.887800
C -9.663500 -15.802300 -26.575600
H -9.481200 -17.244600 -24.703300
H -9.238600 -14.985900 -28.419400
O -8.890700 -17.053200 -24.137500
C -8.626300 -15.238100 -25.723800
O -8.270600 -13.314200 -27.079700
C -8.246000 -15.939300 -24.521700
C -7.904900 -14.042800 -25.994800
H -7.688500 -12.729400 -27.233500
C -7.206500 -15.501200 -23.722300
H -6.967100 -15.986600 -22.941000
C -6.860100 -13.612100 -25.196600
C -6.514300 -14.348600 -24.066100
H -6.382800 -12.820500 -25.417700
O -5.498400 -13.865200 -23.320200
H -5.313900 -14.412100 -22.710400
17
Fragment
H -6.142900 -9.757600 -20.443700
H -5.814800 -9.296200 -22.685700
H -5.814500 -10.002600 -24.828900
C -5.462200 -10.228300 -20.911400
C -5.273500 -9.942400 -22.248800
N -5.010000 -10.083700 -25.176800
N -4.823300 -9.909500 -26.569000
N -4.745000 -11.126600 -20.238200
H -4.738700 -9.070700 -26.846500
C -4.284600 -10.611200 -22.937900
H -4.177000 -10.459500 -26.698300
C -3.970400 -10.370800 -24.387300
C -3.801500 -11.766200 -20.925600
C -3.517700 -11.541100 -22.257900
H -3.287600 -12.421900 -20.468400
O -2.825100 -10.472400 -24.818800
H -2.816700 -12.011300 -22.696000
51
Fragment
H -13.089400 -14.546000 -34.173700
O -12.531700 -14.026900 -33.821400
H -12.522800 -16.490000 -32.963100
C -12.211600 -15.876200 -32.308600
C -12.148900 -14.527900 -32.593800
H -11.853700 -17.261100 -30.869300
H -11.840400 -16.154700 -28.186800
C -11.816500 -16.330100 -31.056900
C -11.672700 -13.640400 -31.640400
H -11.602700 -12.715300 -31.843100
C -11.366400 -15.458500 -30.069100
C -11.297000 -14.108500 -30.388400
C -11.006000 -16.025800 -28.705200
H -10.987600 -13.491800 -29.735000
H -10.592000 -16.915600 -28.833200
H -10.489100 -14.288100 -27.705000
O -10.241900 -16.850500 -26.237300
C -10.055800 -15.159900 -27.887800
C -9.663500 -15.802300 -26.575600
H -9.481200 -17.244600 -24.703300
H -9.238600 -14.985900 -28.419400
O -8.890700 -17.053200 -24.137500
C -8.626300 -15.238100 -25.723800
O -8.270600 -13.314200 -27.079700
C -8.246000 -15.939300 -24.521700
C -7.904900 -14.042800 -25.994800
H -7.688500 -12.729400 -27.233500
C -7.206500 -15.501200 -23.722300
H -6.967100 -15.986600 -22.941000
C -6.860100 -13.612100 -25.196600
C -6.514300 -14.348600 -24.066100
H -6.382800 -12.820500 -25.417700
O -5.498400 -13.865200 -23.320200
H -5.313900 -14.412100 -22.710400
H -6.142900 -9.757600 -20.443700
H -5.814800 -9.296200 -22.685700
H -5.814500 -10.002600 -24.828900
C -5.462200 -10.228300 -20.911400
C -5.273500 -9.942400 -22.248800
N -5.010000 -10.083700 -25.176800
N -4.823300 -9.909500 -26.569000
N -4.745000 -11.126600 -20.238200
H -4.738700 -9.070700 -26.846500
C -4.284600 -10.611200 -22.937900
H -4.177000 -10.459500 -26.698300
C -3.970400 -10.370800 -24.387300
C -3.801500 -11.766200 -20.925600
C -3.517700 -11.541100 -22.257900
H -3.287600 -12.421900 -20.468400
O -2.825100 -10.472400 -24.818800
H -2.816700 -12.011300 -22.696000
