34
Fragment
H -13.089400 -14.546000 -34.173700
O -12.531700 -14.026900 -33.821400
H -12.522800 -16.490000 -32.963100
C -12.211600 -15.876200 -32.308600
C -12.148900 -14.527900 -32.593800
H -11.853700 -17.261100 -30.869300
H -11.840400 -16.154700 -28.186800
C -11.816500 -16.330100 -31.056900
C -11.672700 -13.640400 -31.640400
H -11.602700 -12.715300 -31.843100
C -11.366400 -15.458500 -30.069100
C -11.297000 -14.108500 -30.388400
C -11.006000 -16.025800 -28.705200
H -10.987600 -13.491800 -29.735000
H -10.592000 -16.915600 -28.833200
H -10.489100 -14.288100 -27.705000
O -10.241900 -16.850500 -26.237300
C -10.055800 -15.159900 -27.887800
C -9.663500 -15.802300 -26.575600
H -9.481200 -17.244600 -24.703300
H -9.238600 -14.985900 -28.419400
O -8.890700 -17.053200 -24.137500
C -8.626300 -15.238100 -25.723800
O -8.270600 -13.314200 -27.079700
C -8.246000 -15.939300 -24.521700
C -7.904900 -14.042800 -25.994800
H -7.688500 -12.729400 -27.233500
C -7.206500 -15.501200 -23.722300
H -6.967100 -15.986600 -22.941000
C -6.860100 -13.612100 -25.196600
C -6.514300 -14.348600 -24.066100
H -6.382800 -12.820500 -25.417700
O -5.498400 -13.865200 -23.320200
H -5.313900 -14.412100 -22.710400
17
Fragment
H -13.078100 -19.219900 -20.443700
H -12.750000 -18.758400 -22.685700
H -12.749800 -19.464800 -24.828900
C -12.397500 -19.690600 -20.911400
C -12.208800 -19.404600 -22.248800
N -11.945300 -19.546000 -25.176800
N -11.758600 -19.371800 -26.569000
N -11.680300 -20.588900 -20.238200
H -11.674000 -18.532900 -26.846500
C -11.219800 -20.073500 -22.937900
H -11.112300 -19.921800 -26.698300
C -10.905700 -19.833100 -24.387300
C -10.736800 -21.228400 -20.925600
C -10.453000 -21.003300 -22.257900
H -10.222900 -21.884200 -20.468400
O -9.760300 -19.934700 -24.818800
H -9.752000 -21.473600 -22.696000
51
Fragment
H -13.089400 -14.546000 -34.173700
O -12.531700 -14.026900 -33.821400
H -12.522800 -16.490000 -32.963100
C -12.211600 -15.876200 -32.308600
C -12.148900 -14.527900 -32.593800
H -11.853700 -17.261100 -30.869300
H -11.840400 -16.154700 -28.186800
C -11.816500 -16.330100 -31.056900
C -11.672700 -13.640400 -31.640400
H -11.602700 -12.715300 -31.843100
C -11.366400 -15.458500 -30.069100
C -11.297000 -14.108500 -30.388400
C -11.006000 -16.025800 -28.705200
H -10.987600 -13.491800 -29.735000
H -10.592000 -16.915600 -28.833200
H -10.489100 -14.288100 -27.705000
O -10.241900 -16.850500 -26.237300
C -10.055800 -15.159900 -27.887800
C -9.663500 -15.802300 -26.575600
H -9.481200 -17.244600 -24.703300
H -9.238600 -14.985900 -28.419400
O -8.890700 -17.053200 -24.137500
C -8.626300 -15.238100 -25.723800
O -8.270600 -13.314200 -27.079700
C -8.246000 -15.939300 -24.521700
C -7.904900 -14.042800 -25.994800
H -7.688500 -12.729400 -27.233500
C -7.206500 -15.501200 -23.722300
H -6.967100 -15.986600 -22.941000
C -6.860100 -13.612100 -25.196600
C -6.514300 -14.348600 -24.066100
H -6.382800 -12.820500 -25.417700
O -5.498400 -13.865200 -23.320200
H -5.313900 -14.412100 -22.710400
H -13.078100 -19.219900 -20.443700
H -12.750000 -18.758400 -22.685700
H -12.749800 -19.464800 -24.828900
C -12.397500 -19.690600 -20.911400
C -12.208800 -19.404600 -22.248800
N -11.945300 -19.546000 -25.176800
N -11.758600 -19.371800 -26.569000
N -11.680300 -20.588900 -20.238200
H -11.674000 -18.532900 -26.846500
C -11.219800 -20.073500 -22.937900
H -11.112300 -19.921800 -26.698300
C -10.905700 -19.833100 -24.387300
C -10.736800 -21.228400 -20.925600
C -10.453000 -21.003300 -22.257900
H -10.222900 -21.884200 -20.468400
O -9.760300 -19.934700 -24.818800
H -9.752000 -21.473600 -22.696000
