34
Fragment
H -13.089400 -14.546000 -34.173700
O -12.531700 -14.026900 -33.821400
H -12.522800 -16.490000 -32.963100
C -12.211600 -15.876200 -32.308600
C -12.148900 -14.527900 -32.593800
H -11.853700 -17.261100 -30.869300
H -11.840400 -16.154700 -28.186800
C -11.816500 -16.330100 -31.056900
C -11.672700 -13.640400 -31.640400
H -11.602700 -12.715300 -31.843100
C -11.366400 -15.458500 -30.069100
C -11.297000 -14.108500 -30.388400
C -11.006000 -16.025800 -28.705200
H -10.987600 -13.491800 -29.735000
H -10.592000 -16.915600 -28.833200
H -10.489100 -14.288100 -27.705000
O -10.241900 -16.850500 -26.237300
C -10.055800 -15.159900 -27.887800
C -9.663500 -15.802300 -26.575600
H -9.481200 -17.244600 -24.703300
H -9.238600 -14.985900 -28.419400
O -8.890700 -17.053200 -24.137500
C -8.626300 -15.238100 -25.723800
O -8.270600 -13.314200 -27.079700
C -8.246000 -15.939300 -24.521700
C -7.904900 -14.042800 -25.994800
H -7.688500 -12.729400 -27.233500
C -7.206500 -15.501200 -23.722300
H -6.967100 -15.986600 -22.941000
C -6.860100 -13.612100 -25.196600
C -6.514300 -14.348600 -24.066100
H -6.382800 -12.820500 -25.417700
O -5.498400 -13.865200 -23.320200
H -5.313900 -14.412100 -22.710400
34
Fragment
H -18.840200 -10.901400 -39.102400
O -18.659900 -11.444700 -38.489300
H -17.792400 -12.483200 -36.384800
C -17.659500 -10.950600 -37.730400
C -17.325300 -11.682800 -36.592300
H -17.201400 -9.309500 -38.843000
C -16.971100 -9.794100 -38.058400
H -16.512400 -12.576000 -34.552500
C -16.308900 -11.233700 -35.764700
O -15.982600 -11.930800 -34.646600
C -15.947000 -9.346500 -37.241300
C -15.590100 -10.036800 -36.030500
O -15.295200 -8.233500 -37.627500
H -15.005800 -10.116100 -33.269900
H -14.703800 -8.044800 -37.062100
C -14.553900 -9.470000 -35.173400
H -14.526400 -10.887100 -31.349000
C -14.198400 -10.094400 -33.840400
H -14.002000 -11.576400 -29.187300
O -13.964400 -8.432000 -35.516200
H -13.909300 -11.029400 -33.990500
C -13.688000 -10.646600 -30.971300
C -13.379500 -11.057000 -29.681200
H -13.361100 -8.399200 -33.031100
C -13.100100 -9.351000 -33.110900
C -12.787300 -9.884300 -31.725800
H -12.275100 -9.390100 -33.656900
C -12.161600 -10.709600 -29.111300
O -11.914000 -11.119800 -27.826300
C -11.570200 -9.560100 -31.129200
C -11.252900 -9.963600 -29.843000
H -11.203600 -10.765400 -27.550600
H -10.939500 -9.045600 -31.618700
H -10.413100 -9.730800 -29.463200
68
Fragment
H -13.089400 -14.546000 -34.173700
O -12.531700 -14.026900 -33.821400
H -12.522800 -16.490000 -32.963100
C -12.211600 -15.876200 -32.308600
C -12.148900 -14.527900 -32.593800
H -11.853700 -17.261100 -30.869300
H -11.840400 -16.154700 -28.186800
C -11.816500 -16.330100 -31.056900
C -11.672700 -13.640400 -31.640400
H -11.602700 -12.715300 -31.843100
C -11.366400 -15.458500 -30.069100
C -11.297000 -14.108500 -30.388400
C -11.006000 -16.025800 -28.705200
H -10.987600 -13.491800 -29.735000
H -10.592000 -16.915600 -28.833200
H -10.489100 -14.288100 -27.705000
O -10.241900 -16.850500 -26.237300
C -10.055800 -15.159900 -27.887800
C -9.663500 -15.802300 -26.575600
H -9.481200 -17.244600 -24.703300
H -9.238600 -14.985900 -28.419400
O -8.890700 -17.053200 -24.137500
C -8.626300 -15.238100 -25.723800
O -8.270600 -13.314200 -27.079700
C -8.246000 -15.939300 -24.521700
C -7.904900 -14.042800 -25.994800
H -7.688500 -12.729400 -27.233500
C -7.206500 -15.501200 -23.722300
H -6.967100 -15.986600 -22.941000
C -6.860100 -13.612100 -25.196600
C -6.514300 -14.348600 -24.066100
H -6.382800 -12.820500 -25.417700
O -5.498400 -13.865200 -23.320200
H -5.313900 -14.412100 -22.710400
H -18.840200 -10.901400 -39.102400
O -18.659900 -11.444700 -38.489300
H -17.792400 -12.483200 -36.384800
C -17.659500 -10.950600 -37.730400
C -17.325300 -11.682800 -36.592300
H -17.201400 -9.309500 -38.843000
C -16.971100 -9.794100 -38.058400
H -16.512400 -12.576000 -34.552500
C -16.308900 -11.233700 -35.764700
O -15.982600 -11.930800 -34.646600
C -15.947000 -9.346500 -37.241300
C -15.590100 -10.036800 -36.030500
O -15.295200 -8.233500 -37.627500
H -15.005800 -10.116100 -33.269900
H -14.703800 -8.044800 -37.062100
C -14.553900 -9.470000 -35.173400
H -14.526400 -10.887100 -31.349000
C -14.198400 -10.094400 -33.840400
H -14.002000 -11.576400 -29.187300
O -13.964400 -8.432000 -35.516200
H -13.909300 -11.029400 -33.990500
C -13.688000 -10.646600 -30.971300
C -13.379500 -11.057000 -29.681200
H -13.361100 -8.399200 -33.031100
C -13.100100 -9.351000 -33.110900
C -12.787300 -9.884300 -31.725800
H -12.275100 -9.390100 -33.656900
C -12.161600 -10.709600 -29.111300
O -11.914000 -11.119800 -27.826300
C -11.570200 -9.560100 -31.129200
C -11.252900 -9.963600 -29.843000
H -11.203600 -10.765400 -27.550600
H -10.939500 -9.045600 -31.618700
H -10.413100 -9.730800 -29.463200
