34
Fragment
H -13.089400 -14.546000 -34.173700
O -12.531700 -14.026900 -33.821400
H -12.522800 -16.490000 -32.963100
C -12.211600 -15.876200 -32.308600
C -12.148900 -14.527900 -32.593800
H -11.853700 -17.261100 -30.869300
H -11.840400 -16.154700 -28.186800
C -11.816500 -16.330100 -31.056900
C -11.672700 -13.640400 -31.640400
H -11.602700 -12.715300 -31.843100
C -11.366400 -15.458500 -30.069100
C -11.297000 -14.108500 -30.388400
C -11.006000 -16.025800 -28.705200
H -10.987600 -13.491800 -29.735000
H -10.592000 -16.915600 -28.833200
H -10.489100 -14.288100 -27.705000
O -10.241900 -16.850500 -26.237300
C -10.055800 -15.159900 -27.887800
C -9.663500 -15.802300 -26.575600
H -9.481200 -17.244600 -24.703300
H -9.238600 -14.985900 -28.419400
O -8.890700 -17.053200 -24.137500
C -8.626300 -15.238100 -25.723800
O -8.270600 -13.314200 -27.079700
C -8.246000 -15.939300 -24.521700
C -7.904900 -14.042800 -25.994800
H -7.688500 -12.729400 -27.233500
C -7.206500 -15.501200 -23.722300
H -6.967100 -15.986600 -22.941000
C -6.860100 -13.612100 -25.196600
C -6.514300 -14.348600 -24.066100
H -6.382800 -12.820500 -25.417700
O -5.498400 -13.865200 -23.320200
H -5.313900 -14.412100 -22.710400
34
Fragment
H -8.883500 -15.589000 -32.300200
H -8.357200 -16.274200 -30.144700
H -8.093100 -14.554400 -34.212800
C -8.043800 -15.356200 -31.920300
C -7.726500 -15.759700 -30.634200
O -7.382700 -14.200000 -33.937100
C -7.135100 -14.610200 -32.652000
H -7.021600 -15.929700 -28.106500
C -6.509400 -15.435500 -30.037600
C -6.196600 -15.968900 -28.652400
H -5.935600 -16.920600 -28.732300
C -5.917200 -14.262800 -32.082200
C -5.608700 -14.673200 -30.792100
H -5.387400 -14.290400 -27.772900
O -5.332300 -16.887900 -26.247200
H -5.294700 -13.743400 -32.576100
C -5.098300 -15.225400 -27.923000
H -4.770300 -14.432700 -30.414400
C -4.742800 -15.849900 -26.590000
H -4.592900 -17.275000 -24.701200
H -4.290900 -15.203700 -28.493500
O -4.001500 -17.086400 -24.135900
C -3.706600 -15.283000 -25.732900
C -3.349700 -15.973300 -24.522100
O -3.314100 -13.389000 -27.116800
C -2.987800 -14.086100 -25.998700
H -2.784300 -12.743800 -27.210900
C -2.325600 -15.525700 -23.705000
H -2.095300 -16.010300 -22.920400
C -1.971400 -13.637100 -25.171100
C -1.637200 -14.369200 -24.033000
H -1.504300 -12.836700 -25.378600
O -0.636800 -13.875100 -23.274100
H -0.456500 -14.418400 -22.661000
68
Fragment
H -13.089400 -14.546000 -34.173700
O -12.531700 -14.026900 -33.821400
H -12.522800 -16.490000 -32.963100
C -12.211600 -15.876200 -32.308600
C -12.148900 -14.527900 -32.593800
H -11.853700 -17.261100 -30.869300
H -11.840400 -16.154700 -28.186800
C -11.816500 -16.330100 -31.056900
C -11.672700 -13.640400 -31.640400
H -11.602700 -12.715300 -31.843100
C -11.366400 -15.458500 -30.069100
C -11.297000 -14.108500 -30.388400
C -11.006000 -16.025800 -28.705200
H -10.987600 -13.491800 -29.735000
H -10.592000 -16.915600 -28.833200
H -10.489100 -14.288100 -27.705000
O -10.241900 -16.850500 -26.237300
C -10.055800 -15.159900 -27.887800
C -9.663500 -15.802300 -26.575600
H -9.481200 -17.244600 -24.703300
H -9.238600 -14.985900 -28.419400
O -8.890700 -17.053200 -24.137500
C -8.626300 -15.238100 -25.723800
O -8.270600 -13.314200 -27.079700
C -8.246000 -15.939300 -24.521700
C -7.904900 -14.042800 -25.994800
H -7.688500 -12.729400 -27.233500
C -7.206500 -15.501200 -23.722300
H -6.967100 -15.986600 -22.941000
C -6.860100 -13.612100 -25.196600
C -6.514300 -14.348600 -24.066100
H -6.382800 -12.820500 -25.417700
O -5.498400 -13.865200 -23.320200
H -5.313900 -14.412100 -22.710400
H -8.883500 -15.589000 -32.300200
H -8.357200 -16.274200 -30.144700
H -8.093100 -14.554400 -34.212800
C -8.043800 -15.356200 -31.920300
C -7.726500 -15.759700 -30.634200
O -7.382700 -14.200000 -33.937100
C -7.135100 -14.610200 -32.652000
H -7.021600 -15.929700 -28.106500
C -6.509400 -15.435500 -30.037600
C -6.196600 -15.968900 -28.652400
H -5.935600 -16.920600 -28.732300
C -5.917200 -14.262800 -32.082200
C -5.608700 -14.673200 -30.792100
H -5.387400 -14.290400 -27.772900
O -5.332300 -16.887900 -26.247200
H -5.294700 -13.743400 -32.576100
C -5.098300 -15.225400 -27.923000
H -4.770300 -14.432700 -30.414400
C -4.742800 -15.849900 -26.590000
H -4.592900 -17.275000 -24.701200
H -4.290900 -15.203700 -28.493500
O -4.001500 -17.086400 -24.135900
C -3.706600 -15.283000 -25.732900
C -3.349700 -15.973300 -24.522100
O -3.314100 -13.389000 -27.116800
C -2.987800 -14.086100 -25.998700
H -2.784300 -12.743800 -27.210900
C -2.325600 -15.525700 -23.705000
H -2.095300 -16.010300 -22.920400
C -1.971400 -13.637100 -25.171100
C -1.637200 -14.369200 -24.033000
H -1.504300 -12.836700 -25.378600
O -0.636800 -13.875100 -23.274100
H -0.456500 -14.418400 -22.661000
