34
Fragment
H -13.089400 -14.546000 -34.173700
O -12.531700 -14.026900 -33.821400
H -12.522800 -16.490000 -32.963100
C -12.211600 -15.876200 -32.308600
C -12.148900 -14.527900 -32.593800
H -11.853700 -17.261100 -30.869300
H -11.840400 -16.154700 -28.186800
C -11.816500 -16.330100 -31.056900
C -11.672700 -13.640400 -31.640400
H -11.602700 -12.715300 -31.843100
C -11.366400 -15.458500 -30.069100
C -11.297000 -14.108500 -30.388400
C -11.006000 -16.025800 -28.705200
H -10.987600 -13.491800 -29.735000
H -10.592000 -16.915600 -28.833200
H -10.489100 -14.288100 -27.705000
O -10.241900 -16.850500 -26.237300
C -10.055800 -15.159900 -27.887800
C -9.663500 -15.802300 -26.575600
H -9.481200 -17.244600 -24.703300
H -9.238600 -14.985900 -28.419400
O -8.890700 -17.053200 -24.137500
C -8.626300 -15.238100 -25.723800
O -8.270600 -13.314200 -27.079700
C -8.246000 -15.939300 -24.521700
C -7.904900 -14.042800 -25.994800
H -7.688500 -12.729400 -27.233500
C -7.206500 -15.501200 -23.722300
H -6.967100 -15.986600 -22.941000
C -6.860100 -13.612100 -25.196600
C -6.514300 -14.348600 -24.066100
H -6.382800 -12.820500 -25.417700
O -5.498400 -13.865200 -23.320200
H -5.313900 -14.412100 -22.710400
17
Fragment
H -11.002200 -9.727400 -20.480700
H -10.728300 -10.039700 -24.882400
H -10.705900 -9.302700 -22.726900
C -10.338500 -10.215900 -20.951800
C -10.161600 -9.946000 -22.290200
N -9.924300 -10.125500 -25.230500
N -9.738800 -9.973000 -26.625400
N -9.630200 -11.123500 -20.281700
H -9.569100 -9.110700 -26.725000
C -9.181100 -10.624700 -22.989400
H -9.126900 -10.518000 -26.891800
C -8.883800 -10.399300 -24.442400
C -8.697900 -11.777000 -20.974800
C -8.422400 -11.560500 -22.305200
H -8.187800 -12.436400 -20.519900
O -7.736200 -10.497600 -24.882600
H -7.730300 -12.040200 -22.743300
51
Fragment
H -13.089400 -14.546000 -34.173700
O -12.531700 -14.026900 -33.821400
H -12.522800 -16.490000 -32.963100
C -12.211600 -15.876200 -32.308600
C -12.148900 -14.527900 -32.593800
H -11.853700 -17.261100 -30.869300
H -11.840400 -16.154700 -28.186800
C -11.816500 -16.330100 -31.056900
C -11.672700 -13.640400 -31.640400
H -11.602700 -12.715300 -31.843100
C -11.366400 -15.458500 -30.069100
C -11.297000 -14.108500 -30.388400
C -11.006000 -16.025800 -28.705200
H -10.987600 -13.491800 -29.735000
H -10.592000 -16.915600 -28.833200
H -10.489100 -14.288100 -27.705000
O -10.241900 -16.850500 -26.237300
C -10.055800 -15.159900 -27.887800
C -9.663500 -15.802300 -26.575600
H -9.481200 -17.244600 -24.703300
H -9.238600 -14.985900 -28.419400
O -8.890700 -17.053200 -24.137500
C -8.626300 -15.238100 -25.723800
O -8.270600 -13.314200 -27.079700
C -8.246000 -15.939300 -24.521700
C -7.904900 -14.042800 -25.994800
H -7.688500 -12.729400 -27.233500
C -7.206500 -15.501200 -23.722300
H -6.967100 -15.986600 -22.941000
C -6.860100 -13.612100 -25.196600
C -6.514300 -14.348600 -24.066100
H -6.382800 -12.820500 -25.417700
O -5.498400 -13.865200 -23.320200
H -5.313900 -14.412100 -22.710400
H -11.002200 -9.727400 -20.480700
H -10.728300 -10.039700 -24.882400
H -10.705900 -9.302700 -22.726900
C -10.338500 -10.215900 -20.951800
C -10.161600 -9.946000 -22.290200
N -9.924300 -10.125500 -25.230500
N -9.738800 -9.973000 -26.625400
N -9.630200 -11.123500 -20.281700
H -9.569100 -9.110700 -26.725000
C -9.181100 -10.624700 -22.989400
H -9.126900 -10.518000 -26.891800
C -8.883800 -10.399300 -24.442400
C -8.697900 -11.777000 -20.974800
C -8.422400 -11.560500 -22.305200
H -8.187800 -12.436400 -20.519900
O -7.736200 -10.497600 -24.882600
H -7.730300 -12.040200 -22.743300
