19
Fragment
H -12.673100 -20.854000 -13.169700
H -12.574800 -19.071700 -14.658600
H -12.540600 -18.825200 -16.198300
N -12.319800 -19.355000 -15.497600
C -11.594100 -20.904300 -13.337500
C -11.562300 -20.408500 -15.722100
N -11.333400 -20.193400 -18.232000
H -11.275400 -21.447900 -12.779800
H -11.270500 -20.064800 -13.068100
N -11.165300 -21.222800 -14.698800
C -11.127200 -20.785300 -16.990000
H -10.674900 -20.853900 -20.015100
C -10.673200 -20.964900 -19.045000
C -10.368800 -22.394200 -14.894900
C -10.333100 -21.901700 -17.103500
O -10.108500 -23.075200 -13.877500
N -10.040500 -22.018100 -18.426900
N -9.927500 -22.722800 -16.112100
H -9.560900 -22.701200 -18.833400
19
Fragment
H -12.886500 -24.186700 -16.616600
N -12.519900 -24.165200 -19.338000
N -12.406900 -24.869900 -17.023100
O -12.338900 -23.812800 -21.572500
C -12.114300 -24.986300 -18.346600
C -12.078600 -24.493700 -20.555100
C -11.774200 -25.923000 -16.405100
H -11.772500 -26.034100 -15.435000
C -11.320300 -26.102600 -18.460000
N -11.282100 -25.665200 -20.751300
H -11.176900 -26.823100 -22.382000
H -11.172000 -25.440100 -22.670300
N -11.114000 -26.694500 -17.218100
C -10.885200 -26.479500 -19.728000
C -10.853400 -25.983600 -22.112600
N -10.127600 -27.533000 -19.952500
H -9.906800 -28.062700 -19.251800
H -9.872600 -27.816300 -20.791500
H -9.774300 -26.034000 -22.280400
38
Fragment
H -12.673100 -20.854000 -13.169700
H -12.574800 -19.071700 -14.658600
H -12.540600 -18.825200 -16.198300
N -12.319800 -19.355000 -15.497600
C -11.594100 -20.904300 -13.337500
C -11.562300 -20.408500 -15.722100
N -11.333400 -20.193400 -18.232000
H -11.275400 -21.447900 -12.779800
H -11.270500 -20.064800 -13.068100
N -11.165300 -21.222800 -14.698800
C -11.127200 -20.785300 -16.990000
H -10.674900 -20.853900 -20.015100
C -10.673200 -20.964900 -19.045000
C -10.368800 -22.394200 -14.894900
C -10.333100 -21.901700 -17.103500
O -10.108500 -23.075200 -13.877500
N -10.040500 -22.018100 -18.426900
N -9.927500 -22.722800 -16.112100
H -9.560900 -22.701200 -18.833400
H -12.886500 -24.186700 -16.616600
N -12.519900 -24.165200 -19.338000
N -12.406900 -24.869900 -17.023100
O -12.338900 -23.812800 -21.572500
C -12.114300 -24.986300 -18.346600
C -12.078600 -24.493700 -20.555100
C -11.774200 -25.923000 -16.405100
H -11.772500 -26.034100 -15.435000
C -11.320300 -26.102600 -18.460000
N -11.282100 -25.665200 -20.751300
H -11.176900 -26.823100 -22.382000
H -11.172000 -25.440100 -22.670300
N -11.114000 -26.694500 -17.218100
C -10.885200 -26.479500 -19.728000
C -10.853400 -25.983600 -22.112600
N -10.127600 -27.533000 -19.952500
H -9.906800 -28.062700 -19.251800
H -9.872600 -27.816300 -20.791500
H -9.774300 -26.034000 -22.280400
