19
Fragment
H -12.673100 -20.854000 -13.169700
H -12.574800 -19.071700 -14.658600
H -12.540600 -18.825200 -16.198300
N -12.319800 -19.355000 -15.497600
C -11.594100 -20.904300 -13.337500
C -11.562300 -20.408500 -15.722100
N -11.333400 -20.193400 -18.232000
H -11.275400 -21.447900 -12.779800
H -11.270500 -20.064800 -13.068100
N -11.165300 -21.222800 -14.698800
C -11.127200 -20.785300 -16.990000
H -10.674900 -20.853900 -20.015100
C -10.673200 -20.964900 -19.045000
C -10.368800 -22.394200 -14.894900
C -10.333100 -21.901700 -17.103500
O -10.108500 -23.075200 -13.877500
N -10.040500 -22.018100 -18.426900
N -9.927500 -22.722800 -16.112100
H -9.560900 -22.701200 -18.833400
19
Fragment
H -11.711600 -20.969700 -4.799900
N -11.345000 -20.948200 -7.521300
N -11.232000 -21.652900 -5.206400
O -11.164000 -20.595800 -9.755900
C -10.939400 -21.769300 -6.529900
C -10.903700 -21.276700 -8.738400
C -10.599300 -22.706000 -4.588400
H -10.597600 -22.817000 -3.618300
C -10.145300 -22.885600 -6.643300
N -10.107200 -22.448200 -8.934600
H -10.002000 -23.606100 -10.565300
H -9.997100 -22.223100 -10.853600
N -9.939100 -23.477500 -5.401400
C -9.710200 -23.262500 -7.911300
C -9.678400 -22.766600 -10.295900
N -8.952700 -24.315900 -8.135800
H -8.731900 -24.845700 -7.435100
H -8.697700 -24.599300 -8.974800
H -8.599400 -22.817000 -10.463700
38
Fragment
H -12.673100 -20.854000 -13.169700
H -12.574800 -19.071700 -14.658600
H -12.540600 -18.825200 -16.198300
N -12.319800 -19.355000 -15.497600
C -11.594100 -20.904300 -13.337500
C -11.562300 -20.408500 -15.722100
N -11.333400 -20.193400 -18.232000
H -11.275400 -21.447900 -12.779800
H -11.270500 -20.064800 -13.068100
N -11.165300 -21.222800 -14.698800
C -11.127200 -20.785300 -16.990000
H -10.674900 -20.853900 -20.015100
C -10.673200 -20.964900 -19.045000
C -10.368800 -22.394200 -14.894900
C -10.333100 -21.901700 -17.103500
O -10.108500 -23.075200 -13.877500
N -10.040500 -22.018100 -18.426900
N -9.927500 -22.722800 -16.112100
H -9.560900 -22.701200 -18.833400
H -11.711600 -20.969700 -4.799900
N -11.345000 -20.948200 -7.521300
N -11.232000 -21.652900 -5.206400
O -11.164000 -20.595800 -9.755900
C -10.939400 -21.769300 -6.529900
C -10.903700 -21.276700 -8.738400
C -10.599300 -22.706000 -4.588400
H -10.597600 -22.817000 -3.618300
C -10.145300 -22.885600 -6.643300
N -10.107200 -22.448200 -8.934600
H -10.002000 -23.606100 -10.565300
H -9.997100 -22.223100 -10.853600
N -9.939100 -23.477500 -5.401400
C -9.710200 -23.262500 -7.911300
C -9.678400 -22.766600 -10.295900
N -8.952700 -24.315900 -8.135800
H -8.731900 -24.845700 -7.435100
H -8.697700 -24.599300 -8.974800
H -8.599400 -22.817000 -10.463700
