20
Fragment
H -4.821700 -13.529400 -24.615200
O -4.090300 -13.808200 -23.916700
O -3.463600 -11.715300 -24.128000
C -3.379700 -12.774300 -23.554100
H -2.908100 -13.228000 -21.634300
C -2.410600 -13.052300 -22.448900
H -1.930100 -11.131300 -21.940200
H -1.910600 -13.854100 -22.667400
C -1.434600 -11.927500 -22.188800
H -0.953200 -11.731600 -23.007900
H -0.918700 -12.442400 -20.278000
C -0.437300 -12.246500 -21.097100
H 0.038800 -10.319900 -20.618500
H 0.058200 -13.042700 -21.345700
C 0.538800 -11.121700 -20.836900
H 1.036300 -10.946000 -21.651600
C 1.507900 -11.399700 -19.731700
O 1.591800 -12.458700 -19.157900
O 2.218500 -10.365800 -19.369100
H 2.949800 -10.644600 -18.670600
20
Fragment
H 1.539300 -13.529400 -24.615200
O 2.270700 -13.808200 -23.916700
O 2.897400 -11.715300 -24.128000
C 2.981300 -12.774300 -23.554100
H 3.452900 -13.228000 -21.634300
C 3.950400 -13.052300 -22.448900
H 4.430900 -11.131300 -21.940200
H 4.450400 -13.854100 -22.667400
C 4.926400 -11.927500 -22.188800
H 5.407800 -11.731600 -23.007900
H 5.442300 -12.442400 -20.278000
C 5.923700 -12.246500 -21.097100
H 6.399800 -10.319900 -20.618500
H 6.419200 -13.042700 -21.345700
C 6.899800 -11.121700 -20.836900
H 7.397300 -10.946000 -21.651600
C 7.868900 -11.399700 -19.731700
O 7.952800 -12.458700 -19.157900
O 8.579500 -10.365800 -19.369100
H 9.310800 -10.644600 -18.670600
40
Fragment
H -4.821700 -13.529400 -24.615200
O -4.090300 -13.808200 -23.916700
O -3.463600 -11.715300 -24.128000
C -3.379700 -12.774300 -23.554100
H -2.908100 -13.228000 -21.634300
C -2.410600 -13.052300 -22.448900
H -1.930100 -11.131300 -21.940200
H -1.910600 -13.854100 -22.667400
C -1.434600 -11.927500 -22.188800
H -0.953200 -11.731600 -23.007900
H -0.918700 -12.442400 -20.278000
C -0.437300 -12.246500 -21.097100
H 0.038800 -10.319900 -20.618500
H 0.058200 -13.042700 -21.345700
C 0.538800 -11.121700 -20.836900
H 1.036300 -10.946000 -21.651600
C 1.507900 -11.399700 -19.731700
O 1.591800 -12.458700 -19.157900
O 2.218500 -10.365800 -19.369100
H 2.949800 -10.644600 -18.670600
H 1.539300 -13.529400 -24.615200
O 2.270700 -13.808200 -23.916700
O 2.897400 -11.715300 -24.128000
C 2.981300 -12.774300 -23.554100
H 3.452900 -13.228000 -21.634300
C 3.950400 -13.052300 -22.448900
H 4.430900 -11.131300 -21.940200
H 4.450400 -13.854100 -22.667400
C 4.926400 -11.927500 -22.188800
H 5.407800 -11.731600 -23.007900
H 5.442300 -12.442400 -20.278000
C 5.923700 -12.246500 -21.097100
H 6.399800 -10.319900 -20.618500
H 6.419200 -13.042700 -21.345700
C 6.899800 -11.121700 -20.836900
H 7.397300 -10.946000 -21.651600
C 7.868900 -11.399700 -19.731700
O 7.952800 -12.458700 -19.157900
O 8.579500 -10.365800 -19.369100
H 9.310800 -10.644600 -18.670600
