10
Fragment
H -9.979500 -9.803400 -20.717400
N -9.897800 -8.356200 -22.083200
C -9.546300 -9.041100 -21.026500
N -9.000700 -7.303900 -22.200900
N -8.464600 -8.479900 -20.452300
C -8.149200 -7.401800 -21.211400
N -7.893200 -8.935600 -19.247400
H -7.892600 -8.206700 -18.666800
H -7.438600 -6.821900 -21.053800
H -7.063200 -9.230600 -19.399800
14
Fragment
O -5.780500 -9.101000 -17.345400
O -5.531900 -10.412200 -20.497500
H -5.427200 -11.616100 -18.282000
C -4.725400 -9.422800 -16.837800
C -4.618300 -10.392500 -19.693900
C -4.535700 -11.299800 -18.498200
O -4.218700 -8.690800 -15.854800
H -3.996300 -12.072300 -18.727100
C -3.939500 -10.630700 -17.268200
H -3.914400 -11.269900 -16.538400
H -3.699300 -9.033000 -20.585200
O -3.584200 -9.576900 -19.795600
H -3.392900 -9.017800 -15.545400
H -3.026700 -10.363600 -17.462300
24
Fragment
H -9.979500 -9.803400 -20.717400
N -9.897800 -8.356200 -22.083200
C -9.546300 -9.041100 -21.026500
N -9.000700 -7.303900 -22.200900
N -8.464600 -8.479900 -20.452300
C -8.149200 -7.401800 -21.211400
N -7.893200 -8.935600 -19.247400
H -7.892600 -8.206700 -18.666800
H -7.438600 -6.821900 -21.053800
H -7.063200 -9.230600 -19.399800
O -5.780500 -9.101000 -17.345400
O -5.531900 -10.412200 -20.497500
H -5.427200 -11.616100 -18.282000
C -4.725400 -9.422800 -16.837800
C -4.618300 -10.392500 -19.693900
C -4.535700 -11.299800 -18.498200
O -4.218700 -8.690800 -15.854800
H -3.996300 -12.072300 -18.727100
C -3.939500 -10.630700 -17.268200
H -3.914400 -11.269900 -16.538400
H -3.699300 -9.033000 -20.585200
O -3.584200 -9.576900 -19.795600
H -3.392900 -9.017800 -15.545400
H -3.026700 -10.363600 -17.462300
