10
Fragment
H -9.979500 -9.803400 -20.717400
N -9.897800 -8.356200 -22.083200
C -9.546300 -9.041100 -21.026500
N -9.000700 -7.303900 -22.200900
N -8.464600 -8.479900 -20.452300
C -8.149200 -7.401800 -21.211400
N -7.893200 -8.935600 -19.247400
H -7.892600 -8.206700 -18.666800
H -7.438600 -6.821900 -21.053800
H -7.063200 -9.230600 -19.399800
14
Fragment
H -13.470500 -7.829100 -19.260300
H -13.104300 -6.483300 -21.177200
O -12.913000 -7.042400 -16.927100
H -12.797900 -6.498500 -16.137400
H -12.582800 -8.735400 -20.184200
C -12.557700 -8.096200 -19.454500
H -12.500900 -9.537800 -17.995600
O -12.278500 -6.156300 -20.867900
C -11.961500 -8.765300 -18.224400
C -11.878900 -7.858000 -17.028700
C -11.771800 -6.888300 -19.884900
H -11.070000 -9.081600 -18.440600
O -10.965300 -7.877700 -16.225100
O -10.716700 -6.566500 -19.377200
24
Fragment
H -9.979500 -9.803400 -20.717400
N -9.897800 -8.356200 -22.083200
C -9.546300 -9.041100 -21.026500
N -9.000700 -7.303900 -22.200900
N -8.464600 -8.479900 -20.452300
C -8.149200 -7.401800 -21.211400
N -7.893200 -8.935600 -19.247400
H -7.892600 -8.206700 -18.666800
H -7.438600 -6.821900 -21.053800
H -7.063200 -9.230600 -19.399800
H -13.470500 -7.829100 -19.260300
H -13.104300 -6.483300 -21.177200
O -12.913000 -7.042400 -16.927100
H -12.797900 -6.498500 -16.137400
H -12.582800 -8.735400 -20.184200
C -12.557700 -8.096200 -19.454500
H -12.500900 -9.537800 -17.995600
O -12.278500 -6.156300 -20.867900
C -11.961500 -8.765300 -18.224400
C -11.878900 -7.858000 -17.028700
C -11.771800 -6.888300 -19.884900
H -11.070000 -9.081600 -18.440600
O -10.965300 -7.877700 -16.225100
O -10.716700 -6.566500 -19.377200
