10
Fragment
H -9.979500 -9.803400 -20.717400
N -9.897800 -8.356200 -22.083200
C -9.546300 -9.041100 -21.026500
N -9.000700 -7.303900 -22.200900
N -8.464600 -8.479900 -20.452300
C -8.149200 -7.401800 -21.211400
N -7.893200 -8.935600 -19.247400
H -7.892600 -8.206700 -18.666800
H -7.438600 -6.821900 -21.053800
H -7.063200 -9.230600 -19.399800
10
Fragment
H -9.434000 -6.696100 -17.322800
H -9.058600 -4.287400 -15.668800
H -8.604700 -5.672200 -18.055800
N -8.604000 -6.401100 -17.475300
C -8.348100 -4.867300 -15.511200
N -8.032600 -5.945400 -16.270300
N -7.496500 -4.769400 -14.521700
C -6.950900 -6.506600 -15.696100
N -6.599500 -5.821700 -14.639400
H -6.517700 -7.268900 -16.005200
20
Fragment
H -9.979500 -9.803400 -20.717400
N -9.897800 -8.356200 -22.083200
C -9.546300 -9.041100 -21.026500
N -9.000700 -7.303900 -22.200900
N -8.464600 -8.479900 -20.452300
C -8.149200 -7.401800 -21.211400
N -7.893200 -8.935600 -19.247400
H -7.892600 -8.206700 -18.666800
H -7.438600 -6.821900 -21.053800
H -7.063200 -9.230600 -19.399800
H -9.434000 -6.696100 -17.322800
H -9.058600 -4.287400 -15.668800
H -8.604700 -5.672200 -18.055800
N -8.604000 -6.401100 -17.475300
C -8.348100 -4.867300 -15.511200
N -8.032600 -5.945400 -16.270300
N -7.496500 -4.769400 -14.521700
C -6.950900 -6.506600 -15.696100
N -6.599500 -5.821700 -14.639400
H -6.517700 -7.268900 -16.005200
