20
Fragment
H -4.821700 -13.529400 -24.615200
O -4.090300 -13.808200 -23.916700
O -3.463600 -11.715300 -24.128000
C -3.379700 -12.774300 -23.554100
H -2.908100 -13.228000 -21.634300
C -2.410600 -13.052300 -22.448900
H -1.930100 -11.131300 -21.940200
H -1.910600 -13.854100 -22.667400
C -1.434600 -11.927500 -22.188800
H -0.953200 -11.731600 -23.007900
H -0.918700 -12.442400 -20.278000
C -0.437300 -12.246500 -21.097100
H 0.038800 -10.319900 -20.618500
H 0.058200 -13.042700 -21.345700
C 0.538800 -11.121700 -20.836900
H 1.036300 -10.946000 -21.651600
C 1.507900 -11.399700 -19.731700
O 1.591800 -12.458700 -19.157900
O 2.218500 -10.365800 -19.369100
H 2.949800 -10.644600 -18.670600
20
Fragment
H -11.182700 -13.529400 -24.615200
O -10.451300 -13.808200 -23.916700
O -9.824600 -11.715300 -24.128000
C -9.740700 -12.774300 -23.554100
H -9.269100 -13.228000 -21.634300
C -8.771600 -13.052300 -22.448900
H -8.291100 -11.131300 -21.940200
H -8.271600 -13.854100 -22.667400
C -7.795600 -11.927500 -22.188800
H -7.314200 -11.731600 -23.007900
H -7.279700 -12.442400 -20.278000
C -6.798300 -12.246500 -21.097100
H -6.322200 -10.319900 -20.618500
H -6.302800 -13.042700 -21.345700
C -5.822200 -11.121700 -20.836900
H -5.324700 -10.946000 -21.651600
C -4.853100 -11.399700 -19.731700
O -4.769200 -12.458700 -19.157900
O -4.142500 -10.365800 -19.369100
H -3.411200 -10.644600 -18.670600
40
Fragment
H -4.821700 -13.529400 -24.615200
O -4.090300 -13.808200 -23.916700
O -3.463600 -11.715300 -24.128000
C -3.379700 -12.774300 -23.554100
H -2.908100 -13.228000 -21.634300
C -2.410600 -13.052300 -22.448900
H -1.930100 -11.131300 -21.940200
H -1.910600 -13.854100 -22.667400
C -1.434600 -11.927500 -22.188800
H -0.953200 -11.731600 -23.007900
H -0.918700 -12.442400 -20.278000
C -0.437300 -12.246500 -21.097100
H 0.038800 -10.319900 -20.618500
H 0.058200 -13.042700 -21.345700
C 0.538800 -11.121700 -20.836900
H 1.036300 -10.946000 -21.651600
C 1.507900 -11.399700 -19.731700
O 1.591800 -12.458700 -19.157900
O 2.218500 -10.365800 -19.369100
H 2.949800 -10.644600 -18.670600
H -11.182700 -13.529400 -24.615200
O -10.451300 -13.808200 -23.916700
O -9.824600 -11.715300 -24.128000
C -9.740700 -12.774300 -23.554100
H -9.269100 -13.228000 -21.634300
C -8.771600 -13.052300 -22.448900
H -8.291100 -11.131300 -21.940200
H -8.271600 -13.854100 -22.667400
C -7.795600 -11.927500 -22.188800
H -7.314200 -11.731600 -23.007900
H -7.279700 -12.442400 -20.278000
C -6.798300 -12.246500 -21.097100
H -6.322200 -10.319900 -20.618500
H -6.302800 -13.042700 -21.345700
C -5.822200 -11.121700 -20.836900
H -5.324700 -10.946000 -21.651600
C -4.853100 -11.399700 -19.731700
O -4.769200 -12.458700 -19.157900
O -4.142500 -10.365800 -19.369100
H -3.411200 -10.644600 -18.670600
