20
Fragment
H -4.821700 -13.529400 -24.615200
O -4.090300 -13.808200 -23.916700
O -3.463600 -11.715300 -24.128000
C -3.379700 -12.774300 -23.554100
H -2.908100 -13.228000 -21.634300
C -2.410600 -13.052300 -22.448900
H -1.930100 -11.131300 -21.940200
H -1.910600 -13.854100 -22.667400
C -1.434600 -11.927500 -22.188800
H -0.953200 -11.731600 -23.007900
H -0.918700 -12.442400 -20.278000
C -0.437300 -12.246500 -21.097100
H 0.038800 -10.319900 -20.618500
H 0.058200 -13.042700 -21.345700
C 0.538800 -11.121700 -20.836900
H 1.036300 -10.946000 -21.651600
C 1.507900 -11.399700 -19.731700
O 1.591800 -12.458700 -19.157900
O 2.218500 -10.365800 -19.369100
H 2.949800 -10.644600 -18.670600
10
Fragment
N -7.093700 -16.326300 -23.707400
N -6.861900 -17.219100 -24.743800
C -5.958700 -16.190900 -23.083800
H -5.829700 -15.661500 -22.329700
C -5.603500 -17.547100 -24.704000
H -5.184700 -18.128900 -25.296200
N -4.997100 -16.921100 -23.679500
N -3.654500 -16.971000 -23.257500
H -3.370900 -17.784000 -23.525900
H -3.143100 -16.333600 -23.749500
30
Fragment
H -4.821700 -13.529400 -24.615200
O -4.090300 -13.808200 -23.916700
O -3.463600 -11.715300 -24.128000
C -3.379700 -12.774300 -23.554100
H -2.908100 -13.228000 -21.634300
C -2.410600 -13.052300 -22.448900
H -1.930100 -11.131300 -21.940200
H -1.910600 -13.854100 -22.667400
C -1.434600 -11.927500 -22.188800
H -0.953200 -11.731600 -23.007900
H -0.918700 -12.442400 -20.278000
C -0.437300 -12.246500 -21.097100
H 0.038800 -10.319900 -20.618500
H 0.058200 -13.042700 -21.345700
C 0.538800 -11.121700 -20.836900
H 1.036300 -10.946000 -21.651600
C 1.507900 -11.399700 -19.731700
O 1.591800 -12.458700 -19.157900
O 2.218500 -10.365800 -19.369100
H 2.949800 -10.644600 -18.670600
N -7.093700 -16.326300 -23.707400
N -6.861900 -17.219100 -24.743800
C -5.958700 -16.190900 -23.083800
H -5.829700 -15.661500 -22.329700
C -5.603500 -17.547100 -24.704000
H -5.184700 -18.128900 -25.296200
N -4.997100 -16.921100 -23.679500
N -3.654500 -16.971000 -23.257500
H -3.370900 -17.784000 -23.525900
H -3.143100 -16.333600 -23.749500
