10
Fragment
H -9.979500 -9.803400 -20.717400
N -9.897800 -8.356200 -22.083200
C -9.546300 -9.041100 -21.026500
N -9.000700 -7.303900 -22.200900
N -8.464600 -8.479900 -20.452300
C -8.149200 -7.401800 -21.211400
N -7.893200 -8.935600 -19.247400
H -7.892600 -8.206700 -18.666800
H -7.438600 -6.821900 -21.053800
H -7.063200 -9.230600 -19.399800
10
Fragment
H -9.979500 -4.734400 -20.717400
N -9.897800 -3.287200 -22.083200
C -9.546300 -3.972100 -21.026500
N -9.000700 -2.234900 -22.200900
N -8.464600 -3.410900 -20.452300
C -8.149200 -2.332800 -21.211400
N -7.893200 -3.866600 -19.247400
H -7.892600 -3.137700 -18.666800
H -7.438600 -1.752900 -21.053800
H -7.063200 -4.161600 -19.399800
20
Fragment
H -9.979500 -9.803400 -20.717400
N -9.897800 -8.356200 -22.083200
C -9.546300 -9.041100 -21.026500
N -9.000700 -7.303900 -22.200900
N -8.464600 -8.479900 -20.452300
C -8.149200 -7.401800 -21.211400
N -7.893200 -8.935600 -19.247400
H -7.892600 -8.206700 -18.666800
H -7.438600 -6.821900 -21.053800
H -7.063200 -9.230600 -19.399800
H -9.979500 -4.734400 -20.717400
N -9.897800 -3.287200 -22.083200
C -9.546300 -3.972100 -21.026500
N -9.000700 -2.234900 -22.200900
N -8.464600 -3.410900 -20.452300
C -8.149200 -2.332800 -21.211400
N -7.893200 -3.866600 -19.247400
H -7.892600 -3.137700 -18.666800
H -7.438600 -1.752900 -21.053800
H -7.063200 -4.161600 -19.399800
