24
Fragment
O -20.455900 -20.614700 -15.019600
H -20.076500 -18.461900 -14.812300
N -20.003700 -20.532100 -16.148400
O -19.948200 -21.464900 -16.935200
O -19.783900 -15.973100 -14.109500
C -19.614300 -18.136100 -15.684100
C -19.516800 -19.217800 -16.584800
N -19.217200 -15.800200 -15.177200
C -19.147500 -16.928000 -16.103900
C -19.000400 -19.109800 -17.860800
H -18.943100 -19.881100 -18.378100
O -18.662300 -14.767800 -15.496500
C -18.595800 -16.741100 -17.384000
C -18.547600 -17.853100 -18.235000
H -18.079800 -14.714500 -17.870200
C -18.050700 -15.672400 -18.128300
N -18.020800 -17.401900 -19.420800
N -18.005700 -19.383100 -20.791200
C -17.778900 -18.089000 -20.613900
N -17.720400 -16.070000 -19.348300
N -17.641500 -19.585200 -22.071300
N -17.306800 -17.497900 -21.694000
N -17.218200 -18.489800 -22.598900
H -17.041500 -16.574800 -21.943800
24
Fragment
H -25.591900 -19.505100 -9.152800
N -25.415200 -17.590100 -8.497700
N -25.326600 -18.582000 -9.402600
N -24.991900 -16.494700 -9.025300
N -24.913000 -20.009900 -11.748300
C -24.854500 -17.990900 -10.482600
N -24.627700 -16.696800 -10.305400
N -24.612600 -18.678000 -11.675700
C -24.582700 -20.407500 -12.968300
H -24.553600 -21.365400 -13.226400
C -24.085800 -18.226800 -12.861500
C -24.037600 -19.338800 -13.712500
O -23.971100 -21.312100 -15.600100
H -23.690300 -16.198800 -12.718500
C -23.633000 -16.970100 -13.235700
C -23.485900 -19.151900 -14.992700
N -23.416200 -20.279700 -15.919400
C -23.116600 -16.862100 -14.511700
C -23.019100 -17.943800 -15.412500
O -22.849500 -20.106800 -16.987000
O -22.685100 -14.615000 -14.161400
N -22.629700 -15.547800 -14.948100
H -22.556900 -17.618000 -16.284200
O -22.177500 -15.465200 -16.076900
48
Fragment
O -20.455900 -20.614700 -15.019600
H -20.076500 -18.461900 -14.812300
N -20.003700 -20.532100 -16.148400
O -19.948200 -21.464900 -16.935200
O -19.783900 -15.973100 -14.109500
C -19.614300 -18.136100 -15.684100
C -19.516800 -19.217800 -16.584800
N -19.217200 -15.800200 -15.177200
C -19.147500 -16.928000 -16.103900
C -19.000400 -19.109800 -17.860800
H -18.943100 -19.881100 -18.378100
O -18.662300 -14.767800 -15.496500
C -18.595800 -16.741100 -17.384000
C -18.547600 -17.853100 -18.235000
H -18.079800 -14.714500 -17.870200
C -18.050700 -15.672400 -18.128300
N -18.020800 -17.401900 -19.420800
N -18.005700 -19.383100 -20.791200
C -17.778900 -18.089000 -20.613900
N -17.720400 -16.070000 -19.348300
N -17.641500 -19.585200 -22.071300
N -17.306800 -17.497900 -21.694000
N -17.218200 -18.489800 -22.598900
H -17.041500 -16.574800 -21.943800
H -25.591900 -19.505100 -9.152800
N -25.415200 -17.590100 -8.497700
N -25.326600 -18.582000 -9.402600
N -24.991900 -16.494700 -9.025300
N -24.913000 -20.009900 -11.748300
C -24.854500 -17.990900 -10.482600
N -24.627700 -16.696800 -10.305400
N -24.612600 -18.678000 -11.675700
C -24.582700 -20.407500 -12.968300
H -24.553600 -21.365400 -13.226400
C -24.085800 -18.226800 -12.861500
C -24.037600 -19.338800 -13.712500
O -23.971100 -21.312100 -15.600100
H -23.690300 -16.198800 -12.718500
C -23.633000 -16.970100 -13.235700
C -23.485900 -19.151900 -14.992700
N -23.416200 -20.279700 -15.919400
C -23.116600 -16.862100 -14.511700
C -23.019100 -17.943800 -15.412500
O -22.849500 -20.106800 -16.987000
O -22.685100 -14.615000 -14.161400
N -22.629700 -15.547800 -14.948100
H -22.556900 -17.618000 -16.284200
O -22.177500 -15.465200 -16.076900
