24
Fragment
O -20.455900 -20.614700 -15.019600
H -20.076500 -18.461900 -14.812300
N -20.003700 -20.532100 -16.148400
O -19.948200 -21.464900 -16.935200
O -19.783900 -15.973100 -14.109500
C -19.614300 -18.136100 -15.684100
C -19.516800 -19.217800 -16.584800
N -19.217200 -15.800200 -15.177200
C -19.147500 -16.928000 -16.103900
C -19.000400 -19.109800 -17.860800
H -18.943100 -19.881100 -18.378100
O -18.662300 -14.767800 -15.496500
C -18.595800 -16.741100 -17.384000
C -18.547600 -17.853100 -18.235000
H -18.079800 -14.714500 -17.870200
C -18.050700 -15.672400 -18.128300
N -18.020800 -17.401900 -19.420800
N -18.005700 -19.383100 -20.791200
C -17.778900 -18.089000 -20.613900
N -17.720400 -16.070000 -19.348300
N -17.641500 -19.585200 -22.071300
N -17.306800 -17.497900 -21.694000
N -17.218200 -18.489800 -22.598900
H -17.041500 -16.574800 -21.943800
3
Fragment
O -21.355300 -22.244200 -12.814900
H -21.349400 -21.324800 -12.490400
H -21.241400 -22.105400 -13.806900
27
Fragment
O -20.455900 -20.614700 -15.019600
H -20.076500 -18.461900 -14.812300
N -20.003700 -20.532100 -16.148400
O -19.948200 -21.464900 -16.935200
O -19.783900 -15.973100 -14.109500
C -19.614300 -18.136100 -15.684100
C -19.516800 -19.217800 -16.584800
N -19.217200 -15.800200 -15.177200
C -19.147500 -16.928000 -16.103900
C -19.000400 -19.109800 -17.860800
H -18.943100 -19.881100 -18.378100
O -18.662300 -14.767800 -15.496500
C -18.595800 -16.741100 -17.384000
C -18.547600 -17.853100 -18.235000
H -18.079800 -14.714500 -17.870200
C -18.050700 -15.672400 -18.128300
N -18.020800 -17.401900 -19.420800
N -18.005700 -19.383100 -20.791200
C -17.778900 -18.089000 -20.613900
N -17.720400 -16.070000 -19.348300
N -17.641500 -19.585200 -22.071300
N -17.306800 -17.497900 -21.694000
N -17.218200 -18.489800 -22.598900
H -17.041500 -16.574800 -21.943800
O -21.355300 -22.244200 -12.814900
H -21.349400 -21.324800 -12.490400
H -21.241400 -22.105400 -13.806900
