24
Fragment
O -20.455900 -20.614700 -15.019600
H -20.076500 -18.461900 -14.812300
N -20.003700 -20.532100 -16.148400
O -19.948200 -21.464900 -16.935200
O -19.783900 -15.973100 -14.109500
C -19.614300 -18.136100 -15.684100
C -19.516800 -19.217800 -16.584800
N -19.217200 -15.800200 -15.177200
C -19.147500 -16.928000 -16.103900
C -19.000400 -19.109800 -17.860800
H -18.943100 -19.881100 -18.378100
O -18.662300 -14.767800 -15.496500
C -18.595800 -16.741100 -17.384000
C -18.547600 -17.853100 -18.235000
H -18.079800 -14.714500 -17.870200
C -18.050700 -15.672400 -18.128300
N -18.020800 -17.401900 -19.420800
N -18.005700 -19.383100 -20.791200
C -17.778900 -18.089000 -20.613900
N -17.720400 -16.070000 -19.348300
N -17.641500 -19.585200 -22.071300
N -17.306800 -17.497900 -21.694000
N -17.218200 -18.489800 -22.598900
H -17.041500 -16.574800 -21.943800
24
Fragment
O -24.087900 -20.681400 -4.654100
H -23.708500 -18.528600 -4.446800
N -23.635700 -20.598800 -5.782900
O -23.580200 -21.531600 -6.569700
O -23.415800 -16.039800 -3.744000
C -23.246300 -18.202800 -5.318500
C -23.148700 -19.284500 -6.219300
N -22.849100 -15.866900 -4.811700
C -22.779500 -16.994700 -5.738400
C -22.632400 -19.176500 -7.495300
H -22.575100 -19.947800 -8.012500
O -22.294200 -14.834500 -5.130900
C -22.227800 -16.807800 -7.018500
C -22.179500 -17.919700 -7.869500
H -21.711800 -14.781100 -7.504600
C -21.682600 -15.739100 -7.762700
N -21.652800 -17.468600 -9.055300
N -21.637700 -19.449700 -10.425600
C -21.410900 -18.155700 -10.248400
N -21.352300 -16.136700 -8.982800
N -21.273500 -19.651900 -11.705800
N -20.938800 -17.564600 -11.328500
N -20.850200 -18.556500 -12.233400
H -20.673400 -16.641500 -11.578300
48
Fragment
O -20.455900 -20.614700 -15.019600
H -20.076500 -18.461900 -14.812300
N -20.003700 -20.532100 -16.148400
O -19.948200 -21.464900 -16.935200
O -19.783900 -15.973100 -14.109500
C -19.614300 -18.136100 -15.684100
C -19.516800 -19.217800 -16.584800
N -19.217200 -15.800200 -15.177200
C -19.147500 -16.928000 -16.103900
C -19.000400 -19.109800 -17.860800
H -18.943100 -19.881100 -18.378100
O -18.662300 -14.767800 -15.496500
C -18.595800 -16.741100 -17.384000
C -18.547600 -17.853100 -18.235000
H -18.079800 -14.714500 -17.870200
C -18.050700 -15.672400 -18.128300
N -18.020800 -17.401900 -19.420800
N -18.005700 -19.383100 -20.791200
C -17.778900 -18.089000 -20.613900
N -17.720400 -16.070000 -19.348300
N -17.641500 -19.585200 -22.071300
N -17.306800 -17.497900 -21.694000
N -17.218200 -18.489800 -22.598900
H -17.041500 -16.574800 -21.943800
O -24.087900 -20.681400 -4.654100
H -23.708500 -18.528600 -4.446800
N -23.635700 -20.598800 -5.782900
O -23.580200 -21.531600 -6.569700
O -23.415800 -16.039800 -3.744000
C -23.246300 -18.202800 -5.318500
C -23.148700 -19.284500 -6.219300
N -22.849100 -15.866900 -4.811700
C -22.779500 -16.994700 -5.738400
C -22.632400 -19.176500 -7.495300
H -22.575100 -19.947800 -8.012500
O -22.294200 -14.834500 -5.130900
C -22.227800 -16.807800 -7.018500
C -22.179500 -17.919700 -7.869500
H -21.711800 -14.781100 -7.504600
C -21.682600 -15.739100 -7.762700
N -21.652800 -17.468600 -9.055300
N -21.637700 -19.449700 -10.425600
C -21.410900 -18.155700 -10.248400
N -21.352300 -16.136700 -8.982800
N -21.273500 -19.651900 -11.705800
N -20.938800 -17.564600 -11.328500
N -20.850200 -18.556500 -12.233400
H -20.673400 -16.641500 -11.578300
