3
Fragment
O -13.486200 -5.718400 -27.436300
H -13.441100 -6.131400 -28.176300
H -12.791000 -5.224500 -27.390800
3
Fragment
O -13.486200 -2.046900 -27.436300
H -13.441100 -2.459900 -28.176300
H -12.791000 -1.553000 -27.390800
6
Fragment
O -13.486200 -5.718400 -27.436300
H -13.441100 -6.131400 -28.176300
H -12.791000 -5.224500 -27.390800
O -13.486200 -2.046900 -27.436300
H -13.441100 -2.459900 -28.176300
H -12.791000 -1.553000 -27.390800
