3
Fragment
O -13.486200 -5.718400 -27.436300
H -13.441100 -6.131400 -28.176300
H -12.791000 -5.224500 -27.390800
20
Fragment
N -10.991300 -7.874300 -27.459400
N -10.529300 -7.536100 -28.691200
N -10.167100 -7.500100 -26.535900
C -9.380200 -6.935100 -28.490700
N -9.132200 -6.903200 -27.174700
H -8.987600 -6.082600 -24.704100
H -8.816400 -6.580400 -29.168900
C -8.142700 -6.019100 -25.134700
C -7.993600 -6.399100 -26.463100
H -7.119700 -5.284800 -23.539500
C -7.035400 -5.546200 -24.449900
C -6.778600 -6.315300 -27.118600
H -6.698200 -6.580100 -28.027800
C -5.802900 -5.450700 -25.081800
C -5.674600 -5.834400 -26.417700
H -5.047500 -5.125000 -24.606400
C -4.366500 -5.766800 -27.131700
O -4.228700 -6.102400 -28.291800
O -3.382700 -5.316000 -26.372400
H -2.652500 -5.411400 -26.775300
23
Fragment
O -13.486200 -5.718400 -27.436300
H -13.441100 -6.131400 -28.176300
H -12.791000 -5.224500 -27.390800
N -10.991300 -7.874300 -27.459400
N -10.529300 -7.536100 -28.691200
N -10.167100 -7.500100 -26.535900
C -9.380200 -6.935100 -28.490700
N -9.132200 -6.903200 -27.174700
H -8.987600 -6.082600 -24.704100
H -8.816400 -6.580400 -29.168900
C -8.142700 -6.019100 -25.134700
C -7.993600 -6.399100 -26.463100
H -7.119700 -5.284800 -23.539500
C -7.035400 -5.546200 -24.449900
C -6.778600 -6.315300 -27.118600
H -6.698200 -6.580100 -28.027800
C -5.802900 -5.450700 -25.081800
C -5.674600 -5.834400 -26.417700
H -5.047500 -5.125000 -24.606400
C -4.366500 -5.766800 -27.131700
O -4.228700 -6.102400 -28.291800
O -3.382700 -5.316000 -26.372400
H -2.652500 -5.411400 -26.775300
