3
Fragment
O -13.486200 -5.718400 -27.436300
H -13.441100 -6.131400 -28.176300
H -12.791000 -5.224500 -27.390800
20
Fragment
H -21.645100 -9.274600 -31.843900
O -20.915000 -9.370000 -32.246800
O -20.068900 -8.583600 -30.327400
C -19.931100 -8.919200 -31.487500
H -19.250100 -9.561000 -34.012800
C -18.623000 -8.851600 -32.201500
C -18.494700 -9.235300 -33.537400
H -17.599400 -8.105900 -30.591400
C -17.519000 -8.370700 -31.500600
C -17.262200 -9.139800 -34.169300
H -17.178000 -9.401200 -35.079700
C -16.304000 -8.286900 -32.156100
C -16.154900 -8.666900 -33.484500
H -15.481300 -8.105600 -29.450300
H -15.310000 -8.603400 -33.915100
N -15.165500 -7.782800 -31.444500
C -14.917400 -7.750900 -30.128500
N -14.130500 -7.185900 -32.083300
N -13.768300 -7.149900 -29.928000
N -13.306300 -6.811700 -31.159800
23
Fragment
O -13.486200 -5.718400 -27.436300
H -13.441100 -6.131400 -28.176300
H -12.791000 -5.224500 -27.390800
H -21.645100 -9.274600 -31.843900
O -20.915000 -9.370000 -32.246800
O -20.068900 -8.583600 -30.327400
C -19.931100 -8.919200 -31.487500
H -19.250100 -9.561000 -34.012800
C -18.623000 -8.851600 -32.201500
C -18.494700 -9.235300 -33.537400
H -17.599400 -8.105900 -30.591400
C -17.519000 -8.370700 -31.500600
C -17.262200 -9.139800 -34.169300
H -17.178000 -9.401200 -35.079700
C -16.304000 -8.286900 -32.156100
C -16.154900 -8.666900 -33.484500
H -15.481300 -8.105600 -29.450300
H -15.310000 -8.603400 -33.915100
N -15.165500 -7.782800 -31.444500
C -14.917400 -7.750900 -30.128500
N -14.130500 -7.185900 -32.083300
N -13.768300 -7.149900 -29.928000
N -13.306300 -6.811700 -31.159800
