3
Fragment
O -13.486200 -5.718400 -27.436300
H -13.441100 -6.131400 -28.176300
H -12.791000 -5.224500 -27.390800
20
Fragment
N -23.426300 -7.874300 -27.459400
N -22.964300 -7.536100 -28.691200
N -22.602100 -7.500100 -26.535900
C -21.815200 -6.935100 -28.490700
N -21.567200 -6.903200 -27.174700
H -21.422600 -6.082600 -24.704100
H -21.251400 -6.580400 -29.168900
C -20.577700 -6.019100 -25.134700
C -20.428600 -6.399100 -26.463100
H -19.554700 -5.284800 -23.539500
C -19.470400 -5.546200 -24.449900
C -19.213600 -6.315300 -27.118600
H -19.133200 -6.580100 -28.027800
C -18.237900 -5.450700 -25.081800
C -18.109600 -5.834400 -26.417700
H -17.482500 -5.125000 -24.606400
C -16.801500 -5.766800 -27.131700
O -16.663700 -6.102400 -28.291800
O -15.817700 -5.316000 -26.372400
H -15.087500 -5.411400 -26.775300
23
Fragment
O -13.486200 -5.718400 -27.436300
H -13.441100 -6.131400 -28.176300
H -12.791000 -5.224500 -27.390800
N -23.426300 -7.874300 -27.459400
N -22.964300 -7.536100 -28.691200
N -22.602100 -7.500100 -26.535900
C -21.815200 -6.935100 -28.490700
N -21.567200 -6.903200 -27.174700
H -21.422600 -6.082600 -24.704100
H -21.251400 -6.580400 -29.168900
C -20.577700 -6.019100 -25.134700
C -20.428600 -6.399100 -26.463100
H -19.554700 -5.284800 -23.539500
C -19.470400 -5.546200 -24.449900
C -19.213600 -6.315300 -27.118600
H -19.133200 -6.580100 -28.027800
C -18.237900 -5.450700 -25.081800
C -18.109600 -5.834400 -26.417700
H -17.482500 -5.125000 -24.606400
C -16.801500 -5.766800 -27.131700
O -16.663700 -6.102400 -28.291800
O -15.817700 -5.316000 -26.372400
H -15.087500 -5.411400 -26.775300
