3
Fragment
O -13.486200 -5.718400 -27.436300
H -13.441100 -6.131400 -28.176300
H -12.791000 -5.224500 -27.390800
3
Fragment
O -13.486200 -9.389900 -27.436300
H -13.441100 -9.802900 -28.176300
H -12.791000 -8.896000 -27.390800
6
Fragment
O -13.486200 -5.718400 -27.436300
H -13.441100 -6.131400 -28.176300
H -12.791000 -5.224500 -27.390800
O -13.486200 -9.389900 -27.436300
H -13.441100 -9.802900 -28.176300
H -12.791000 -8.896000 -27.390800
