3
Fragment
H -19.126600 -7.014100 -43.585700
O -18.694000 -7.254900 -44.241500
H -18.050800 -7.680700 -43.962200
14
Fragment
O -16.487700 -6.552400 -41.862000
O -16.327100 -5.963200 -39.092000
H -15.409000 -5.774900 -43.718500
C -15.335100 -6.271700 -42.039100
N -15.328600 -6.586400 -38.724800
O -15.153900 -7.037600 -37.587000
O -14.862200 -5.709000 -43.111200
C -14.273700 -6.781200 -39.675900
C -14.254400 -6.587100 -41.057600
N -13.046500 -6.844300 -41.523200
C -12.990000 -7.178900 -39.317300
H -12.677600 -7.387400 -38.466300
N -12.312800 -7.195500 -40.447900
H -11.481100 -7.410200 -40.495400
17
Fragment
H -19.126600 -7.014100 -43.585700
O -18.694000 -7.254900 -44.241500
H -18.050800 -7.680700 -43.962200
O -16.487700 -6.552400 -41.862000
O -16.327100 -5.963200 -39.092000
H -15.409000 -5.774900 -43.718500
C -15.335100 -6.271700 -42.039100
N -15.328600 -6.586400 -38.724800
O -15.153900 -7.037600 -37.587000
O -14.862200 -5.709000 -43.111200
C -14.273700 -6.781200 -39.675900
C -14.254400 -6.587100 -41.057600
N -13.046500 -6.844300 -41.523200
C -12.990000 -7.178900 -39.317300
H -12.677600 -7.387400 -38.466300
N -12.312800 -7.195500 -40.447900
H -11.481100 -7.410200 -40.495400
