3
Fragment
H -19.126600 -7.014100 -43.585700
O -18.694000 -7.254900 -44.241500
H -18.050800 -7.680700 -43.962200
14
Fragment
O -22.912700 -4.311500 -41.862000
O -22.752000 -4.900700 -39.092000
H -21.833900 -5.089000 -43.718500
C -21.760000 -4.592200 -42.039100
N -21.753600 -4.277500 -38.724800
O -21.578800 -3.826300 -37.587000
O -21.287100 -5.154900 -43.111200
C -20.698600 -4.082700 -39.675900
C -20.679300 -4.276800 -41.057600
N -19.471500 -4.019600 -41.523200
C -19.414900 -3.685000 -39.317300
H -19.102500 -3.476500 -38.466300
N -18.737700 -3.668400 -40.447900
H -17.906100 -3.453700 -40.495400
17
Fragment
H -19.126600 -7.014100 -43.585700
O -18.694000 -7.254900 -44.241500
H -18.050800 -7.680700 -43.962200
O -22.912700 -4.311500 -41.862000
O -22.752000 -4.900700 -39.092000
H -21.833900 -5.089000 -43.718500
C -21.760000 -4.592200 -42.039100
N -21.753600 -4.277500 -38.724800
O -21.578800 -3.826300 -37.587000
O -21.287100 -5.154900 -43.111200
C -20.698600 -4.082700 -39.675900
C -20.679300 -4.276800 -41.057600
N -19.471500 -4.019600 -41.523200
C -19.414900 -3.685000 -39.317300
H -19.102500 -3.476500 -38.466300
N -18.737700 -3.668400 -40.447900
H -17.906100 -3.453700 -40.495400
