3
Fragment
H -19.126600 -7.014100 -43.585700
O -18.694000 -7.254900 -44.241500
H -18.050800 -7.680700 -43.962200
3
Fragment
H -17.383000 -5.868200 -44.780200
O -16.690700 -5.445700 -44.905300
H -16.490400 -5.539800 -45.696300
6
Fragment
H -19.126600 -7.014100 -43.585700
O -18.694000 -7.254900 -44.241500
H -18.050800 -7.680700 -43.962200
H -17.383000 -5.868200 -44.780200
O -16.690700 -5.445700 -44.905300
H -16.490400 -5.539800 -45.696300
