31
Fragment
H -19.164300 -41.468300 -15.188400
H -18.712800 -43.709600 -14.793700
C -18.430200 -41.706000 -14.667700
C -18.168300 -43.043400 -14.439600
H -17.840900 -39.822000 -14.309000
C -17.627000 -40.712600 -14.140800
C -17.069900 -43.350800 -13.665400
N -16.560100 -44.588000 -13.276000
C -16.526100 -40.996800 -13.377400
C -16.252000 -42.338200 -13.159200
H -15.990100 -40.323500 -13.023300
C -15.483500 -44.318200 -12.577000
N -15.226600 -42.986700 -12.481800
H -14.948100 -44.970500 -12.186900
H -14.523400 -41.649600 -11.193800
C -14.163100 -42.399400 -11.692200
H -13.852300 -43.057900 -11.050100
H -13.152800 -39.926800 -12.292800
N -13.025400 -41.937500 -12.478700
C -12.634600 -40.640900 -12.583900
H -12.449700 -44.675800 -12.832000
C -11.978600 -42.697400 -12.974100
C -11.795400 -44.069100 -13.093900
N -11.465400 -40.500100 -13.130000
C -11.000400 -41.796700 -13.365800
C -10.601900 -44.478900 -13.618500
H -10.450000 -45.389800 -13.722200
C -9.808800 -42.227900 -13.894300
C -9.606200 -43.594200 -14.002600
H -9.158900 -41.621300 -14.170800
H -8.800500 -43.919300 -14.333600
17
Fragment
H -22.275700 -31.825900 -17.067900
O -21.893800 -32.551800 -17.035600
O -21.378900 -37.374400 -17.051000
H -21.308200 -34.962600 -16.976500
C -20.649700 -32.372700 -16.706100
C -20.404500 -34.876400 -16.770700
N -20.226500 -37.313500 -16.763700
O -20.140000 -31.287200 -16.474200
C -19.833900 -33.636500 -16.615500
C -19.608700 -35.989400 -16.614700
O -19.517200 -38.287400 -16.622400
C -18.489800 -33.537900 -16.344400
C -18.272200 -35.912100 -16.341300
H -18.101500 -32.698600 -16.252200
H -17.756600 -36.682500 -16.249100
C -17.710200 -34.669000 -16.206900
H -16.802700 -34.588500 -16.022600
48
Fragment
H -19.164300 -41.468300 -15.188400
H -18.712800 -43.709600 -14.793700
C -18.430200 -41.706000 -14.667700
C -18.168300 -43.043400 -14.439600
H -17.840900 -39.822000 -14.309000
C -17.627000 -40.712600 -14.140800
C -17.069900 -43.350800 -13.665400
N -16.560100 -44.588000 -13.276000
C -16.526100 -40.996800 -13.377400
C -16.252000 -42.338200 -13.159200
H -15.990100 -40.323500 -13.023300
C -15.483500 -44.318200 -12.577000
N -15.226600 -42.986700 -12.481800
H -14.948100 -44.970500 -12.186900
H -14.523400 -41.649600 -11.193800
C -14.163100 -42.399400 -11.692200
H -13.852300 -43.057900 -11.050100
H -13.152800 -39.926800 -12.292800
N -13.025400 -41.937500 -12.478700
C -12.634600 -40.640900 -12.583900
H -12.449700 -44.675800 -12.832000
C -11.978600 -42.697400 -12.974100
C -11.795400 -44.069100 -13.093900
N -11.465400 -40.500100 -13.130000
C -11.000400 -41.796700 -13.365800
C -10.601900 -44.478900 -13.618500
H -10.450000 -45.389800 -13.722200
C -9.808800 -42.227900 -13.894300
C -9.606200 -43.594200 -14.002600
H -9.158900 -41.621300 -14.170800
H -8.800500 -43.919300 -14.333600
H -22.275700 -31.825900 -17.067900
O -21.893800 -32.551800 -17.035600
O -21.378900 -37.374400 -17.051000
H -21.308200 -34.962600 -16.976500
C -20.649700 -32.372700 -16.706100
C -20.404500 -34.876400 -16.770700
N -20.226500 -37.313500 -16.763700
O -20.140000 -31.287200 -16.474200
C -19.833900 -33.636500 -16.615500
C -19.608700 -35.989400 -16.614700
O -19.517200 -38.287400 -16.622400
C -18.489800 -33.537900 -16.344400
C -18.272200 -35.912100 -16.341300
H -18.101500 -32.698600 -16.252200
H -17.756600 -36.682500 -16.249100
C -17.710200 -34.669000 -16.206900
H -16.802700 -34.588500 -16.022600
