31
Fragment
H -19.164300 -41.468300 -15.188400
H -18.712800 -43.709600 -14.793700
C -18.430200 -41.706000 -14.667700
C -18.168300 -43.043400 -14.439600
H -17.840900 -39.822000 -14.309000
C -17.627000 -40.712600 -14.140800
C -17.069900 -43.350800 -13.665400
N -16.560100 -44.588000 -13.276000
C -16.526100 -40.996800 -13.377400
C -16.252000 -42.338200 -13.159200
H -15.990100 -40.323500 -13.023300
C -15.483500 -44.318200 -12.577000
N -15.226600 -42.986700 -12.481800
H -14.948100 -44.970500 -12.186900
H -14.523400 -41.649600 -11.193800
C -14.163100 -42.399400 -11.692200
H -13.852300 -43.057900 -11.050100
H -13.152800 -39.926800 -12.292800
N -13.025400 -41.937500 -12.478700
C -12.634600 -40.640900 -12.583900
H -12.449700 -44.675800 -12.832000
C -11.978600 -42.697400 -12.974100
C -11.795400 -44.069100 -13.093900
N -11.465400 -40.500100 -13.130000
C -11.000400 -41.796700 -13.365800
C -10.601900 -44.478900 -13.618500
H -10.450000 -45.389800 -13.722200
C -9.808800 -42.227900 -13.894300
C -9.606200 -43.594200 -14.002600
H -9.158900 -41.621300 -14.170800
H -8.800500 -43.919300 -14.333600
31
Fragment
H -12.956900 -41.085800 -8.708300
H -12.598400 -43.383700 -8.871100
C -12.151100 -41.410800 -9.039300
C -11.948500 -42.777100 -9.147600
H -11.307300 -39.615200 -9.319700
C -11.155500 -40.526100 -9.423400
C -10.757000 -43.208300 -9.676100
N -10.291900 -44.504900 -9.911900
C -9.961900 -40.935900 -9.948000
C -9.778700 -42.307600 -10.067800
H -9.307600 -40.329200 -10.209900
C -9.122700 -44.364100 -10.457900
N -8.731900 -43.067500 -10.563200
H -8.604600 -45.078200 -10.749000
H -7.905000 -41.947100 -11.991800
C -7.594200 -42.605600 -11.349700
H -7.233900 -43.355400 -11.848100
H -6.809200 -40.034500 -10.855000
N -6.530700 -42.018300 -10.560100
C -6.273900 -40.686800 -10.464900
H -5.767200 -44.681500 -10.018600
C -5.505400 -42.666800 -9.882700
C -5.231200 -44.008200 -9.664500
N -5.197200 -40.417000 -9.765900
C -4.687500 -41.654200 -9.376500
C -4.130400 -44.292400 -8.901100
H -3.916400 -45.183000 -8.732900
C -3.589100 -41.961600 -8.602300
C -3.327200 -43.299000 -8.374200
H -3.044600 -41.295400 -8.248200
H -2.593000 -43.536700 -7.853400
62
Fragment
H -19.164300 -41.468300 -15.188400
H -18.712800 -43.709600 -14.793700
C -18.430200 -41.706000 -14.667700
C -18.168300 -43.043400 -14.439600
H -17.840900 -39.822000 -14.309000
C -17.627000 -40.712600 -14.140800
C -17.069900 -43.350800 -13.665400
N -16.560100 -44.588000 -13.276000
C -16.526100 -40.996800 -13.377400
C -16.252000 -42.338200 -13.159200
H -15.990100 -40.323500 -13.023300
C -15.483500 -44.318200 -12.577000
N -15.226600 -42.986700 -12.481800
H -14.948100 -44.970500 -12.186900
H -14.523400 -41.649600 -11.193800
C -14.163100 -42.399400 -11.692200
H -13.852300 -43.057900 -11.050100
H -13.152800 -39.926800 -12.292800
N -13.025400 -41.937500 -12.478700
C -12.634600 -40.640900 -12.583900
H -12.449700 -44.675800 -12.832000
C -11.978600 -42.697400 -12.974100
C -11.795400 -44.069100 -13.093900
N -11.465400 -40.500100 -13.130000
C -11.000400 -41.796700 -13.365800
C -10.601900 -44.478900 -13.618500
H -10.450000 -45.389800 -13.722200
C -9.808800 -42.227900 -13.894300
C -9.606200 -43.594200 -14.002600
H -9.158900 -41.621300 -14.170800
H -8.800500 -43.919300 -14.333600
H -12.956900 -41.085800 -8.708300
H -12.598400 -43.383700 -8.871100
C -12.151100 -41.410800 -9.039300
C -11.948500 -42.777100 -9.147600
H -11.307300 -39.615200 -9.319700
C -11.155500 -40.526100 -9.423400
C -10.757000 -43.208300 -9.676100
N -10.291900 -44.504900 -9.911900
C -9.961900 -40.935900 -9.948000
C -9.778700 -42.307600 -10.067800
H -9.307600 -40.329200 -10.209900
C -9.122700 -44.364100 -10.457900
N -8.731900 -43.067500 -10.563200
H -8.604600 -45.078200 -10.749000
H -7.905000 -41.947100 -11.991800
C -7.594200 -42.605600 -11.349700
H -7.233900 -43.355400 -11.848100
H -6.809200 -40.034500 -10.855000
N -6.530700 -42.018300 -10.560100
C -6.273900 -40.686800 -10.464900
H -5.767200 -44.681500 -10.018600
C -5.505400 -42.666800 -9.882700
C -5.231200 -44.008200 -9.664500
N -5.197200 -40.417000 -9.765900
C -4.687500 -41.654200 -9.376500
C -4.130400 -44.292400 -8.901100
H -3.916400 -45.183000 -8.732900
C -3.589100 -41.961600 -8.602300
C -3.327200 -43.299000 -8.374200
H -3.044600 -41.295400 -8.248200
H -2.593000 -43.536700 -7.853400
