31
Fragment
H -19.164300 -41.468300 -15.188400
H -18.712800 -43.709600 -14.793700
C -18.430200 -41.706000 -14.667700
C -18.168300 -43.043400 -14.439600
H -17.840900 -39.822000 -14.309000
C -17.627000 -40.712600 -14.140800
C -17.069900 -43.350800 -13.665400
N -16.560100 -44.588000 -13.276000
C -16.526100 -40.996800 -13.377400
C -16.252000 -42.338200 -13.159200
H -15.990100 -40.323500 -13.023300
C -15.483500 -44.318200 -12.577000
N -15.226600 -42.986700 -12.481800
H -14.948100 -44.970500 -12.186900
H -14.523400 -41.649600 -11.193800
C -14.163100 -42.399400 -11.692200
H -13.852300 -43.057900 -11.050100
H -13.152800 -39.926800 -12.292800
N -13.025400 -41.937500 -12.478700
C -12.634600 -40.640900 -12.583900
H -12.449700 -44.675800 -12.832000
C -11.978600 -42.697400 -12.974100
C -11.795400 -44.069100 -13.093900
N -11.465400 -40.500100 -13.130000
C -11.000400 -41.796700 -13.365800
C -10.601900 -44.478900 -13.618500
H -10.450000 -45.389800 -13.722200
C -9.808800 -42.227900 -13.894300
C -9.606200 -43.594200 -14.002600
H -9.158900 -41.621300 -14.170800
H -8.800500 -43.919300 -14.333600
31
Fragment
H -24.290800 -41.085800 -16.388900
H -23.932300 -43.383700 -16.551800
C -23.485000 -41.410800 -16.720000
C -23.282400 -42.777100 -16.828300
H -22.641200 -39.615200 -17.000300
C -22.489300 -40.526100 -17.104000
C -22.090800 -43.208300 -17.356700
N -21.625800 -44.504900 -17.592500
C -21.295800 -40.935900 -17.628600
C -21.112600 -42.307600 -17.748400
H -20.641500 -40.329200 -17.890500
C -20.456600 -44.364100 -18.138600
N -20.065800 -43.067500 -18.243800
H -19.938400 -45.078200 -18.429700
H -19.238900 -41.947100 -19.672400
C -18.928100 -42.605600 -19.030300
H -18.567800 -43.355400 -19.528800
H -18.143100 -40.034500 -18.535700
N -17.864600 -42.018300 -18.240700
C -17.607800 -40.686800 -18.145500
H -17.101100 -44.681500 -17.699200
C -16.839300 -42.666800 -17.563300
C -16.565100 -44.008200 -17.345200
N -16.531100 -40.417000 -17.446600
C -16.021300 -41.654200 -17.057100
C -15.464300 -44.292400 -16.581700
H -15.250300 -45.183000 -16.413500
C -14.923000 -41.961600 -16.282900
C -14.661000 -43.299000 -16.054800
H -14.378400 -41.295400 -15.928900
H -13.926900 -43.536700 -15.534100
62
Fragment
H -19.164300 -41.468300 -15.188400
H -18.712800 -43.709600 -14.793700
C -18.430200 -41.706000 -14.667700
C -18.168300 -43.043400 -14.439600
H -17.840900 -39.822000 -14.309000
C -17.627000 -40.712600 -14.140800
C -17.069900 -43.350800 -13.665400
N -16.560100 -44.588000 -13.276000
C -16.526100 -40.996800 -13.377400
C -16.252000 -42.338200 -13.159200
H -15.990100 -40.323500 -13.023300
C -15.483500 -44.318200 -12.577000
N -15.226600 -42.986700 -12.481800
H -14.948100 -44.970500 -12.186900
H -14.523400 -41.649600 -11.193800
C -14.163100 -42.399400 -11.692200
H -13.852300 -43.057900 -11.050100
H -13.152800 -39.926800 -12.292800
N -13.025400 -41.937500 -12.478700
C -12.634600 -40.640900 -12.583900
H -12.449700 -44.675800 -12.832000
C -11.978600 -42.697400 -12.974100
C -11.795400 -44.069100 -13.093900
N -11.465400 -40.500100 -13.130000
C -11.000400 -41.796700 -13.365800
C -10.601900 -44.478900 -13.618500
H -10.450000 -45.389800 -13.722200
C -9.808800 -42.227900 -13.894300
C -9.606200 -43.594200 -14.002600
H -9.158900 -41.621300 -14.170800
H -8.800500 -43.919300 -14.333600
H -24.290800 -41.085800 -16.388900
H -23.932300 -43.383700 -16.551800
C -23.485000 -41.410800 -16.720000
C -23.282400 -42.777100 -16.828300
H -22.641200 -39.615200 -17.000300
C -22.489300 -40.526100 -17.104000
C -22.090800 -43.208300 -17.356700
N -21.625800 -44.504900 -17.592500
C -21.295800 -40.935900 -17.628600
C -21.112600 -42.307600 -17.748400
H -20.641500 -40.329200 -17.890500
C -20.456600 -44.364100 -18.138600
N -20.065800 -43.067500 -18.243800
H -19.938400 -45.078200 -18.429700
H -19.238900 -41.947100 -19.672400
C -18.928100 -42.605600 -19.030300
H -18.567800 -43.355400 -19.528800
H -18.143100 -40.034500 -18.535700
N -17.864600 -42.018300 -18.240700
C -17.607800 -40.686800 -18.145500
H -17.101100 -44.681500 -17.699200
C -16.839300 -42.666800 -17.563300
C -16.565100 -44.008200 -17.345200
N -16.531100 -40.417000 -17.446600
C -16.021300 -41.654200 -17.057100
C -15.464300 -44.292400 -16.581700
H -15.250300 -45.183000 -16.413500
C -14.923000 -41.961600 -16.282900
C -14.661000 -43.299000 -16.054800
H -14.378400 -41.295400 -15.928900
H -13.926900 -43.536700 -15.534100
