31
Fragment
H -19.164300 -41.468300 -15.188400
H -18.712800 -43.709600 -14.793700
C -18.430200 -41.706000 -14.667700
C -18.168300 -43.043400 -14.439600
H -17.840900 -39.822000 -14.309000
C -17.627000 -40.712600 -14.140800
C -17.069900 -43.350800 -13.665400
N -16.560100 -44.588000 -13.276000
C -16.526100 -40.996800 -13.377400
C -16.252000 -42.338200 -13.159200
H -15.990100 -40.323500 -13.023300
C -15.483500 -44.318200 -12.577000
N -15.226600 -42.986700 -12.481800
H -14.948100 -44.970500 -12.186900
H -14.523400 -41.649600 -11.193800
C -14.163100 -42.399400 -11.692200
H -13.852300 -43.057900 -11.050100
H -13.152800 -39.926800 -12.292800
N -13.025400 -41.937500 -12.478700
C -12.634600 -40.640900 -12.583900
H -12.449700 -44.675800 -12.832000
C -11.978600 -42.697400 -12.974100
C -11.795400 -44.069100 -13.093900
N -11.465400 -40.500100 -13.130000
C -11.000400 -41.796700 -13.365800
C -10.601900 -44.478900 -13.618500
H -10.450000 -45.389800 -13.722200
C -9.808800 -42.227900 -13.894300
C -9.606200 -43.594200 -14.002600
H -9.158900 -41.621300 -14.170800
H -8.800500 -43.919300 -14.333600
17
Fragment
H -16.634600 -38.816100 -9.724400
O -16.304400 -38.071800 -9.815100
O -16.171400 -33.214000 -10.078500
H -15.933000 -35.622800 -10.106900
C -15.121400 -38.182500 -10.332800
C -15.042100 -35.658700 -10.371200
N -15.021400 -33.208900 -10.452600
O -14.591900 -39.236900 -10.605400
O -14.402700 -32.191700 -10.714500
C -14.400600 -36.879100 -10.535500
C -14.330800 -34.503500 -10.607700
C -13.077400 -36.893000 -10.924900
C -13.021900 -34.509500 -11.000200
H -12.645200 -37.708200 -11.037800
H -12.572800 -33.713000 -11.163000
C -12.379600 -35.720500 -11.150700
H -11.484200 -35.747400 -11.401900
48
Fragment
H -19.164300 -41.468300 -15.188400
H -18.712800 -43.709600 -14.793700
C -18.430200 -41.706000 -14.667700
C -18.168300 -43.043400 -14.439600
H -17.840900 -39.822000 -14.309000
C -17.627000 -40.712600 -14.140800
C -17.069900 -43.350800 -13.665400
N -16.560100 -44.588000 -13.276000
C -16.526100 -40.996800 -13.377400
C -16.252000 -42.338200 -13.159200
H -15.990100 -40.323500 -13.023300
C -15.483500 -44.318200 -12.577000
N -15.226600 -42.986700 -12.481800
H -14.948100 -44.970500 -12.186900
H -14.523400 -41.649600 -11.193800
C -14.163100 -42.399400 -11.692200
H -13.852300 -43.057900 -11.050100
H -13.152800 -39.926800 -12.292800
N -13.025400 -41.937500 -12.478700
C -12.634600 -40.640900 -12.583900
H -12.449700 -44.675800 -12.832000
C -11.978600 -42.697400 -12.974100
C -11.795400 -44.069100 -13.093900
N -11.465400 -40.500100 -13.130000
C -11.000400 -41.796700 -13.365800
C -10.601900 -44.478900 -13.618500
H -10.450000 -45.389800 -13.722200
C -9.808800 -42.227900 -13.894300
C -9.606200 -43.594200 -14.002600
H -9.158900 -41.621300 -14.170800
H -8.800500 -43.919300 -14.333600
H -16.634600 -38.816100 -9.724400
O -16.304400 -38.071800 -9.815100
O -16.171400 -33.214000 -10.078500
H -15.933000 -35.622800 -10.106900
C -15.121400 -38.182500 -10.332800
C -15.042100 -35.658700 -10.371200
N -15.021400 -33.208900 -10.452600
O -14.591900 -39.236900 -10.605400
O -14.402700 -32.191700 -10.714500
C -14.400600 -36.879100 -10.535500
C -14.330800 -34.503500 -10.607700
C -13.077400 -36.893000 -10.924900
C -13.021900 -34.509500 -11.000200
H -12.645200 -37.708200 -11.037800
H -12.572800 -33.713000 -11.163000
C -12.379600 -35.720500 -11.150700
H -11.484200 -35.747400 -11.401900
