31
Fragment
H -19.164300 -41.468300 -15.188400
H -18.712800 -43.709600 -14.793700
C -18.430200 -41.706000 -14.667700
C -18.168300 -43.043400 -14.439600
H -17.840900 -39.822000 -14.309000
C -17.627000 -40.712600 -14.140800
C -17.069900 -43.350800 -13.665400
N -16.560100 -44.588000 -13.276000
C -16.526100 -40.996800 -13.377400
C -16.252000 -42.338200 -13.159200
H -15.990100 -40.323500 -13.023300
C -15.483500 -44.318200 -12.577000
N -15.226600 -42.986700 -12.481800
H -14.948100 -44.970500 -12.186900
H -14.523400 -41.649600 -11.193800
C -14.163100 -42.399400 -11.692200
H -13.852300 -43.057900 -11.050100
H -13.152800 -39.926800 -12.292800
N -13.025400 -41.937500 -12.478700
C -12.634600 -40.640900 -12.583900
H -12.449700 -44.675800 -12.832000
C -11.978600 -42.697400 -12.974100
C -11.795400 -44.069100 -13.093900
N -11.465400 -40.500100 -13.130000
C -11.000400 -41.796700 -13.365800
C -10.601900 -44.478900 -13.618500
H -10.450000 -45.389800 -13.722200
C -9.808800 -42.227900 -13.894300
C -9.606200 -43.594200 -14.002600
H -9.158900 -41.621300 -14.170800
H -8.800500 -43.919300 -14.333600
31
Fragment
H -31.408600 -41.468300 -15.188400
H -30.957100 -43.709600 -14.793700
C -30.674500 -41.706000 -14.667700
C -30.412600 -43.043400 -14.439600
H -30.085200 -39.822000 -14.309000
C -29.871300 -40.712600 -14.140800
C -29.314200 -43.350800 -13.665400
N -28.804400 -44.588000 -13.276000
C -28.770400 -40.996800 -13.377400
C -28.496300 -42.338200 -13.159200
H -28.234400 -40.323500 -13.023300
C -27.727800 -44.318200 -12.577000
N -27.470900 -42.986700 -12.481800
H -27.192400 -44.970500 -12.186900
H -26.767700 -41.649600 -11.193800
C -26.407400 -42.399400 -11.692200
H -26.096600 -43.057900 -11.050100
H -25.397100 -39.926800 -12.292800
N -25.269700 -41.937500 -12.478700
C -24.878900 -40.640900 -12.583900
H -24.694000 -44.675800 -12.832000
C -24.222900 -42.697400 -12.974100
C -24.039700 -44.069100 -13.093900
N -23.709700 -40.500100 -13.130000
C -23.244700 -41.796700 -13.365800
C -22.846200 -44.478900 -13.618500
H -22.694300 -45.389800 -13.722200
C -22.053100 -42.227900 -13.894300
C -21.850500 -43.594200 -14.002600
H -21.403200 -41.621300 -14.170800
H -21.044800 -43.919300 -14.333600
62
Fragment
H -19.164300 -41.468300 -15.188400
H -18.712800 -43.709600 -14.793700
C -18.430200 -41.706000 -14.667700
C -18.168300 -43.043400 -14.439600
H -17.840900 -39.822000 -14.309000
C -17.627000 -40.712600 -14.140800
C -17.069900 -43.350800 -13.665400
N -16.560100 -44.588000 -13.276000
C -16.526100 -40.996800 -13.377400
C -16.252000 -42.338200 -13.159200
H -15.990100 -40.323500 -13.023300
C -15.483500 -44.318200 -12.577000
N -15.226600 -42.986700 -12.481800
H -14.948100 -44.970500 -12.186900
H -14.523400 -41.649600 -11.193800
C -14.163100 -42.399400 -11.692200
H -13.852300 -43.057900 -11.050100
H -13.152800 -39.926800 -12.292800
N -13.025400 -41.937500 -12.478700
C -12.634600 -40.640900 -12.583900
H -12.449700 -44.675800 -12.832000
C -11.978600 -42.697400 -12.974100
C -11.795400 -44.069100 -13.093900
N -11.465400 -40.500100 -13.130000
C -11.000400 -41.796700 -13.365800
C -10.601900 -44.478900 -13.618500
H -10.450000 -45.389800 -13.722200
C -9.808800 -42.227900 -13.894300
C -9.606200 -43.594200 -14.002600
H -9.158900 -41.621300 -14.170800
H -8.800500 -43.919300 -14.333600
H -31.408600 -41.468300 -15.188400
H -30.957100 -43.709600 -14.793700
C -30.674500 -41.706000 -14.667700
C -30.412600 -43.043400 -14.439600
H -30.085200 -39.822000 -14.309000
C -29.871300 -40.712600 -14.140800
C -29.314200 -43.350800 -13.665400
N -28.804400 -44.588000 -13.276000
C -28.770400 -40.996800 -13.377400
C -28.496300 -42.338200 -13.159200
H -28.234400 -40.323500 -13.023300
C -27.727800 -44.318200 -12.577000
N -27.470900 -42.986700 -12.481800
H -27.192400 -44.970500 -12.186900
H -26.767700 -41.649600 -11.193800
C -26.407400 -42.399400 -11.692200
H -26.096600 -43.057900 -11.050100
H -25.397100 -39.926800 -12.292800
N -25.269700 -41.937500 -12.478700
C -24.878900 -40.640900 -12.583900
H -24.694000 -44.675800 -12.832000
C -24.222900 -42.697400 -12.974100
C -24.039700 -44.069100 -13.093900
N -23.709700 -40.500100 -13.130000
C -23.244700 -41.796700 -13.365800
C -22.846200 -44.478900 -13.618500
H -22.694300 -45.389800 -13.722200
C -22.053100 -42.227900 -13.894300
C -21.850500 -43.594200 -14.002600
H -21.403200 -41.621300 -14.170800
H -21.044800 -43.919300 -14.333600
