31
Fragment
H -19.164300 -41.468300 -15.188400
H -18.712800 -43.709600 -14.793700
C -18.430200 -41.706000 -14.667700
C -18.168300 -43.043400 -14.439600
H -17.840900 -39.822000 -14.309000
C -17.627000 -40.712600 -14.140800
C -17.069900 -43.350800 -13.665400
N -16.560100 -44.588000 -13.276000
C -16.526100 -40.996800 -13.377400
C -16.252000 -42.338200 -13.159200
H -15.990100 -40.323500 -13.023300
C -15.483500 -44.318200 -12.577000
N -15.226600 -42.986700 -12.481800
H -14.948100 -44.970500 -12.186900
H -14.523400 -41.649600 -11.193800
C -14.163100 -42.399400 -11.692200
H -13.852300 -43.057900 -11.050100
H -13.152800 -39.926800 -12.292800
N -13.025400 -41.937500 -12.478700
C -12.634600 -40.640900 -12.583900
H -12.449700 -44.675800 -12.832000
C -11.978600 -42.697400 -12.974100
C -11.795400 -44.069100 -13.093900
N -11.465400 -40.500100 -13.130000
C -11.000400 -41.796700 -13.365800
C -10.601900 -44.478900 -13.618500
H -10.450000 -45.389800 -13.722200
C -9.808800 -42.227900 -13.894300
C -9.606200 -43.594200 -14.002600
H -9.158900 -41.621300 -14.170800
H -8.800500 -43.919300 -14.333600
17
Fragment
H -22.062200 -49.914900 -15.480300
C -21.166800 -49.888000 -15.731500
H -20.973600 -47.880500 -15.719200
H -20.901200 -51.875700 -15.844400
C -20.524500 -48.677000 -15.882000
C -20.469000 -51.060500 -15.957300
C -19.215600 -48.671000 -16.274500
C -19.145800 -51.046600 -16.346700
O -19.143800 -46.359200 -16.167700
O -18.954500 -53.404400 -16.276800
N -18.525000 -47.376400 -16.429600
C -18.504300 -49.826200 -16.511100
C -18.425100 -52.350000 -16.549500
H -17.613400 -49.790300 -16.775300
O -17.375000 -47.381500 -16.803700
O -17.242000 -52.239300 -17.067100
H -16.911800 -52.983600 -17.157800
48
Fragment
H -19.164300 -41.468300 -15.188400
H -18.712800 -43.709600 -14.793700
C -18.430200 -41.706000 -14.667700
C -18.168300 -43.043400 -14.439600
H -17.840900 -39.822000 -14.309000
C -17.627000 -40.712600 -14.140800
C -17.069900 -43.350800 -13.665400
N -16.560100 -44.588000 -13.276000
C -16.526100 -40.996800 -13.377400
C -16.252000 -42.338200 -13.159200
H -15.990100 -40.323500 -13.023300
C -15.483500 -44.318200 -12.577000
N -15.226600 -42.986700 -12.481800
H -14.948100 -44.970500 -12.186900
H -14.523400 -41.649600 -11.193800
C -14.163100 -42.399400 -11.692200
H -13.852300 -43.057900 -11.050100
H -13.152800 -39.926800 -12.292800
N -13.025400 -41.937500 -12.478700
C -12.634600 -40.640900 -12.583900
H -12.449700 -44.675800 -12.832000
C -11.978600 -42.697400 -12.974100
C -11.795400 -44.069100 -13.093900
N -11.465400 -40.500100 -13.130000
C -11.000400 -41.796700 -13.365800
C -10.601900 -44.478900 -13.618500
H -10.450000 -45.389800 -13.722200
C -9.808800 -42.227900 -13.894300
C -9.606200 -43.594200 -14.002600
H -9.158900 -41.621300 -14.170800
H -8.800500 -43.919300 -14.333600
H -22.062200 -49.914900 -15.480300
C -21.166800 -49.888000 -15.731500
H -20.973600 -47.880500 -15.719200
H -20.901200 -51.875700 -15.844400
C -20.524500 -48.677000 -15.882000
C -20.469000 -51.060500 -15.957300
C -19.215600 -48.671000 -16.274500
C -19.145800 -51.046600 -16.346700
O -19.143800 -46.359200 -16.167700
O -18.954500 -53.404400 -16.276800
N -18.525000 -47.376400 -16.429600
C -18.504300 -49.826200 -16.511100
C -18.425100 -52.350000 -16.549500
H -17.613400 -49.790300 -16.775300
O -17.375000 -47.381500 -16.803700
O -17.242000 -52.239300 -17.067100
H -16.911800 -52.983600 -17.157800
