21
Fragment
H -17.921200 -4.656900 -25.910800
H -17.644900 -4.086200 -24.479100
H -17.450500 -3.169400 -25.747100
C -17.365400 -4.063700 -25.401800
N -16.217500 -6.440100 -23.993900
N -15.960700 -4.496000 -25.509000
H -15.557900 -8.166300 -23.187300
C -15.532300 -5.669700 -24.897300
O -15.470900 -2.789900 -26.896100
C -15.376800 -7.438900 -23.730500
C -15.120600 -3.802600 -26.293300
N -14.284100 -7.400100 -24.494000
C -14.282100 -6.145100 -25.089300
N -13.903900 -4.444400 -26.610300
H -13.601200 -8.026600 -24.497000
C -13.402000 -5.663000 -26.055200
H -13.396800 -2.823300 -27.741400
C -12.955400 -3.621700 -27.437800
H -12.653500 -4.134800 -28.202800
O -12.255700 -5.970800 -26.128100
H -12.196700 -3.369700 -26.906500
15
Fragment
O -12.291300 0.888900 -30.755100
H -12.265100 -0.868200 -29.159700
H -12.165900 1.464500 -31.322200
H -11.518800 -1.760800 -30.316100
C -11.470600 -1.020000 -29.698500
C -11.292400 0.103800 -30.662900
H -10.844800 0.063800 -27.372300
H -10.439400 -1.823900 -28.204200
C -10.291500 -1.072800 -28.741500
O -10.226200 0.325400 -31.265600
O -10.164100 0.121400 -28.001800
O -9.131000 -2.410400 -30.287800
C -9.026100 -1.337000 -29.563000
H -8.279400 -2.463900 -30.720900
O -7.960500 -0.758300 -29.321900
36
Fragment
H -17.921200 -4.656900 -25.910800
H -17.644900 -4.086200 -24.479100
H -17.450500 -3.169400 -25.747100
C -17.365400 -4.063700 -25.401800
N -16.217500 -6.440100 -23.993900
N -15.960700 -4.496000 -25.509000
H -15.557900 -8.166300 -23.187300
C -15.532300 -5.669700 -24.897300
O -15.470900 -2.789900 -26.896100
C -15.376800 -7.438900 -23.730500
C -15.120600 -3.802600 -26.293300
N -14.284100 -7.400100 -24.494000
C -14.282100 -6.145100 -25.089300
N -13.903900 -4.444400 -26.610300
H -13.601200 -8.026600 -24.497000
C -13.402000 -5.663000 -26.055200
H -13.396800 -2.823300 -27.741400
C -12.955400 -3.621700 -27.437800
H -12.653500 -4.134800 -28.202800
O -12.255700 -5.970800 -26.128100
H -12.196700 -3.369700 -26.906500
O -12.291300 0.888900 -30.755100
H -12.265100 -0.868200 -29.159700
H -12.165900 1.464500 -31.322200
H -11.518800 -1.760800 -30.316100
C -11.470600 -1.020000 -29.698500
C -11.292400 0.103800 -30.662900
H -10.844800 0.063800 -27.372300
H -10.439400 -1.823900 -28.204200
C -10.291500 -1.072800 -28.741500
O -10.226200 0.325400 -31.265600
O -10.164100 0.121400 -28.001800
O -9.131000 -2.410400 -30.287800
C -9.026100 -1.337000 -29.563000
H -8.279400 -2.463900 -30.720900
O -7.960500 -0.758300 -29.321900
