21
Fragment
H -17.921200 -4.656900 -25.910800
H -17.644900 -4.086200 -24.479100
H -17.450500 -3.169400 -25.747100
C -17.365400 -4.063700 -25.401800
N -16.217500 -6.440100 -23.993900
N -15.960700 -4.496000 -25.509000
H -15.557900 -8.166300 -23.187300
C -15.532300 -5.669700 -24.897300
O -15.470900 -2.789900 -26.896100
C -15.376800 -7.438900 -23.730500
C -15.120600 -3.802600 -26.293300
N -14.284100 -7.400100 -24.494000
C -14.282100 -6.145100 -25.089300
N -13.903900 -4.444400 -26.610300
H -13.601200 -8.026600 -24.497000
C -13.402000 -5.663000 -26.055200
H -13.396800 -2.823300 -27.741400
C -12.955400 -3.621700 -27.437800
H -12.653500 -4.134800 -28.202800
O -12.255700 -5.970800 -26.128100
H -12.196700 -3.369700 -26.906500
21
Fragment
H -9.836100 -6.405500 -25.183100
O -9.777100 -9.006600 -25.961400
H -9.379200 -7.170500 -23.886800
C -9.077400 -6.657500 -24.651700
H -8.635900 -5.859100 -24.348100
C -8.630800 -8.698800 -26.034300
H -8.431600 -11.062400 -27.592600
N -8.128900 -7.480200 -25.479200
C -7.750700 -9.180900 -27.000200
N -7.748600 -10.435800 -27.595500
C -6.912100 -6.838400 -25.796200
C -6.656000 -10.474700 -28.359000
O -6.561900 -5.825700 -25.193500
C -6.500500 -8.705400 -27.192200
H -6.474900 -11.202100 -28.902200
N -6.072100 -7.531800 -26.580500
N -5.815300 -9.475900 -28.095600
C -4.667400 -7.099500 -26.687700
H -4.582300 -6.205200 -26.342400
H -4.387800 -7.122000 -27.610400
H -4.111500 -7.692700 -26.178700
42
Fragment
H -17.921200 -4.656900 -25.910800
H -17.644900 -4.086200 -24.479100
H -17.450500 -3.169400 -25.747100
C -17.365400 -4.063700 -25.401800
N -16.217500 -6.440100 -23.993900
N -15.960700 -4.496000 -25.509000
H -15.557900 -8.166300 -23.187300
C -15.532300 -5.669700 -24.897300
O -15.470900 -2.789900 -26.896100
C -15.376800 -7.438900 -23.730500
C -15.120600 -3.802600 -26.293300
N -14.284100 -7.400100 -24.494000
C -14.282100 -6.145100 -25.089300
N -13.903900 -4.444400 -26.610300
H -13.601200 -8.026600 -24.497000
C -13.402000 -5.663000 -26.055200
H -13.396800 -2.823300 -27.741400
C -12.955400 -3.621700 -27.437800
H -12.653500 -4.134800 -28.202800
O -12.255700 -5.970800 -26.128100
H -12.196700 -3.369700 -26.906500
H -9.836100 -6.405500 -25.183100
O -9.777100 -9.006600 -25.961400
H -9.379200 -7.170500 -23.886800
C -9.077400 -6.657500 -24.651700
H -8.635900 -5.859100 -24.348100
C -8.630800 -8.698800 -26.034300
H -8.431600 -11.062400 -27.592600
N -8.128900 -7.480200 -25.479200
C -7.750700 -9.180900 -27.000200
N -7.748600 -10.435800 -27.595500
C -6.912100 -6.838400 -25.796200
C -6.656000 -10.474700 -28.359000
O -6.561900 -5.825700 -25.193500
C -6.500500 -8.705400 -27.192200
H -6.474900 -11.202100 -28.902200
N -6.072100 -7.531800 -26.580500
N -5.815300 -9.475900 -28.095600
C -4.667400 -7.099500 -26.687700
H -4.582300 -6.205200 -26.342400
H -4.387800 -7.122000 -27.610400
H -4.111500 -7.692700 -26.178700
