21
Fragment
H -17.921200 -4.656900 -25.910800
H -17.644900 -4.086200 -24.479100
H -17.450500 -3.169400 -25.747100
C -17.365400 -4.063700 -25.401800
N -16.217500 -6.440100 -23.993900
N -15.960700 -4.496000 -25.509000
H -15.557900 -8.166300 -23.187300
C -15.532300 -5.669700 -24.897300
O -15.470900 -2.789900 -26.896100
C -15.376800 -7.438900 -23.730500
C -15.120600 -3.802600 -26.293300
N -14.284100 -7.400100 -24.494000
C -14.282100 -6.145100 -25.089300
N -13.903900 -4.444400 -26.610300
H -13.601200 -8.026600 -24.497000
C -13.402000 -5.663000 -26.055200
H -13.396800 -2.823300 -27.741400
C -12.955400 -3.621700 -27.437800
H -12.653500 -4.134800 -28.202800
O -12.255700 -5.970800 -26.128100
H -12.196700 -3.369700 -26.906500
21
Fragment
H -19.509000 -14.845000 -17.741700
O -19.450000 -12.244000 -18.520100
H -19.052200 -14.080000 -16.445400
C -18.750300 -14.593100 -17.210400
H -18.308900 -15.391500 -16.906800
C -18.303700 -12.551800 -18.593000
H -18.104500 -10.188100 -20.151200
N -17.801800 -13.770400 -18.037900
C -17.423600 -12.069700 -19.558900
N -17.421600 -10.814700 -20.154200
C -16.585000 -14.412100 -18.354900
C -16.328900 -10.775900 -20.917700
O -16.234800 -15.424900 -17.752100
C -16.173400 -12.545100 -19.750900
H -16.147800 -10.048500 -21.460900
N -15.745000 -13.718800 -19.139200
N -15.488200 -11.774600 -20.654200
C -14.340300 -14.151100 -19.246300
H -14.255200 -15.045400 -18.901100
H -14.060800 -14.128600 -20.169100
H -13.784500 -13.557900 -18.737300
42
Fragment
H -17.921200 -4.656900 -25.910800
H -17.644900 -4.086200 -24.479100
H -17.450500 -3.169400 -25.747100
C -17.365400 -4.063700 -25.401800
N -16.217500 -6.440100 -23.993900
N -15.960700 -4.496000 -25.509000
H -15.557900 -8.166300 -23.187300
C -15.532300 -5.669700 -24.897300
O -15.470900 -2.789900 -26.896100
C -15.376800 -7.438900 -23.730500
C -15.120600 -3.802600 -26.293300
N -14.284100 -7.400100 -24.494000
C -14.282100 -6.145100 -25.089300
N -13.903900 -4.444400 -26.610300
H -13.601200 -8.026600 -24.497000
C -13.402000 -5.663000 -26.055200
H -13.396800 -2.823300 -27.741400
C -12.955400 -3.621700 -27.437800
H -12.653500 -4.134800 -28.202800
O -12.255700 -5.970800 -26.128100
H -12.196700 -3.369700 -26.906500
H -19.509000 -14.845000 -17.741700
O -19.450000 -12.244000 -18.520100
H -19.052200 -14.080000 -16.445400
C -18.750300 -14.593100 -17.210400
H -18.308900 -15.391500 -16.906800
C -18.303700 -12.551800 -18.593000
H -18.104500 -10.188100 -20.151200
N -17.801800 -13.770400 -18.037900
C -17.423600 -12.069700 -19.558900
N -17.421600 -10.814700 -20.154200
C -16.585000 -14.412100 -18.354900
C -16.328900 -10.775900 -20.917700
O -16.234800 -15.424900 -17.752100
C -16.173400 -12.545100 -19.750900
H -16.147800 -10.048500 -21.460900
N -15.745000 -13.718800 -19.139200
N -15.488200 -11.774600 -20.654200
C -14.340300 -14.151100 -19.246300
H -14.255200 -15.045400 -18.901100
H -14.060800 -14.128600 -20.169100
H -13.784500 -13.557900 -18.737300
