21
Fragment
H -17.921200 -4.656900 -25.910800
H -17.644900 -4.086200 -24.479100
H -17.450500 -3.169400 -25.747100
C -17.365400 -4.063700 -25.401800
N -16.217500 -6.440100 -23.993900
N -15.960700 -4.496000 -25.509000
H -15.557900 -8.166300 -23.187300
C -15.532300 -5.669700 -24.897300
O -15.470900 -2.789900 -26.896100
C -15.376800 -7.438900 -23.730500
C -15.120600 -3.802600 -26.293300
N -14.284100 -7.400100 -24.494000
C -14.282100 -6.145100 -25.089300
N -13.903900 -4.444400 -26.610300
H -13.601200 -8.026600 -24.497000
C -13.402000 -5.663000 -26.055200
H -13.396800 -2.823300 -27.741400
C -12.955400 -3.621700 -27.437800
H -12.653500 -4.134800 -28.202800
O -12.255700 -5.970800 -26.128100
H -12.196700 -3.369700 -26.906500
15
Fragment
O -19.356600 -5.313200 -30.209000
H -19.037700 -3.607700 -28.810000
C -18.290900 -4.734600 -29.967900
O -18.186100 -3.661200 -29.243100
O -17.153000 -6.193000 -31.529000
O -17.090800 -6.397000 -28.265300
C -17.025600 -4.998700 -30.789400
H -16.877600 -4.247700 -31.326600
H -16.472300 -6.135300 -32.158600
C -16.024600 -6.175400 -28.868000
C -15.846500 -5.051600 -29.832400
H -15.798200 -4.310800 -29.214800
H -15.151100 -7.536100 -28.208700
H -15.051900 -5.203400 -30.371200
O -15.025800 -6.960500 -28.775700
36
Fragment
H -17.921200 -4.656900 -25.910800
H -17.644900 -4.086200 -24.479100
H -17.450500 -3.169400 -25.747100
C -17.365400 -4.063700 -25.401800
N -16.217500 -6.440100 -23.993900
N -15.960700 -4.496000 -25.509000
H -15.557900 -8.166300 -23.187300
C -15.532300 -5.669700 -24.897300
O -15.470900 -2.789900 -26.896100
C -15.376800 -7.438900 -23.730500
C -15.120600 -3.802600 -26.293300
N -14.284100 -7.400100 -24.494000
C -14.282100 -6.145100 -25.089300
N -13.903900 -4.444400 -26.610300
H -13.601200 -8.026600 -24.497000
C -13.402000 -5.663000 -26.055200
H -13.396800 -2.823300 -27.741400
C -12.955400 -3.621700 -27.437800
H -12.653500 -4.134800 -28.202800
O -12.255700 -5.970800 -26.128100
H -12.196700 -3.369700 -26.906500
O -19.356600 -5.313200 -30.209000
H -19.037700 -3.607700 -28.810000
C -18.290900 -4.734600 -29.967900
O -18.186100 -3.661200 -29.243100
O -17.153000 -6.193000 -31.529000
O -17.090800 -6.397000 -28.265300
C -17.025600 -4.998700 -30.789400
H -16.877600 -4.247700 -31.326600
H -16.472300 -6.135300 -32.158600
C -16.024600 -6.175400 -28.868000
C -15.846500 -5.051600 -29.832400
H -15.798200 -4.310800 -29.214800
H -15.151100 -7.536100 -28.208700
H -15.051900 -5.203400 -30.371200
O -15.025800 -6.960500 -28.775700
