3
Fragment
H -9.276100 -15.234400 -15.840900
O -8.962200 -14.972200 -15.172600
H -8.574300 -14.405700 -15.061600
29
Fragment
H -13.050900 -17.164200 -20.067900
H -12.913500 -18.435600 -20.388200
C -12.342100 -17.722700 -20.324100
H -12.107000 -17.255000 -22.224200
H -11.933600 -16.131200 -21.487600
C -11.732800 -17.060900 -21.511100
H -11.212700 -18.322100 -18.498800
N -11.192200 -17.928200 -19.442400
N -10.351100 -17.498000 -21.426800
C -10.067500 -17.802200 -20.132000
H -9.692300 -17.050700 -21.765200
O -8.951000 -16.303700 -17.722800
H -8.948500 -20.308700 -18.498800
N -8.833500 -17.972500 -19.749800
N -8.690200 -18.323300 -18.409100
N -8.666100 -17.482100 -17.417500
C -8.281900 -19.700300 -18.095300
H -8.187800 -19.650300 -17.047100
H -7.455400 -21.409900 -19.950500
C -6.861300 -19.995400 -18.575700
C -6.646800 -20.934200 -19.566200
H -5.796500 -18.810300 -17.399300
C -5.776100 -19.407400 -17.952300
C -5.384600 -21.307700 -19.886500
H -5.229300 -22.022900 -20.623000
C -4.482700 -19.752500 -18.309900
C -4.301500 -20.723100 -19.272700
H -3.745800 -19.400600 -17.794300
Cl -2.701100 -21.237300 -19.684700
32
Fragment
H -9.276100 -15.234400 -15.840900
O -8.962200 -14.972200 -15.172600
H -8.574300 -14.405700 -15.061600
H -13.050900 -17.164200 -20.067900
H -12.913500 -18.435600 -20.388200
C -12.342100 -17.722700 -20.324100
H -12.107000 -17.255000 -22.224200
H -11.933600 -16.131200 -21.487600
C -11.732800 -17.060900 -21.511100
H -11.212700 -18.322100 -18.498800
N -11.192200 -17.928200 -19.442400
N -10.351100 -17.498000 -21.426800
C -10.067500 -17.802200 -20.132000
H -9.692300 -17.050700 -21.765200
O -8.951000 -16.303700 -17.722800
H -8.948500 -20.308700 -18.498800
N -8.833500 -17.972500 -19.749800
N -8.690200 -18.323300 -18.409100
N -8.666100 -17.482100 -17.417500
C -8.281900 -19.700300 -18.095300
H -8.187800 -19.650300 -17.047100
H -7.455400 -21.409900 -19.950500
C -6.861300 -19.995400 -18.575700
C -6.646800 -20.934200 -19.566200
H -5.796500 -18.810300 -17.399300
C -5.776100 -19.407400 -17.952300
C -5.384600 -21.307700 -19.886500
H -5.229300 -22.022900 -20.623000
C -4.482700 -19.752500 -18.309900
C -4.301500 -20.723100 -19.272700
H -3.745800 -19.400600 -17.794300
Cl -2.701100 -21.237300 -19.684700
