3
Fragment
H -9.276100 -15.234400 -15.840900
O -8.962200 -14.972200 -15.172600
H -8.574300 -14.405700 -15.061600
29
Fragment
Cl -16.223400 -15.561300 -17.675800
H -15.178700 -13.724600 -19.566200
C -14.623000 -15.047100 -18.087800
C -14.441800 -14.076500 -19.050700
H -13.695200 -16.346900 -16.737500
C -13.539800 -15.631700 -17.474100
C -13.148400 -13.731400 -19.408300
H -13.128000 -13.134300 -19.961200
C -12.277700 -15.258200 -17.794300
C -12.063200 -14.319400 -18.784900
H -11.469000 -15.733900 -17.410000
H -10.736700 -13.974300 -20.313500
C -10.642600 -14.024300 -19.265200
N -10.258400 -11.806100 -19.943100
N -10.234300 -12.647300 -18.951400
N -10.091000 -12.296500 -17.610700
H -9.976000 -14.632700 -18.861700
O -9.973500 -10.627700 -19.637800
H -9.232200 -11.374700 -15.595400
C -8.857000 -12.126200 -17.228500
N -8.573300 -11.822000 -15.933700
N -7.732300 -12.252200 -17.918100
H -7.711800 -12.646100 -18.861700
C -7.191600 -11.384900 -15.849400
H -6.990800 -10.455200 -15.872900
H -6.817500 -11.579000 -15.136400
C -6.582400 -12.046700 -17.036400
H -6.011000 -12.759600 -16.972400
H -5.873600 -11.488200 -17.292600
32
Fragment
H -9.276100 -15.234400 -15.840900
O -8.962200 -14.972200 -15.172600
H -8.574300 -14.405700 -15.061600
Cl -16.223400 -15.561300 -17.675800
H -15.178700 -13.724600 -19.566200
C -14.623000 -15.047100 -18.087800
C -14.441800 -14.076500 -19.050700
H -13.695200 -16.346900 -16.737500
C -13.539800 -15.631700 -17.474100
C -13.148400 -13.731400 -19.408300
H -13.128000 -13.134300 -19.961200
C -12.277700 -15.258200 -17.794300
C -12.063200 -14.319400 -18.784900
H -11.469000 -15.733900 -17.410000
H -10.736700 -13.974300 -20.313500
C -10.642600 -14.024300 -19.265200
N -10.258400 -11.806100 -19.943100
N -10.234300 -12.647300 -18.951400
N -10.091000 -12.296500 -17.610700
H -9.976000 -14.632700 -18.861700
O -9.973500 -10.627700 -19.637800
H -9.232200 -11.374700 -15.595400
C -8.857000 -12.126200 -17.228500
N -8.573300 -11.822000 -15.933700
N -7.732300 -12.252200 -17.918100
H -7.711800 -12.646100 -18.861700
C -7.191600 -11.384900 -15.849400
H -6.990800 -10.455200 -15.872900
H -6.817500 -11.579000 -15.136400
C -6.582400 -12.046700 -17.036400
H -6.011000 -12.759600 -16.972400
H -5.873600 -11.488200 -17.292600
