27
Fragment
O -19.681100 -20.696100 -15.322700
O -19.580700 -20.195100 -17.405400
N -19.036300 -20.415500 -16.319400
H -18.952400 -19.144400 -20.502800
H -18.637100 -20.640600 -20.848000
H -18.592800 -19.550400 -21.973600
C -18.417300 -19.727600 -21.046500
H -18.139600 -19.926700 -18.649000
H -17.626400 -20.790500 -14.248500
C -17.596600 -20.339700 -16.216400
N -17.264700 -19.847800 -18.561200
C -17.070400 -20.572000 -14.961200
C -16.977500 -19.489800 -20.760100
C -16.777800 -20.035600 -17.321400
N -16.421400 -19.559700 -19.602800
H -16.317000 -18.310100 -22.261700
H -16.154800 -19.838100 -22.572800
C -16.074000 -19.163700 -21.894700
O -15.904800 -21.104500 -12.581700
C -15.728600 -20.476100 -14.785200
C -15.390400 -19.949100 -17.074000
N -15.172900 -20.706800 -13.462100
H -15.167000 -19.130700 -21.582100
C -14.881500 -20.156400 -15.833400
H -14.814100 -19.746100 -17.775100
O -13.989000 -20.486400 -13.300000
H -13.965900 -20.084100 -15.687200
18
Fragment
H -23.424200 -22.649800 -7.940700
H -22.666700 -21.873000 -9.948900
C -22.530900 -22.414200 -8.047500
C -22.079200 -21.963800 -9.233800
H -21.956800 -22.840400 -6.165300
C -21.633700 -22.522800 -6.977400
C -20.726100 -21.631400 -9.394400
H -20.693400 -21.096300 -11.359200
N -20.359800 -22.201400 -7.054200
C -20.158600 -21.195600 -10.604800
C -19.896400 -21.762900 -8.250200
C -18.842600 -20.921200 -10.673100
C -18.524500 -21.430400 -8.363900
H -18.475600 -20.658800 -11.486400
H -18.136100 -21.796100 -6.539000
C -18.013900 -21.020000 -9.552800
O -17.710400 -21.497600 -7.288800
H -17.111600 -20.804500 -9.621600
45
Fragment
O -19.681100 -20.696100 -15.322700
O -19.580700 -20.195100 -17.405400
N -19.036300 -20.415500 -16.319400
H -18.952400 -19.144400 -20.502800
H -18.637100 -20.640600 -20.848000
H -18.592800 -19.550400 -21.973600
C -18.417300 -19.727600 -21.046500
H -18.139600 -19.926700 -18.649000
H -17.626400 -20.790500 -14.248500
C -17.596600 -20.339700 -16.216400
N -17.264700 -19.847800 -18.561200
C -17.070400 -20.572000 -14.961200
C -16.977500 -19.489800 -20.760100
C -16.777800 -20.035600 -17.321400
N -16.421400 -19.559700 -19.602800
H -16.317000 -18.310100 -22.261700
H -16.154800 -19.838100 -22.572800
C -16.074000 -19.163700 -21.894700
O -15.904800 -21.104500 -12.581700
C -15.728600 -20.476100 -14.785200
C -15.390400 -19.949100 -17.074000
N -15.172900 -20.706800 -13.462100
H -15.167000 -19.130700 -21.582100
C -14.881500 -20.156400 -15.833400
H -14.814100 -19.746100 -17.775100
O -13.989000 -20.486400 -13.300000
H -13.965900 -20.084100 -15.687200
H -23.424200 -22.649800 -7.940700
H -22.666700 -21.873000 -9.948900
C -22.530900 -22.414200 -8.047500
C -22.079200 -21.963800 -9.233800
H -21.956800 -22.840400 -6.165300
C -21.633700 -22.522800 -6.977400
C -20.726100 -21.631400 -9.394400
H -20.693400 -21.096300 -11.359200
N -20.359800 -22.201400 -7.054200
C -20.158600 -21.195600 -10.604800
C -19.896400 -21.762900 -8.250200
C -18.842600 -20.921200 -10.673100
C -18.524500 -21.430400 -8.363900
H -18.475600 -20.658800 -11.486400
H -18.136100 -21.796100 -6.539000
C -18.013900 -21.020000 -9.552800
O -17.710400 -21.497600 -7.288800
H -17.111600 -20.804500 -9.621600
