27
Fragment
O -19.681100 -20.696100 -15.322700
O -19.580700 -20.195100 -17.405400
N -19.036300 -20.415500 -16.319400
H -18.952400 -19.144400 -20.502800
H -18.637100 -20.640600 -20.848000
H -18.592800 -19.550400 -21.973600
C -18.417300 -19.727600 -21.046500
H -18.139600 -19.926700 -18.649000
H -17.626400 -20.790500 -14.248500
C -17.596600 -20.339700 -16.216400
N -17.264700 -19.847800 -18.561200
C -17.070400 -20.572000 -14.961200
C -16.977500 -19.489800 -20.760100
C -16.777800 -20.035600 -17.321400
N -16.421400 -19.559700 -19.602800
H -16.317000 -18.310100 -22.261700
H -16.154800 -19.838100 -22.572800
C -16.074000 -19.163700 -21.894700
O -15.904800 -21.104500 -12.581700
C -15.728600 -20.476100 -14.785200
C -15.390400 -19.949100 -17.074000
N -15.172900 -20.706800 -13.462100
H -15.167000 -19.130700 -21.582100
C -14.881500 -20.156400 -15.833400
H -14.814100 -19.746100 -17.775100
O -13.989000 -20.486400 -13.300000
H -13.965900 -20.084100 -15.687200
27
Fragment
H -23.615100 -17.949200 -30.525100
O -23.592000 -17.546900 -32.912300
H -22.766900 -18.287200 -28.437200
C -22.699600 -17.876900 -30.378900
H -22.414000 -18.902600 -24.630200
N -22.408100 -17.326400 -32.750200
C -22.190600 -18.084200 -29.138400
C -21.852400 -17.557100 -31.427200
O -21.676300 -16.928800 -33.630700
C -21.507000 -18.869500 -24.317600
H -21.426200 -18.195200 -23.639600
H -21.264000 -19.723200 -23.950600
N -21.159600 -18.473600 -26.609500
C -20.803200 -17.997700 -28.890900
C -20.603500 -18.543500 -25.452200
C -20.510600 -17.461300 -31.251100
N -20.316300 -18.185500 -27.651100
C -19.984400 -17.693600 -29.996000
H -19.954600 -17.242800 -31.963800
H -19.441400 -18.106600 -27.563300
C -19.163700 -18.305700 -25.165800
H -18.988300 -18.482900 -24.238700
H -18.944000 -17.392600 -25.364300
H -18.628600 -18.888900 -25.709500
N -18.544700 -17.617800 -29.892900
O -18.000300 -17.838200 -28.806900
O -17.900000 -17.337200 -30.889600
54
Fragment
O -19.681100 -20.696100 -15.322700
O -19.580700 -20.195100 -17.405400
N -19.036300 -20.415500 -16.319400
H -18.952400 -19.144400 -20.502800
H -18.637100 -20.640600 -20.848000
H -18.592800 -19.550400 -21.973600
C -18.417300 -19.727600 -21.046500
H -18.139600 -19.926700 -18.649000
H -17.626400 -20.790500 -14.248500
C -17.596600 -20.339700 -16.216400
N -17.264700 -19.847800 -18.561200
C -17.070400 -20.572000 -14.961200
C -16.977500 -19.489800 -20.760100
C -16.777800 -20.035600 -17.321400
N -16.421400 -19.559700 -19.602800
H -16.317000 -18.310100 -22.261700
H -16.154800 -19.838100 -22.572800
C -16.074000 -19.163700 -21.894700
O -15.904800 -21.104500 -12.581700
C -15.728600 -20.476100 -14.785200
C -15.390400 -19.949100 -17.074000
N -15.172900 -20.706800 -13.462100
H -15.167000 -19.130700 -21.582100
C -14.881500 -20.156400 -15.833400
H -14.814100 -19.746100 -17.775100
O -13.989000 -20.486400 -13.300000
H -13.965900 -20.084100 -15.687200
H -23.615100 -17.949200 -30.525100
O -23.592000 -17.546900 -32.912300
H -22.766900 -18.287200 -28.437200
C -22.699600 -17.876900 -30.378900
H -22.414000 -18.902600 -24.630200
N -22.408100 -17.326400 -32.750200
C -22.190600 -18.084200 -29.138400
C -21.852400 -17.557100 -31.427200
O -21.676300 -16.928800 -33.630700
C -21.507000 -18.869500 -24.317600
H -21.426200 -18.195200 -23.639600
H -21.264000 -19.723200 -23.950600
N -21.159600 -18.473600 -26.609500
C -20.803200 -17.997700 -28.890900
C -20.603500 -18.543500 -25.452200
C -20.510600 -17.461300 -31.251100
N -20.316300 -18.185500 -27.651100
C -19.984400 -17.693600 -29.996000
H -19.954600 -17.242800 -31.963800
H -19.441400 -18.106600 -27.563300
C -19.163700 -18.305700 -25.165800
H -18.988300 -18.482900 -24.238700
H -18.944000 -17.392600 -25.364300
H -18.628600 -18.888900 -25.709500
N -18.544700 -17.617800 -29.892900
O -18.000300 -17.838200 -28.806900
O -17.900000 -17.337200 -30.889600
