27
Fragment
O -19.681100 -20.696100 -15.322700
O -19.580700 -20.195100 -17.405400
N -19.036300 -20.415500 -16.319400
H -18.952400 -19.144400 -20.502800
H -18.637100 -20.640600 -20.848000
H -18.592800 -19.550400 -21.973600
C -18.417300 -19.727600 -21.046500
H -18.139600 -19.926700 -18.649000
H -17.626400 -20.790500 -14.248500
C -17.596600 -20.339700 -16.216400
N -17.264700 -19.847800 -18.561200
C -17.070400 -20.572000 -14.961200
C -16.977500 -19.489800 -20.760100
C -16.777800 -20.035600 -17.321400
N -16.421400 -19.559700 -19.602800
H -16.317000 -18.310100 -22.261700
H -16.154800 -19.838100 -22.572800
C -16.074000 -19.163700 -21.894700
O -15.904800 -21.104500 -12.581700
C -15.728600 -20.476100 -14.785200
C -15.390400 -19.949100 -17.074000
N -15.172900 -20.706800 -13.462100
H -15.167000 -19.130700 -21.582100
C -14.881500 -20.156400 -15.833400
H -14.814100 -19.746100 -17.775100
O -13.989000 -20.486400 -13.300000
H -13.965900 -20.084100 -15.687200
27
Fragment
O -27.760300 -20.696100 -15.322700
O -27.659900 -20.195100 -17.405400
N -27.115500 -20.415500 -16.319400
H -27.031600 -19.144400 -20.502800
H -26.716300 -20.640600 -20.848000
H -26.672000 -19.550400 -21.973600
C -26.496500 -19.727600 -21.046500
H -26.218800 -19.926700 -18.649000
H -25.705600 -20.790500 -14.248500
C -25.675800 -20.339700 -16.216400
N -25.343900 -19.847800 -18.561200
C -25.149600 -20.572000 -14.961200
C -25.056700 -19.489800 -20.760100
C -24.857000 -20.035600 -17.321400
N -24.500600 -19.559700 -19.602800
H -24.396200 -18.310100 -22.261700
H -24.234000 -19.838100 -22.572800
C -24.153200 -19.163700 -21.894700
O -23.984000 -21.104500 -12.581700
C -23.807800 -20.476100 -14.785200
C -23.469600 -19.949100 -17.074000
N -23.252100 -20.706800 -13.462100
H -23.246200 -19.130700 -21.582100
C -22.960700 -20.156400 -15.833400
H -22.893300 -19.746100 -17.775100
O -22.068200 -20.486400 -13.300000
H -22.045100 -20.084100 -15.687200
54
Fragment
O -19.681100 -20.696100 -15.322700
O -19.580700 -20.195100 -17.405400
N -19.036300 -20.415500 -16.319400
H -18.952400 -19.144400 -20.502800
H -18.637100 -20.640600 -20.848000
H -18.592800 -19.550400 -21.973600
C -18.417300 -19.727600 -21.046500
H -18.139600 -19.926700 -18.649000
H -17.626400 -20.790500 -14.248500
C -17.596600 -20.339700 -16.216400
N -17.264700 -19.847800 -18.561200
C -17.070400 -20.572000 -14.961200
C -16.977500 -19.489800 -20.760100
C -16.777800 -20.035600 -17.321400
N -16.421400 -19.559700 -19.602800
H -16.317000 -18.310100 -22.261700
H -16.154800 -19.838100 -22.572800
C -16.074000 -19.163700 -21.894700
O -15.904800 -21.104500 -12.581700
C -15.728600 -20.476100 -14.785200
C -15.390400 -19.949100 -17.074000
N -15.172900 -20.706800 -13.462100
H -15.167000 -19.130700 -21.582100
C -14.881500 -20.156400 -15.833400
H -14.814100 -19.746100 -17.775100
O -13.989000 -20.486400 -13.300000
H -13.965900 -20.084100 -15.687200
O -27.760300 -20.696100 -15.322700
O -27.659900 -20.195100 -17.405400
N -27.115500 -20.415500 -16.319400
H -27.031600 -19.144400 -20.502800
H -26.716300 -20.640600 -20.848000
H -26.672000 -19.550400 -21.973600
C -26.496500 -19.727600 -21.046500
H -26.218800 -19.926700 -18.649000
H -25.705600 -20.790500 -14.248500
C -25.675800 -20.339700 -16.216400
N -25.343900 -19.847800 -18.561200
C -25.149600 -20.572000 -14.961200
C -25.056700 -19.489800 -20.760100
C -24.857000 -20.035600 -17.321400
N -24.500600 -19.559700 -19.602800
H -24.396200 -18.310100 -22.261700
H -24.234000 -19.838100 -22.572800
C -24.153200 -19.163700 -21.894700
O -23.984000 -21.104500 -12.581700
C -23.807800 -20.476100 -14.785200
C -23.469600 -19.949100 -17.074000
N -23.252100 -20.706800 -13.462100
H -23.246200 -19.130700 -21.582100
C -22.960700 -20.156400 -15.833400
H -22.893300 -19.746100 -17.775100
O -22.068200 -20.486400 -13.300000
H -22.045100 -20.084100 -15.687200
