27
Fragment
O -19.681100 -20.696100 -15.322700
O -19.580700 -20.195100 -17.405400
N -19.036300 -20.415500 -16.319400
H -18.952400 -19.144400 -20.502800
H -18.637100 -20.640600 -20.848000
H -18.592800 -19.550400 -21.973600
C -18.417300 -19.727600 -21.046500
H -18.139600 -19.926700 -18.649000
H -17.626400 -20.790500 -14.248500
C -17.596600 -20.339700 -16.216400
N -17.264700 -19.847800 -18.561200
C -17.070400 -20.572000 -14.961200
C -16.977500 -19.489800 -20.760100
C -16.777800 -20.035600 -17.321400
N -16.421400 -19.559700 -19.602800
H -16.317000 -18.310100 -22.261700
H -16.154800 -19.838100 -22.572800
C -16.074000 -19.163700 -21.894700
O -15.904800 -21.104500 -12.581700
C -15.728600 -20.476100 -14.785200
C -15.390400 -19.949100 -17.074000
N -15.172900 -20.706800 -13.462100
H -15.167000 -19.130700 -21.582100
C -14.881500 -20.156400 -15.833400
H -14.814100 -19.746100 -17.775100
O -13.989000 -20.486400 -13.300000
H -13.965900 -20.084100 -15.687200
27
Fragment
H -24.758600 -23.308900 -18.972000
O -24.735500 -22.906700 -21.359200
H -23.910300 -23.646900 -16.884100
C -23.843000 -23.236600 -18.825900
H -23.557400 -24.262400 -13.077200
N -23.551600 -22.686200 -21.197100
C -23.334100 -23.443900 -17.585300
C -22.995900 -22.916900 -19.874100
O -22.819700 -22.288500 -22.077600
C -22.650400 -24.229300 -12.764500
H -22.569600 -23.554900 -12.086500
H -22.407500 -25.082900 -12.397500
N -22.303100 -23.833300 -15.056400
C -21.946700 -23.357400 -17.337800
C -21.746900 -23.903200 -13.899200
C -21.654100 -22.821000 -19.698000
N -21.459800 -23.545200 -16.098100
C -21.127800 -23.053300 -18.442900
H -21.098100 -22.602500 -20.410700
H -20.584900 -23.466300 -16.010300
C -20.307100 -23.665500 -13.612800
H -20.131700 -23.842600 -12.685600
H -20.087400 -22.752400 -13.811200
H -19.772100 -24.248600 -14.156500
N -19.688100 -22.977500 -18.339800
O -19.143700 -23.198000 -17.253800
O -19.043400 -22.696900 -19.336500
54
Fragment
O -19.681100 -20.696100 -15.322700
O -19.580700 -20.195100 -17.405400
N -19.036300 -20.415500 -16.319400
H -18.952400 -19.144400 -20.502800
H -18.637100 -20.640600 -20.848000
H -18.592800 -19.550400 -21.973600
C -18.417300 -19.727600 -21.046500
H -18.139600 -19.926700 -18.649000
H -17.626400 -20.790500 -14.248500
C -17.596600 -20.339700 -16.216400
N -17.264700 -19.847800 -18.561200
C -17.070400 -20.572000 -14.961200
C -16.977500 -19.489800 -20.760100
C -16.777800 -20.035600 -17.321400
N -16.421400 -19.559700 -19.602800
H -16.317000 -18.310100 -22.261700
H -16.154800 -19.838100 -22.572800
C -16.074000 -19.163700 -21.894700
O -15.904800 -21.104500 -12.581700
C -15.728600 -20.476100 -14.785200
C -15.390400 -19.949100 -17.074000
N -15.172900 -20.706800 -13.462100
H -15.167000 -19.130700 -21.582100
C -14.881500 -20.156400 -15.833400
H -14.814100 -19.746100 -17.775100
O -13.989000 -20.486400 -13.300000
H -13.965900 -20.084100 -15.687200
H -24.758600 -23.308900 -18.972000
O -24.735500 -22.906700 -21.359200
H -23.910300 -23.646900 -16.884100
C -23.843000 -23.236600 -18.825900
H -23.557400 -24.262400 -13.077200
N -23.551600 -22.686200 -21.197100
C -23.334100 -23.443900 -17.585300
C -22.995900 -22.916900 -19.874100
O -22.819700 -22.288500 -22.077600
C -22.650400 -24.229300 -12.764500
H -22.569600 -23.554900 -12.086500
H -22.407500 -25.082900 -12.397500
N -22.303100 -23.833300 -15.056400
C -21.946700 -23.357400 -17.337800
C -21.746900 -23.903200 -13.899200
C -21.654100 -22.821000 -19.698000
N -21.459800 -23.545200 -16.098100
C -21.127800 -23.053300 -18.442900
H -21.098100 -22.602500 -20.410700
H -20.584900 -23.466300 -16.010300
C -20.307100 -23.665500 -13.612800
H -20.131700 -23.842600 -12.685600
H -20.087400 -22.752400 -13.811200
H -19.772100 -24.248600 -14.156500
N -19.688100 -22.977500 -18.339800
O -19.143700 -23.198000 -17.253800
O -19.043400 -22.696900 -19.336500
