27
Fragment
O -19.681100 -20.696100 -15.322700
O -19.580700 -20.195100 -17.405400
N -19.036300 -20.415500 -16.319400
H -18.952400 -19.144400 -20.502800
H -18.637100 -20.640600 -20.848000
H -18.592800 -19.550400 -21.973600
C -18.417300 -19.727600 -21.046500
H -18.139600 -19.926700 -18.649000
H -17.626400 -20.790500 -14.248500
C -17.596600 -20.339700 -16.216400
N -17.264700 -19.847800 -18.561200
C -17.070400 -20.572000 -14.961200
C -16.977500 -19.489800 -20.760100
C -16.777800 -20.035600 -17.321400
N -16.421400 -19.559700 -19.602800
H -16.317000 -18.310100 -22.261700
H -16.154800 -19.838100 -22.572800
C -16.074000 -19.163700 -21.894700
O -15.904800 -21.104500 -12.581700
C -15.728600 -20.476100 -14.785200
C -15.390400 -19.949100 -17.074000
N -15.172900 -20.706800 -13.462100
H -15.167000 -19.130700 -21.582100
C -14.881500 -20.156400 -15.833400
H -14.814100 -19.746100 -17.775100
O -13.989000 -20.486400 -13.300000
H -13.965900 -20.084100 -15.687200
18
Fragment
H -19.770100 -18.036300 -13.484500
O -19.171300 -17.343200 -15.817300
C -18.867800 -17.820700 -13.553400
H -18.745700 -17.044700 -16.567100
H -18.406100 -18.182000 -11.619700
C -18.357200 -17.410300 -14.742300
C -18.039100 -17.919500 -12.433100
C -16.985400 -17.077900 -14.856000
C -16.723100 -17.645100 -12.501400
N -16.522000 -16.639300 -16.052000
H -16.188300 -17.744400 -11.746900
C -16.155700 -17.209300 -13.711800
C -15.248100 -16.317900 -16.128800
H -14.924900 -16.000300 -16.940900
C -14.802500 -16.876900 -13.872400
C -14.350800 -16.426500 -15.058600
H -14.215000 -16.967700 -13.157200
H -13.457500 -16.191000 -15.165500
45
Fragment
O -19.681100 -20.696100 -15.322700
O -19.580700 -20.195100 -17.405400
N -19.036300 -20.415500 -16.319400
H -18.952400 -19.144400 -20.502800
H -18.637100 -20.640600 -20.848000
H -18.592800 -19.550400 -21.973600
C -18.417300 -19.727600 -21.046500
H -18.139600 -19.926700 -18.649000
H -17.626400 -20.790500 -14.248500
C -17.596600 -20.339700 -16.216400
N -17.264700 -19.847800 -18.561200
C -17.070400 -20.572000 -14.961200
C -16.977500 -19.489800 -20.760100
C -16.777800 -20.035600 -17.321400
N -16.421400 -19.559700 -19.602800
H -16.317000 -18.310100 -22.261700
H -16.154800 -19.838100 -22.572800
C -16.074000 -19.163700 -21.894700
O -15.904800 -21.104500 -12.581700
C -15.728600 -20.476100 -14.785200
C -15.390400 -19.949100 -17.074000
N -15.172900 -20.706800 -13.462100
H -15.167000 -19.130700 -21.582100
C -14.881500 -20.156400 -15.833400
H -14.814100 -19.746100 -17.775100
O -13.989000 -20.486400 -13.300000
H -13.965900 -20.084100 -15.687200
H -19.770100 -18.036300 -13.484500
O -19.171300 -17.343200 -15.817300
C -18.867800 -17.820700 -13.553400
H -18.745700 -17.044700 -16.567100
H -18.406100 -18.182000 -11.619700
C -18.357200 -17.410300 -14.742300
C -18.039100 -17.919500 -12.433100
C -16.985400 -17.077900 -14.856000
C -16.723100 -17.645100 -12.501400
N -16.522000 -16.639300 -16.052000
H -16.188300 -17.744400 -11.746900
C -16.155700 -17.209300 -13.711800
C -15.248100 -16.317900 -16.128800
H -14.924900 -16.000300 -16.940900
C -14.802500 -16.876900 -13.872400
C -14.350800 -16.426500 -15.058600
H -14.215000 -16.967700 -13.157200
H -13.457500 -16.191000 -15.165500
