6
Fragment
H -12.762100 -38.500200 -8.033700
H -12.504700 -38.035500 -6.558900
C -12.087000 -38.306100 -7.379500
H -11.666600 -36.556700 -7.823200
H -11.556800 -39.092200 -7.223600
O -11.260900 -37.268000 -7.851600
6
Fragment
O -14.474300 -42.382000 -5.592400
H -14.178400 -40.557800 -4.964400
H -14.068600 -43.093300 -5.564000
C -13.648200 -41.343900 -5.120300
H -13.230500 -41.614500 -4.299700
H -12.973100 -41.149800 -5.774500
12
Fragment
H -12.762100 -38.500200 -8.033700
H -12.504700 -38.035500 -6.558900
C -12.087000 -38.306100 -7.379500
H -11.666600 -36.556700 -7.823200
H -11.556800 -39.092200 -7.223600
O -11.260900 -37.268000 -7.851600
O -14.474300 -42.382000 -5.592400
H -14.178400 -40.557800 -4.964400
H -14.068600 -43.093300 -5.564000
C -13.648200 -41.343900 -5.120300
H -13.230500 -41.614500 -4.299700
H -12.973100 -41.149800 -5.774500
