6
Fragment
H -12.762100 -38.500200 -8.033700
H -12.504700 -38.035500 -6.558900
C -12.087000 -38.306100 -7.379500
H -11.666600 -36.556700 -7.823200
H -11.556800 -39.092200 -7.223600
O -11.260900 -37.268000 -7.851600
19
Fragment
O -10.467400 -41.318400 -6.183000
N -9.925200 -43.747500 -5.453300
N -9.740800 -41.442200 -5.207900
N -9.661900 -45.011300 -5.208800
C -9.330700 -42.765100 -4.780000
O -9.305000 -40.484000 -4.555900
O -9.260400 -47.912100 -5.047100
C -8.738000 -45.254700 -4.248700
N -8.485800 -47.752000 -4.095000
C -8.366500 -42.919100 -3.762900
C -8.182900 -46.413600 -3.711400
N -8.100600 -44.253500 -3.555100
O -7.964200 -48.664800 -3.467900
H -7.881000 -41.200300 -3.156100
N -7.731700 -42.040600 -3.044000
C -7.269300 -46.025000 -2.730900
N -7.203300 -44.696700 -2.617100
H -7.162100 -42.302100 -2.455300
H -6.768400 -46.619100 -2.219400
25
Fragment
H -12.762100 -38.500200 -8.033700
H -12.504700 -38.035500 -6.558900
C -12.087000 -38.306100 -7.379500
H -11.666600 -36.556700 -7.823200
H -11.556800 -39.092200 -7.223600
O -11.260900 -37.268000 -7.851600
O -10.467400 -41.318400 -6.183000
N -9.925200 -43.747500 -5.453300
N -9.740800 -41.442200 -5.207900
N -9.661900 -45.011300 -5.208800
C -9.330700 -42.765100 -4.780000
O -9.305000 -40.484000 -4.555900
O -9.260400 -47.912100 -5.047100
C -8.738000 -45.254700 -4.248700
N -8.485800 -47.752000 -4.095000
C -8.366500 -42.919100 -3.762900
C -8.182900 -46.413600 -3.711400
N -8.100600 -44.253500 -3.555100
O -7.964200 -48.664800 -3.467900
H -7.881000 -41.200300 -3.156100
N -7.731700 -42.040600 -3.044000
C -7.269300 -46.025000 -2.730900
N -7.203300 -44.696700 -2.617100
H -7.162100 -42.302100 -2.455300
H -6.768400 -46.619100 -2.219400
