6
Fragment
H -12.762100 -38.500200 -8.033700
H -12.504700 -38.035500 -6.558900
C -12.087000 -38.306100 -7.379500
H -11.666600 -36.556700 -7.823200
H -11.556800 -39.092200 -7.223600
O -11.260900 -37.268000 -7.851600
19
Fragment
O -10.467400 -41.318400 -10.701400
N -9.925200 -43.747500 -9.971700
N -9.740800 -41.442200 -9.726300
N -9.661900 -45.011300 -9.727200
C -9.330700 -42.765100 -9.298400
O -9.305000 -40.484000 -9.074300
O -9.260400 -47.912100 -9.565500
C -8.738000 -45.254700 -8.767100
N -8.485800 -47.752000 -8.613400
C -8.366500 -42.919100 -8.281300
C -8.182900 -46.413600 -8.229800
N -8.100600 -44.253500 -8.073500
O -7.964200 -48.664800 -7.986300
H -7.881000 -41.200300 -7.674500
N -7.731700 -42.040600 -7.562400
C -7.269300 -46.025000 -7.249300
N -7.203300 -44.696700 -7.135500
H -7.162100 -42.302100 -6.973700
H -6.768400 -46.619100 -6.737800
25
Fragment
H -12.762100 -38.500200 -8.033700
H -12.504700 -38.035500 -6.558900
C -12.087000 -38.306100 -7.379500
H -11.666600 -36.556700 -7.823200
H -11.556800 -39.092200 -7.223600
O -11.260900 -37.268000 -7.851600
O -10.467400 -41.318400 -10.701400
N -9.925200 -43.747500 -9.971700
N -9.740800 -41.442200 -9.726300
N -9.661900 -45.011300 -9.727200
C -9.330700 -42.765100 -9.298400
O -9.305000 -40.484000 -9.074300
O -9.260400 -47.912100 -9.565500
C -8.738000 -45.254700 -8.767100
N -8.485800 -47.752000 -8.613400
C -8.366500 -42.919100 -8.281300
C -8.182900 -46.413600 -8.229800
N -8.100600 -44.253500 -8.073500
O -7.964200 -48.664800 -7.986300
H -7.881000 -41.200300 -7.674500
N -7.731700 -42.040600 -7.562400
C -7.269300 -46.025000 -7.249300
N -7.203300 -44.696700 -7.135500
H -7.162100 -42.302100 -6.973700
H -6.768400 -46.619100 -6.737800
