3
Fragment
H -20.730700 -30.527900 -18.453600
O -20.281100 -30.882100 -17.714200
H -19.379600 -30.861900 -17.925800
3
Fragment
H -17.752400 -31.944800 -18.472000
O -17.607500 -31.290100 -18.190300
H -17.025200 -30.950800 -18.804400
6
Fragment
H -20.730700 -30.527900 -18.453600
O -20.281100 -30.882100 -17.714200
H -19.379600 -30.861900 -17.925800
H -17.752400 -31.944800 -18.472000
O -17.607500 -31.290100 -18.190300
H -17.025200 -30.950800 -18.804400
