3
Fragment
H -20.730700 -30.527900 -18.453600
O -20.281100 -30.882100 -17.714200
H -19.379600 -30.861900 -17.925800
24
Fragment
O -18.105800 -32.852700 -15.588400
O -17.632700 -34.581400 -14.372900
O -17.585300 -34.181000 -11.595400
N -17.484000 -33.423700 -14.701100
H -16.703000 -31.161200 -16.518300
N -16.469500 -34.205900 -12.049300
C -16.446000 -32.644200 -14.017800
N -16.076700 -30.989500 -15.885900
C -15.969300 -33.010500 -12.757900
C -15.864900 -31.577500 -14.668400
O -15.676900 -35.121100 -11.940700
O -15.326400 -32.745900 -9.931100
C -15.180700 -29.964700 -16.085100
O -15.090100 -29.240500 -17.053100
C -14.952600 -32.309200 -12.154800
C -14.778300 -30.883300 -14.071300
N -14.495300 -32.748600 -10.829600
N -14.399200 -29.913400 -14.941900
C -14.355000 -31.223800 -12.805400
H -13.723400 -29.356000 -14.723000
O -13.480500 -30.301200 -10.886700
N -13.409400 -30.348500 -12.106100
O -13.334500 -33.093600 -10.717700
O -12.661000 -29.679700 -12.802600
27
Fragment
H -20.730700 -30.527900 -18.453600
O -20.281100 -30.882100 -17.714200
H -19.379600 -30.861900 -17.925800
O -18.105800 -32.852700 -15.588400
O -17.632700 -34.581400 -14.372900
O -17.585300 -34.181000 -11.595400
N -17.484000 -33.423700 -14.701100
H -16.703000 -31.161200 -16.518300
N -16.469500 -34.205900 -12.049300
C -16.446000 -32.644200 -14.017800
N -16.076700 -30.989500 -15.885900
C -15.969300 -33.010500 -12.757900
C -15.864900 -31.577500 -14.668400
O -15.676900 -35.121100 -11.940700
O -15.326400 -32.745900 -9.931100
C -15.180700 -29.964700 -16.085100
O -15.090100 -29.240500 -17.053100
C -14.952600 -32.309200 -12.154800
C -14.778300 -30.883300 -14.071300
N -14.495300 -32.748600 -10.829600
N -14.399200 -29.913400 -14.941900
C -14.355000 -31.223800 -12.805400
H -13.723400 -29.356000 -14.723000
O -13.480500 -30.301200 -10.886700
N -13.409400 -30.348500 -12.106100
O -13.334500 -33.093600 -10.717700
O -12.661000 -29.679700 -12.802600
