3
Fragment
H -20.730700 -30.527900 -18.453600
O -20.281100 -30.882100 -17.714200
H -19.379600 -30.861900 -17.925800
24
Fragment
O -23.441400 -26.926100 -13.786900
H -22.617600 -26.297700 -11.463200
C -22.378200 -27.124800 -13.225300
N -22.070800 -26.785100 -11.919200
O -21.503600 -25.614900 -9.477600
N -21.245600 -27.725300 -13.759900
H -21.174100 -27.937000 -14.669500
C -20.788300 -27.144500 -11.632500
N -20.577900 -26.397800 -9.310000
C -20.263800 -27.759000 -12.811900
O -20.117400 -26.712000 -8.235400
C -20.013500 -27.002300 -10.513400
O -19.101800 -29.287200 -14.847300
C -18.965200 -28.220000 -12.826500
C -18.698800 -27.502500 -10.525700
N -18.367900 -28.746800 -14.040900
C -18.193900 -28.100300 -11.653700
N -17.791400 -27.382800 -9.362100
O -17.490700 -26.257700 -9.012000
O -17.372800 -28.415600 -8.888700
O -17.154000 -28.586200 -14.183600
N -16.833700 -28.677800 -11.590000
O -16.747600 -29.879100 -11.731800
O -15.909000 -27.914900 -11.364900
27
Fragment
H -20.730700 -30.527900 -18.453600
O -20.281100 -30.882100 -17.714200
H -19.379600 -30.861900 -17.925800
O -23.441400 -26.926100 -13.786900
H -22.617600 -26.297700 -11.463200
C -22.378200 -27.124800 -13.225300
N -22.070800 -26.785100 -11.919200
O -21.503600 -25.614900 -9.477600
N -21.245600 -27.725300 -13.759900
H -21.174100 -27.937000 -14.669500
C -20.788300 -27.144500 -11.632500
N -20.577900 -26.397800 -9.310000
C -20.263800 -27.759000 -12.811900
O -20.117400 -26.712000 -8.235400
C -20.013500 -27.002300 -10.513400
O -19.101800 -29.287200 -14.847300
C -18.965200 -28.220000 -12.826500
C -18.698800 -27.502500 -10.525700
N -18.367900 -28.746800 -14.040900
C -18.193900 -28.100300 -11.653700
N -17.791400 -27.382800 -9.362100
O -17.490700 -26.257700 -9.012000
O -17.372800 -28.415600 -8.888700
O -17.154000 -28.586200 -14.183600
N -16.833700 -28.677800 -11.590000
O -16.747600 -29.879100 -11.731800
O -15.909000 -27.914900 -11.364900
