27
Fragment
H -4.579700 -11.206000 -25.775500
O -4.505600 -13.640700 -26.026800
N -3.964400 -11.573000 -25.250700
C -3.830300 -12.931600 -25.290200
H -3.337900 -9.860500 -24.456100
C -3.217000 -10.782800 -24.437000
N -2.872800 -13.444900 -24.460500
H -2.713800 -14.371800 -24.556900
C -2.310800 -11.312000 -23.609500
C -2.066100 -12.736400 -23.598900
N -1.491900 -10.486800 -22.795900
O -1.212800 -13.301100 -22.929100
H -1.111900 -11.472000 -21.049800
N -1.080000 -9.283900 -23.263000
H -0.994900 -5.934700 -18.798400
C -0.977800 -10.721100 -21.581600
H -0.456400 -6.682600 -17.530300
N -0.306200 -8.768800 -22.333600
C -0.219000 -9.630900 -21.288200
C -0.205700 -6.232500 -18.339600
O -0.018100 -8.364000 -19.261700
H 0.346000 -5.476800 -18.126300
C 0.539000 -7.152800 -19.199700
C 0.610300 -9.351100 -20.095500
H 0.736900 -10.169200 -19.588900
H 1.482500 -9.032100 -20.374200
O 1.544900 -6.897100 -19.793400
27
Fragment
H 0.859000 -7.243800 -23.057100
O 1.091000 -7.597800 -25.402800
N 1.475100 -6.672900 -23.369800
C 1.692000 -6.801500 -24.707400
H 1.940900 -5.718500 -21.688200
C 2.123100 -5.759700 -22.598900
N 2.650300 -5.953400 -25.210000
H 2.799500 -6.014700 -26.049600
C 3.017500 -4.920100 -23.127500
H 3.149600 0.881400 -17.820300
C 3.379200 -5.020100 -24.508600
H 3.387000 -2.093300 -22.989900
N 3.706600 -3.996500 -22.293500
C 3.782500 -2.651300 -22.359600
C 4.071800 0.645500 -17.695300
H 4.127100 -0.176100 -17.201300
O 4.259300 -4.365100 -25.071900
O 4.393900 -0.676800 -19.598100
N 4.394900 -4.456900 -21.230400
H 4.517700 1.342100 -17.208400
C 4.555800 -2.287900 -21.312200
C 4.720600 0.471500 -19.016600
H 4.743300 -0.281700 -21.525500
N 4.919900 -3.407600 -20.640000
C 5.007000 -0.952300 -20.875800
O 5.471800 1.247800 -19.524700
H 5.973700 -0.936000 -20.793300
54
Fragment
H -4.579700 -11.206000 -25.775500
O -4.505600 -13.640700 -26.026800
N -3.964400 -11.573000 -25.250700
C -3.830300 -12.931600 -25.290200
H -3.337900 -9.860500 -24.456100
C -3.217000 -10.782800 -24.437000
N -2.872800 -13.444900 -24.460500
H -2.713800 -14.371800 -24.556900
C -2.310800 -11.312000 -23.609500
C -2.066100 -12.736400 -23.598900
N -1.491900 -10.486800 -22.795900
O -1.212800 -13.301100 -22.929100
H -1.111900 -11.472000 -21.049800
N -1.080000 -9.283900 -23.263000
H -0.994900 -5.934700 -18.798400
C -0.977800 -10.721100 -21.581600
H -0.456400 -6.682600 -17.530300
N -0.306200 -8.768800 -22.333600
C -0.219000 -9.630900 -21.288200
C -0.205700 -6.232500 -18.339600
O -0.018100 -8.364000 -19.261700
H 0.346000 -5.476800 -18.126300
C 0.539000 -7.152800 -19.199700
C 0.610300 -9.351100 -20.095500
H 0.736900 -10.169200 -19.588900
H 1.482500 -9.032100 -20.374200
O 1.544900 -6.897100 -19.793400
H 0.859000 -7.243800 -23.057100
O 1.091000 -7.597800 -25.402800
N 1.475100 -6.672900 -23.369800
C 1.692000 -6.801500 -24.707400
H 1.940900 -5.718500 -21.688200
C 2.123100 -5.759700 -22.598900
N 2.650300 -5.953400 -25.210000
H 2.799500 -6.014700 -26.049600
C 3.017500 -4.920100 -23.127500
H 3.149600 0.881400 -17.820300
C 3.379200 -5.020100 -24.508600
H 3.387000 -2.093300 -22.989900
N 3.706600 -3.996500 -22.293500
C 3.782500 -2.651300 -22.359600
C 4.071800 0.645500 -17.695300
H 4.127100 -0.176100 -17.201300
O 4.259300 -4.365100 -25.071900
O 4.393900 -0.676800 -19.598100
N 4.394900 -4.456900 -21.230400
H 4.517700 1.342100 -17.208400
C 4.555800 -2.287900 -21.312200
C 4.720600 0.471500 -19.016600
H 4.743300 -0.281700 -21.525500
N 4.919900 -3.407600 -20.640000
C 5.007000 -0.952300 -20.875800
O 5.471800 1.247800 -19.524700
H 5.973700 -0.936000 -20.793300
