27
Fragment
H -4.579700 -11.206000 -25.775500
O -4.505600 -13.640700 -26.026800
N -3.964400 -11.573000 -25.250700
C -3.830300 -12.931600 -25.290200
H -3.337900 -9.860500 -24.456100
C -3.217000 -10.782800 -24.437000
N -2.872800 -13.444900 -24.460500
H -2.713800 -14.371800 -24.556900
C -2.310800 -11.312000 -23.609500
C -2.066100 -12.736400 -23.598900
N -1.491900 -10.486800 -22.795900
O -1.212800 -13.301100 -22.929100
H -1.111900 -11.472000 -21.049800
N -1.080000 -9.283900 -23.263000
H -0.994900 -5.934700 -18.798400
C -0.977800 -10.721100 -21.581600
H -0.456400 -6.682600 -17.530300
N -0.306200 -8.768800 -22.333600
C -0.219000 -9.630900 -21.288200
C -0.205700 -6.232500 -18.339600
O -0.018100 -8.364000 -19.261700
H 0.346000 -5.476800 -18.126300
C 0.539000 -7.152800 -19.199700
C 0.610300 -9.351100 -20.095500
H 0.736900 -10.169200 -19.588900
H 1.482500 -9.032100 -20.374200
O 1.544900 -6.897100 -19.793400
27
Fragment
H -3.081100 -21.025000 -23.057100
O -2.849100 -21.379000 -25.402800
N -2.465000 -20.454100 -23.369800
C -2.248100 -20.582700 -24.707400
H -1.999200 -19.499700 -21.688200
C -1.817000 -19.540900 -22.598900
N -1.289800 -19.734600 -25.210000
H -1.140500 -19.795900 -26.049600
C -0.922600 -18.701300 -23.127500
H -0.790500 -12.899800 -17.820300
C -0.560900 -18.801300 -24.508600
H -0.553100 -15.874500 -22.989900
N -0.233500 -17.777700 -22.293500
C -0.157600 -16.432500 -22.359600
C 0.131700 -13.135700 -17.695300
H 0.187000 -13.957300 -17.201300
O 0.319300 -18.146300 -25.071900
O 0.453800 -14.458000 -19.598100
N 0.454800 -18.238100 -21.230400
H 0.577700 -12.439100 -17.208400
C 0.615700 -16.069100 -21.312200
C 0.780600 -13.309700 -19.016600
H 0.803200 -14.062900 -21.525500
N 0.979800 -17.188800 -20.640000
C 1.066900 -14.733500 -20.875800
O 1.531700 -12.533400 -19.524700
H 2.033600 -14.717200 -20.793300
54
Fragment
H -4.579700 -11.206000 -25.775500
O -4.505600 -13.640700 -26.026800
N -3.964400 -11.573000 -25.250700
C -3.830300 -12.931600 -25.290200
H -3.337900 -9.860500 -24.456100
C -3.217000 -10.782800 -24.437000
N -2.872800 -13.444900 -24.460500
H -2.713800 -14.371800 -24.556900
C -2.310800 -11.312000 -23.609500
C -2.066100 -12.736400 -23.598900
N -1.491900 -10.486800 -22.795900
O -1.212800 -13.301100 -22.929100
H -1.111900 -11.472000 -21.049800
N -1.080000 -9.283900 -23.263000
H -0.994900 -5.934700 -18.798400
C -0.977800 -10.721100 -21.581600
H -0.456400 -6.682600 -17.530300
N -0.306200 -8.768800 -22.333600
C -0.219000 -9.630900 -21.288200
C -0.205700 -6.232500 -18.339600
O -0.018100 -8.364000 -19.261700
H 0.346000 -5.476800 -18.126300
C 0.539000 -7.152800 -19.199700
C 0.610300 -9.351100 -20.095500
H 0.736900 -10.169200 -19.588900
H 1.482500 -9.032100 -20.374200
O 1.544900 -6.897100 -19.793400
H -3.081100 -21.025000 -23.057100
O -2.849100 -21.379000 -25.402800
N -2.465000 -20.454100 -23.369800
C -2.248100 -20.582700 -24.707400
H -1.999200 -19.499700 -21.688200
C -1.817000 -19.540900 -22.598900
N -1.289800 -19.734600 -25.210000
H -1.140500 -19.795900 -26.049600
C -0.922600 -18.701300 -23.127500
H -0.790500 -12.899800 -17.820300
C -0.560900 -18.801300 -24.508600
H -0.553100 -15.874500 -22.989900
N -0.233500 -17.777700 -22.293500
C -0.157600 -16.432500 -22.359600
C 0.131700 -13.135700 -17.695300
H 0.187000 -13.957300 -17.201300
O 0.319300 -18.146300 -25.071900
O 0.453800 -14.458000 -19.598100
N 0.454800 -18.238100 -21.230400
H 0.577700 -12.439100 -17.208400
C 0.615700 -16.069100 -21.312200
C 0.780600 -13.309700 -19.016600
H 0.803200 -14.062900 -21.525500
N 0.979800 -17.188800 -20.640000
C 1.066900 -14.733500 -20.875800
O 1.531700 -12.533400 -19.524700
H 2.033600 -14.717200 -20.793300
