27
Fragment
H -4.579700 -11.206000 -25.775500
O -4.505600 -13.640700 -26.026800
N -3.964400 -11.573000 -25.250700
C -3.830300 -12.931600 -25.290200
H -3.337900 -9.860500 -24.456100
C -3.217000 -10.782800 -24.437000
N -2.872800 -13.444900 -24.460500
H -2.713800 -14.371800 -24.556900
C -2.310800 -11.312000 -23.609500
C -2.066100 -12.736400 -23.598900
N -1.491900 -10.486800 -22.795900
O -1.212800 -13.301100 -22.929100
H -1.111900 -11.472000 -21.049800
N -1.080000 -9.283900 -23.263000
H -0.994900 -5.934700 -18.798400
C -0.977800 -10.721100 -21.581600
H -0.456400 -6.682600 -17.530300
N -0.306200 -8.768800 -22.333600
C -0.219000 -9.630900 -21.288200
C -0.205700 -6.232500 -18.339600
O -0.018100 -8.364000 -19.261700
H 0.346000 -5.476800 -18.126300
C 0.539000 -7.152800 -19.199700
C 0.610300 -9.351100 -20.095500
H 0.736900 -10.169200 -19.588900
H 1.482500 -9.032100 -20.374200
O 1.544900 -6.897100 -19.793400
27
Fragment
O -3.790400 -9.297900 -15.578500
H -3.728100 -7.163000 -14.997700
H -2.982400 -6.025900 -15.782900
C -2.855800 -6.844000 -15.276400
C -2.784500 -9.042200 -16.172200
H -2.591500 -10.718300 -17.245500
O -2.227400 -7.831100 -16.110100
C -2.039800 -9.962600 -17.032300
C -2.026600 -6.564100 -14.083700
N -1.939300 -7.426300 -13.038200
H -1.789100 -9.512500 -17.841600
C -1.267800 -5.473900 -13.790200
H -1.250600 -10.260400 -16.573500
N -1.165500 -6.911200 -12.108800
H -1.133600 -4.723100 -14.322100
O -1.032700 -2.894000 -12.442800
N -0.753600 -5.708300 -12.575900
C -0.179400 -3.458700 -11.773000
C 0.065300 -4.883100 -11.762400
H 0.468300 -1.823300 -10.814900
N 0.627300 -2.750100 -10.911300
C 0.971400 -5.412300 -10.934900
H 1.092400 -6.334600 -10.915800
C 1.584800 -3.263400 -10.081700
N 1.718900 -4.622100 -10.121100
O 2.260100 -2.554400 -9.345100
H 2.334100 -4.989100 -9.596400
54
Fragment
H -4.579700 -11.206000 -25.775500
O -4.505600 -13.640700 -26.026800
N -3.964400 -11.573000 -25.250700
C -3.830300 -12.931600 -25.290200
H -3.337900 -9.860500 -24.456100
C -3.217000 -10.782800 -24.437000
N -2.872800 -13.444900 -24.460500
H -2.713800 -14.371800 -24.556900
C -2.310800 -11.312000 -23.609500
C -2.066100 -12.736400 -23.598900
N -1.491900 -10.486800 -22.795900
O -1.212800 -13.301100 -22.929100
H -1.111900 -11.472000 -21.049800
N -1.080000 -9.283900 -23.263000
H -0.994900 -5.934700 -18.798400
C -0.977800 -10.721100 -21.581600
H -0.456400 -6.682600 -17.530300
N -0.306200 -8.768800 -22.333600
C -0.219000 -9.630900 -21.288200
C -0.205700 -6.232500 -18.339600
O -0.018100 -8.364000 -19.261700
H 0.346000 -5.476800 -18.126300
C 0.539000 -7.152800 -19.199700
C 0.610300 -9.351100 -20.095500
H 0.736900 -10.169200 -19.588900
H 1.482500 -9.032100 -20.374200
O 1.544900 -6.897100 -19.793400
O -3.790400 -9.297900 -15.578500
H -3.728100 -7.163000 -14.997700
H -2.982400 -6.025900 -15.782900
C -2.855800 -6.844000 -15.276400
C -2.784500 -9.042200 -16.172200
H -2.591500 -10.718300 -17.245500
O -2.227400 -7.831100 -16.110100
C -2.039800 -9.962600 -17.032300
C -2.026600 -6.564100 -14.083700
N -1.939300 -7.426300 -13.038200
H -1.789100 -9.512500 -17.841600
C -1.267800 -5.473900 -13.790200
H -1.250600 -10.260400 -16.573500
N -1.165500 -6.911200 -12.108800
H -1.133600 -4.723100 -14.322100
O -1.032700 -2.894000 -12.442800
N -0.753600 -5.708300 -12.575900
C -0.179400 -3.458700 -11.773000
C 0.065300 -4.883100 -11.762400
H 0.468300 -1.823300 -10.814900
N 0.627300 -2.750100 -10.911300
C 0.971400 -5.412300 -10.934900
H 1.092400 -6.334600 -10.915800
C 1.584800 -3.263400 -10.081700
N 1.718900 -4.622100 -10.121100
O 2.260100 -2.554400 -9.345100
H 2.334100 -4.989100 -9.596400
