36
Fragment
N -4.556600 -12.923300 -23.114900
H -3.687900 -10.695200 -20.648600
C -3.664800 -12.459500 -22.631300
H -3.268300 -12.028000 -19.941000
H -3.059700 -11.323500 -17.262000
H -3.037400 -9.517200 -18.570900
C -2.953300 -11.313800 -20.514800
O -2.820200 -12.783000 -15.472800
C -2.556000 -11.901100 -21.859200
N -2.295100 -10.957500 -17.403800
C -2.189200 -9.970100 -18.475800
H -2.128100 -11.208800 -22.386300
H -1.913900 -12.416400 -12.574500
H -1.898900 -12.600800 -21.707700
C -1.806400 -10.575100 -19.804000
C -1.709600 -12.297400 -15.596900
H -1.522300 -9.310700 -18.229100
H -1.504300 -13.745600 -11.854000
H -1.482900 -9.866500 -20.384300
H -1.464900 -14.301400 -14.009200
C -1.277600 -11.314700 -16.641400
C -1.180800 -13.037000 -12.434300
H -1.088300 -11.011400 -10.530600
H -1.073300 -11.195700 -19.663700
H -0.859100 -12.403300 -9.852000
C -0.798000 -13.642100 -13.762500
N -0.692100 -12.654600 -14.834500
C -0.431200 -11.711000 -10.379100
O -0.167000 -10.829100 -16.765500
C -0.033900 -12.298300 -11.723500
H 0.050100 -14.094900 -13.667400
H 0.072500 -12.288600 -14.976300
H 0.281100 -11.584100 -12.297300
C 0.677600 -11.152600 -9.607000
H 0.700700 -12.916900 -11.589700
N 1.569400 -10.688800 -9.123400
36
Fragment
N -1.382000 -13.769600 -6.995700
H -0.513300 -11.541500 -4.529500
C -0.490200 -13.305700 -6.512100
H -0.093700 -12.874300 -3.821800
H 0.114900 -12.169700 -1.142800
H 0.137200 -10.363400 -2.451700
C 0.221300 -12.160100 -4.395700
O 0.354400 -13.629300 0.646400
C 0.618600 -12.747400 -5.740000
N 0.879500 -11.803800 -1.284700
C 0.985400 -10.816300 -2.356600
H 1.046500 -12.055100 -6.267100
H 1.260700 -13.262700 3.544600
H 1.275700 -13.447000 -5.588500
C 1.368200 -11.421400 -3.684800
C 1.465000 -13.143700 0.522300
H 1.652300 -10.157000 -2.110000
H 1.670300 -14.591900 4.265100
H 1.691700 -10.712700 -4.265100
H 1.709700 -15.147600 2.110000
C 1.897000 -12.161000 -0.522300
C 1.993800 -13.883300 3.684800
H 2.086300 -11.857600 5.588500
H 2.101300 -12.042000 -3.544600
H 2.315500 -13.249600 6.267100
C 2.376600 -14.488300 2.356600
N 2.482500 -13.500800 1.284700
C 2.743400 -12.557200 5.740000
O 3.007600 -11.675400 -0.646400
C 3.140700 -13.144600 4.395700
H 3.224700 -14.941200 2.451700
H 3.247100 -13.134900 1.142800
H 3.455700 -12.430400 3.821800
C 3.852200 -11.998900 6.512100
H 3.875300 -13.763100 4.529500
N 4.744000 -11.535100 6.995700
72
Fragment
N -4.556600 -12.923300 -23.114900
H -3.687900 -10.695200 -20.648600
C -3.664800 -12.459500 -22.631300
H -3.268300 -12.028000 -19.941000
H -3.059700 -11.323500 -17.262000
H -3.037400 -9.517200 -18.570900
C -2.953300 -11.313800 -20.514800
O -2.820200 -12.783000 -15.472800
C -2.556000 -11.901100 -21.859200
N -2.295100 -10.957500 -17.403800
C -2.189200 -9.970100 -18.475800
H -2.128100 -11.208800 -22.386300
H -1.913900 -12.416400 -12.574500
H -1.898900 -12.600800 -21.707700
C -1.806400 -10.575100 -19.804000
C -1.709600 -12.297400 -15.596900
H -1.522300 -9.310700 -18.229100
H -1.504300 -13.745600 -11.854000
H -1.482900 -9.866500 -20.384300
H -1.464900 -14.301400 -14.009200
C -1.277600 -11.314700 -16.641400
C -1.180800 -13.037000 -12.434300
H -1.088300 -11.011400 -10.530600
H -1.073300 -11.195700 -19.663700
H -0.859100 -12.403300 -9.852000
C -0.798000 -13.642100 -13.762500
N -0.692100 -12.654600 -14.834500
C -0.431200 -11.711000 -10.379100
O -0.167000 -10.829100 -16.765500
C -0.033900 -12.298300 -11.723500
H 0.050100 -14.094900 -13.667400
H 0.072500 -12.288600 -14.976300
H 0.281100 -11.584100 -12.297300
C 0.677600 -11.152600 -9.607000
H 0.700700 -12.916900 -11.589700
N 1.569400 -10.688800 -9.123400
N -1.382000 -13.769600 -6.995700
H -0.513300 -11.541500 -4.529500
C -0.490200 -13.305700 -6.512100
H -0.093700 -12.874300 -3.821800
H 0.114900 -12.169700 -1.142800
H 0.137200 -10.363400 -2.451700
C 0.221300 -12.160100 -4.395700
O 0.354400 -13.629300 0.646400
C 0.618600 -12.747400 -5.740000
N 0.879500 -11.803800 -1.284700
C 0.985400 -10.816300 -2.356600
H 1.046500 -12.055100 -6.267100
H 1.260700 -13.262700 3.544600
H 1.275700 -13.447000 -5.588500
C 1.368200 -11.421400 -3.684800
C 1.465000 -13.143700 0.522300
H 1.652300 -10.157000 -2.110000
H 1.670300 -14.591900 4.265100
H 1.691700 -10.712700 -4.265100
H 1.709700 -15.147600 2.110000
C 1.897000 -12.161000 -0.522300
C 1.993800 -13.883300 3.684800
H 2.086300 -11.857600 5.588500
H 2.101300 -12.042000 -3.544600
H 2.315500 -13.249600 6.267100
C 2.376600 -14.488300 2.356600
N 2.482500 -13.500800 1.284700
C 2.743400 -12.557200 5.740000
O 3.007600 -11.675400 -0.646400
C 3.140700 -13.144600 4.395700
H 3.224700 -14.941200 2.451700
H 3.247100 -13.134900 1.142800
H 3.455700 -12.430400 3.821800
C 3.852200 -11.998900 6.512100
H 3.875300 -13.763100 4.529500
N 4.744000 -11.535100 6.995700
