36
Fragment
N -4.556600 -12.923300 -23.114900
H -3.687900 -10.695200 -20.648600
C -3.664800 -12.459500 -22.631300
H -3.268300 -12.028000 -19.941000
H -3.059700 -11.323500 -17.262000
H -3.037400 -9.517200 -18.570900
C -2.953300 -11.313800 -20.514800
O -2.820200 -12.783000 -15.472800
C -2.556000 -11.901100 -21.859200
N -2.295100 -10.957500 -17.403800
C -2.189200 -9.970100 -18.475800
H -2.128100 -11.208800 -22.386300
H -1.913900 -12.416400 -12.574500
H -1.898900 -12.600800 -21.707700
C -1.806400 -10.575100 -19.804000
C -1.709600 -12.297400 -15.596900
H -1.522300 -9.310700 -18.229100
H -1.504300 -13.745600 -11.854000
H -1.482900 -9.866500 -20.384300
H -1.464900 -14.301400 -14.009200
C -1.277600 -11.314700 -16.641400
C -1.180800 -13.037000 -12.434300
H -1.088300 -11.011400 -10.530600
H -1.073300 -11.195700 -19.663700
H -0.859100 -12.403300 -9.852000
C -0.798000 -13.642100 -13.762500
N -0.692100 -12.654600 -14.834500
C -0.431200 -11.711000 -10.379100
O -0.167000 -10.829100 -16.765500
C -0.033900 -12.298300 -11.723500
H 0.050100 -14.094900 -13.667400
H 0.072500 -12.288600 -14.976300
H 0.281100 -11.584100 -12.297300
C 0.677600 -11.152600 -9.607000
H 0.700700 -12.916900 -11.589700
N 1.569400 -10.688800 -9.123400
36
Fragment
N 0.423400 -12.923300 -23.114900
H 1.292100 -10.695200 -20.648600
C 1.315200 -12.459500 -22.631300
H 1.711700 -12.028000 -19.941000
H 1.920300 -11.323500 -17.262000
H 1.942600 -9.517200 -18.570900
C 2.026700 -11.313800 -20.514800
O 2.159800 -12.783000 -15.472800
C 2.424000 -11.901100 -21.859200
N 2.684900 -10.957500 -17.403800
C 2.790800 -9.970100 -18.475800
H 2.851900 -11.208800 -22.386300
H 3.066100 -12.416400 -12.574500
H 3.081100 -12.600800 -21.707700
C 3.173600 -10.575100 -19.804000
C 3.270400 -12.297400 -15.596900
H 3.457700 -9.310700 -18.229100
H 3.475700 -13.745600 -11.854000
H 3.497100 -9.866500 -20.384300
H 3.515100 -14.301400 -14.009200
C 3.702400 -11.314700 -16.641400
C 3.799200 -13.037000 -12.434300
H 3.891700 -11.011400 -10.530600
H 3.906700 -11.195700 -19.663700
H 4.120900 -12.403300 -9.852000
C 4.182000 -13.642100 -13.762500
N 4.287900 -12.654600 -14.834500
C 4.548800 -11.711000 -10.379100
O 4.813000 -10.829100 -16.765500
C 4.946100 -12.298300 -11.723500
H 5.030100 -14.094900 -13.667400
H 5.052500 -12.288600 -14.976300
H 5.261100 -11.584100 -12.297300
C 5.657600 -11.152600 -9.607000
H 5.680700 -12.916900 -11.589700
N 6.549400 -10.688800 -9.123400
72
Fragment
N -4.556600 -12.923300 -23.114900
H -3.687900 -10.695200 -20.648600
C -3.664800 -12.459500 -22.631300
H -3.268300 -12.028000 -19.941000
H -3.059700 -11.323500 -17.262000
H -3.037400 -9.517200 -18.570900
C -2.953300 -11.313800 -20.514800
O -2.820200 -12.783000 -15.472800
C -2.556000 -11.901100 -21.859200
N -2.295100 -10.957500 -17.403800
C -2.189200 -9.970100 -18.475800
H -2.128100 -11.208800 -22.386300
H -1.913900 -12.416400 -12.574500
H -1.898900 -12.600800 -21.707700
C -1.806400 -10.575100 -19.804000
C -1.709600 -12.297400 -15.596900
H -1.522300 -9.310700 -18.229100
H -1.504300 -13.745600 -11.854000
H -1.482900 -9.866500 -20.384300
H -1.464900 -14.301400 -14.009200
C -1.277600 -11.314700 -16.641400
C -1.180800 -13.037000 -12.434300
H -1.088300 -11.011400 -10.530600
H -1.073300 -11.195700 -19.663700
H -0.859100 -12.403300 -9.852000
C -0.798000 -13.642100 -13.762500
N -0.692100 -12.654600 -14.834500
C -0.431200 -11.711000 -10.379100
O -0.167000 -10.829100 -16.765500
C -0.033900 -12.298300 -11.723500
H 0.050100 -14.094900 -13.667400
H 0.072500 -12.288600 -14.976300
H 0.281100 -11.584100 -12.297300
C 0.677600 -11.152600 -9.607000
H 0.700700 -12.916900 -11.589700
N 1.569400 -10.688800 -9.123400
N 0.423400 -12.923300 -23.114900
H 1.292100 -10.695200 -20.648600
C 1.315200 -12.459500 -22.631300
H 1.711700 -12.028000 -19.941000
H 1.920300 -11.323500 -17.262000
H 1.942600 -9.517200 -18.570900
C 2.026700 -11.313800 -20.514800
O 2.159800 -12.783000 -15.472800
C 2.424000 -11.901100 -21.859200
N 2.684900 -10.957500 -17.403800
C 2.790800 -9.970100 -18.475800
H 2.851900 -11.208800 -22.386300
H 3.066100 -12.416400 -12.574500
H 3.081100 -12.600800 -21.707700
C 3.173600 -10.575100 -19.804000
C 3.270400 -12.297400 -15.596900
H 3.457700 -9.310700 -18.229100
H 3.475700 -13.745600 -11.854000
H 3.497100 -9.866500 -20.384300
H 3.515100 -14.301400 -14.009200
C 3.702400 -11.314700 -16.641400
C 3.799200 -13.037000 -12.434300
H 3.891700 -11.011400 -10.530600
H 3.906700 -11.195700 -19.663700
H 4.120900 -12.403300 -9.852000
C 4.182000 -13.642100 -13.762500
N 4.287900 -12.654600 -14.834500
C 4.548800 -11.711000 -10.379100
O 4.813000 -10.829100 -16.765500
C 4.946100 -12.298300 -11.723500
H 5.030100 -14.094900 -13.667400
H 5.052500 -12.288600 -14.976300
H 5.261100 -11.584100 -12.297300
C 5.657600 -11.152600 -9.607000
H 5.680700 -12.916900 -11.589700
N 6.549400 -10.688800 -9.123400
