36
Fragment
N -4.556600 -12.923300 -23.114900
H -3.687900 -10.695200 -20.648600
C -3.664800 -12.459500 -22.631300
H -3.268300 -12.028000 -19.941000
H -3.059700 -11.323500 -17.262000
H -3.037400 -9.517200 -18.570900
C -2.953300 -11.313800 -20.514800
O -2.820200 -12.783000 -15.472800
C -2.556000 -11.901100 -21.859200
N -2.295100 -10.957500 -17.403800
C -2.189200 -9.970100 -18.475800
H -2.128100 -11.208800 -22.386300
H -1.913900 -12.416400 -12.574500
H -1.898900 -12.600800 -21.707700
C -1.806400 -10.575100 -19.804000
C -1.709600 -12.297400 -15.596900
H -1.522300 -9.310700 -18.229100
H -1.504300 -13.745600 -11.854000
H -1.482900 -9.866500 -20.384300
H -1.464900 -14.301400 -14.009200
C -1.277600 -11.314700 -16.641400
C -1.180800 -13.037000 -12.434300
H -1.088300 -11.011400 -10.530600
H -1.073300 -11.195700 -19.663700
H -0.859100 -12.403300 -9.852000
C -0.798000 -13.642100 -13.762500
N -0.692100 -12.654600 -14.834500
C -0.431200 -11.711000 -10.379100
O -0.167000 -10.829100 -16.765500
C -0.033900 -12.298300 -11.723500
H 0.050100 -14.094900 -13.667400
H 0.072500 -12.288600 -14.976300
H 0.281100 -11.584100 -12.297300
C 0.677600 -11.152600 -9.607000
H 0.700700 -12.916900 -11.589700
N 1.569400 -10.688800 -9.123400
36
Fragment
N -7.731200 -12.077100 -39.234000
H -6.862500 -9.849000 -36.767800
C -6.839400 -11.613200 -38.750400
H -6.442900 -11.181700 -36.060100
H -6.234300 -10.477200 -33.381100
H -6.211900 -8.670900 -34.690000
C -6.127900 -10.467500 -36.634000
O -5.994800 -11.936700 -31.591900
C -5.730600 -11.054900 -37.978300
N -5.469700 -10.111300 -33.523000
C -5.363800 -9.123800 -34.594900
H -5.302700 -10.362500 -38.505400
H -5.088500 -11.570200 -28.693700
H -5.073500 -11.754500 -37.826800
C -4.981000 -9.728800 -35.923100
C -4.884200 -11.451100 -31.716000
H -4.696900 -8.464500 -34.348300
H -4.678900 -12.899400 -27.973200
H -4.657500 -9.020200 -36.503400
H -4.639500 -13.455100 -30.128300
C -4.452200 -10.468500 -32.760600
C -4.355400 -12.190700 -28.553500
H -4.262900 -10.165100 -26.649800
H -4.247900 -10.349400 -35.782900
H -4.033700 -11.557000 -25.971200
C -3.972600 -12.795800 -29.881700
N -3.866700 -11.808300 -30.953600
C -3.605800 -10.864700 -26.498300
O -3.341600 -9.982800 -32.884700
C -3.208500 -11.452000 -27.842600
H -3.124400 -13.248700 -29.786600
H -3.102100 -11.442400 -31.095400
H -2.893500 -10.737900 -28.416400
C -2.497000 -10.306400 -25.726200
H -2.473900 -12.070600 -27.708800
N -1.605200 -9.842500 -25.242600
72
Fragment
N -4.556600 -12.923300 -23.114900
H -3.687900 -10.695200 -20.648600
C -3.664800 -12.459500 -22.631300
H -3.268300 -12.028000 -19.941000
H -3.059700 -11.323500 -17.262000
H -3.037400 -9.517200 -18.570900
C -2.953300 -11.313800 -20.514800
O -2.820200 -12.783000 -15.472800
C -2.556000 -11.901100 -21.859200
N -2.295100 -10.957500 -17.403800
C -2.189200 -9.970100 -18.475800
H -2.128100 -11.208800 -22.386300
H -1.913900 -12.416400 -12.574500
H -1.898900 -12.600800 -21.707700
C -1.806400 -10.575100 -19.804000
C -1.709600 -12.297400 -15.596900
H -1.522300 -9.310700 -18.229100
H -1.504300 -13.745600 -11.854000
H -1.482900 -9.866500 -20.384300
H -1.464900 -14.301400 -14.009200
C -1.277600 -11.314700 -16.641400
C -1.180800 -13.037000 -12.434300
H -1.088300 -11.011400 -10.530600
H -1.073300 -11.195700 -19.663700
H -0.859100 -12.403300 -9.852000
C -0.798000 -13.642100 -13.762500
N -0.692100 -12.654600 -14.834500
C -0.431200 -11.711000 -10.379100
O -0.167000 -10.829100 -16.765500
C -0.033900 -12.298300 -11.723500
H 0.050100 -14.094900 -13.667400
H 0.072500 -12.288600 -14.976300
H 0.281100 -11.584100 -12.297300
C 0.677600 -11.152600 -9.607000
H 0.700700 -12.916900 -11.589700
N 1.569400 -10.688800 -9.123400
N -7.731200 -12.077100 -39.234000
H -6.862500 -9.849000 -36.767800
C -6.839400 -11.613200 -38.750400
H -6.442900 -11.181700 -36.060100
H -6.234300 -10.477200 -33.381100
H -6.211900 -8.670900 -34.690000
C -6.127900 -10.467500 -36.634000
O -5.994800 -11.936700 -31.591900
C -5.730600 -11.054900 -37.978300
N -5.469700 -10.111300 -33.523000
C -5.363800 -9.123800 -34.594900
H -5.302700 -10.362500 -38.505400
H -5.088500 -11.570200 -28.693700
H -5.073500 -11.754500 -37.826800
C -4.981000 -9.728800 -35.923100
C -4.884200 -11.451100 -31.716000
H -4.696900 -8.464500 -34.348300
H -4.678900 -12.899400 -27.973200
H -4.657500 -9.020200 -36.503400
H -4.639500 -13.455100 -30.128300
C -4.452200 -10.468500 -32.760600
C -4.355400 -12.190700 -28.553500
H -4.262900 -10.165100 -26.649800
H -4.247900 -10.349400 -35.782900
H -4.033700 -11.557000 -25.971200
C -3.972600 -12.795800 -29.881700
N -3.866700 -11.808300 -30.953600
C -3.605800 -10.864700 -26.498300
O -3.341600 -9.982800 -32.884700
C -3.208500 -11.452000 -27.842600
H -3.124400 -13.248700 -29.786600
H -3.102100 -11.442400 -31.095400
H -2.893500 -10.737900 -28.416400
C -2.497000 -10.306400 -25.726200
H -2.473900 -12.070600 -27.708800
N -1.605200 -9.842500 -25.242600
