20
Fragment
H -9.738400 -11.520400 -29.275600
N -9.318600 -12.139600 -27.380800
H -9.316300 -13.723300 -28.613600
H -9.290100 -10.324300 -28.307000
C -9.105000 -11.264800 -28.558500
H -9.092000 -14.109900 -27.075700
C -8.856700 -13.453500 -27.780200
H -8.814100 -10.825300 -25.935700
C -8.447300 -11.667700 -26.303700
H -8.438700 -12.339600 -25.577200
C -7.678400 -11.377600 -29.077400
H -7.676600 -11.878900 -29.931300
C -7.320600 -13.479200 -28.009800
H -7.315400 -10.473100 -29.250400
H -7.111200 -13.967800 -28.844700
C -7.005200 -11.421800 -26.783300
H -6.873000 -13.940000 -27.258100
N -6.834400 -12.063100 -28.107300
H -6.833100 -10.448700 -26.854000
H -6.363400 -11.805100 -26.135400
32
Fragment
H -6.519300 -13.953600 -22.375700
H -6.165100 -14.053300 -20.166500
O -5.786000 -13.966400 -24.822400
C -5.588600 -14.116700 -22.474800
O -5.341800 -14.209100 -20.105100
H -5.297500 -14.030100 -25.503300
C -5.044800 -14.177600 -23.717000
C -4.802400 -14.288900 -21.350500
O -3.629300 -14.294600 -26.209300
C -3.608500 -14.431900 -23.857000
C -3.443900 -14.556100 -21.413400
C -3.004800 -14.484200 -25.127500
C -2.932900 -14.654900 -22.661900
H -2.909000 -14.662800 -20.635100
O -1.583200 -14.960300 -22.761000
C -1.577900 -14.710500 -25.094500
H -1.462500 -14.569900 -26.924800
O -0.929900 -14.780900 -26.310000
C -0.929600 -15.016600 -23.971800
H 0.096500 -16.761700 -22.275100
C 0.425500 -15.471200 -23.844400
C 0.763600 -16.421600 -22.861600
H 1.275800 -14.283200 -25.267400
C 1.459500 -14.965900 -24.632200
C 2.067000 -16.854100 -22.754700
O 2.384100 -17.777600 -21.768800
C 2.751400 -15.447200 -24.503200
C 3.049000 -16.374400 -23.559800
H 3.207500 -17.939600 -21.792400
H 3.433500 -15.124900 -25.080300
O 4.335700 -16.797900 -23.470100
H 4.399500 -17.373400 -22.863200
52
Fragment
H -9.738400 -11.520400 -29.275600
N -9.318600 -12.139600 -27.380800
H -9.316300 -13.723300 -28.613600
H -9.290100 -10.324300 -28.307000
C -9.105000 -11.264800 -28.558500
H -9.092000 -14.109900 -27.075700
C -8.856700 -13.453500 -27.780200
H -8.814100 -10.825300 -25.935700
C -8.447300 -11.667700 -26.303700
H -8.438700 -12.339600 -25.577200
C -7.678400 -11.377600 -29.077400
H -7.676600 -11.878900 -29.931300
C -7.320600 -13.479200 -28.009800
H -7.315400 -10.473100 -29.250400
H -7.111200 -13.967800 -28.844700
C -7.005200 -11.421800 -26.783300
H -6.873000 -13.940000 -27.258100
N -6.834400 -12.063100 -28.107300
H -6.833100 -10.448700 -26.854000
H -6.363400 -11.805100 -26.135400
H -6.519300 -13.953600 -22.375700
H -6.165100 -14.053300 -20.166500
O -5.786000 -13.966400 -24.822400
C -5.588600 -14.116700 -22.474800
O -5.341800 -14.209100 -20.105100
H -5.297500 -14.030100 -25.503300
C -5.044800 -14.177600 -23.717000
C -4.802400 -14.288900 -21.350500
O -3.629300 -14.294600 -26.209300
C -3.608500 -14.431900 -23.857000
C -3.443900 -14.556100 -21.413400
C -3.004800 -14.484200 -25.127500
C -2.932900 -14.654900 -22.661900
H -2.909000 -14.662800 -20.635100
O -1.583200 -14.960300 -22.761000
C -1.577900 -14.710500 -25.094500
H -1.462500 -14.569900 -26.924800
O -0.929900 -14.780900 -26.310000
C -0.929600 -15.016600 -23.971800
H 0.096500 -16.761700 -22.275100
C 0.425500 -15.471200 -23.844400
C 0.763600 -16.421600 -22.861600
H 1.275800 -14.283200 -25.267400
C 1.459500 -14.965900 -24.632200
C 2.067000 -16.854100 -22.754700
O 2.384100 -17.777600 -21.768800
C 2.751400 -15.447200 -24.503200
C 3.049000 -16.374400 -23.559800
H 3.207500 -17.939600 -21.792400
H 3.433500 -15.124900 -25.080300
O 4.335700 -16.797900 -23.470100
H 4.399500 -17.373400 -22.863200
