20
Fragment
H -9.738400 -11.520400 -29.275600
N -9.318600 -12.139600 -27.380800
H -9.316300 -13.723300 -28.613600
H -9.290100 -10.324300 -28.307000
C -9.105000 -11.264800 -28.558500
H -9.092000 -14.109900 -27.075700
C -8.856700 -13.453500 -27.780200
H -8.814100 -10.825300 -25.935700
C -8.447300 -11.667700 -26.303700
H -8.438700 -12.339600 -25.577200
C -7.678400 -11.377600 -29.077400
H -7.676600 -11.878900 -29.931300
C -7.320600 -13.479200 -28.009800
H -7.315400 -10.473100 -29.250400
H -7.111200 -13.967800 -28.844700
C -7.005200 -11.421800 -26.783300
H -6.873000 -13.940000 -27.258100
N -6.834400 -12.063100 -28.107300
H -6.833100 -10.448700 -26.854000
H -6.363400 -11.805100 -26.135400
32
Fragment
H -21.882800 -16.385300 -30.354300
O -21.746900 -15.722100 -30.851200
H -20.751200 -17.422300 -29.645100
H -20.601800 -13.837000 -32.128000
C -20.432100 -15.503600 -30.954900
C -19.972200 -14.393200 -31.683000
O -19.914500 -17.363800 -29.588500
C -19.485800 -16.280400 -30.300800
C -18.633000 -14.092100 -31.767900
H -18.340500 -13.372600 -32.315100
C -18.109600 -15.998200 -30.376300
C -17.706200 -14.842500 -31.050900
H -17.470300 -16.578800 -29.980000
C -16.308300 -14.414100 -30.972200
O -16.023100 -15.039500 -28.729900
O -15.864000 -13.811800 -32.134300
C -15.536100 -14.446900 -29.888800
H -15.440300 -14.995900 -28.127700
H -14.824700 -12.669100 -34.125000
C -14.629800 -13.213800 -32.179900
C -14.257200 -12.639600 -33.363900
C -14.255800 -13.802800 -29.854200
C -13.813500 -13.208200 -31.036700
O -13.592200 -13.811300 -28.753500
C -13.007900 -12.006300 -33.414200
O -12.680500 -11.444400 -34.587300
C -12.569900 -12.601400 -31.149900
C -12.182900 -11.954900 -32.277400
H -12.102900 -12.860700 -29.398200
H -11.918200 -11.096000 -34.529100
O -11.780900 -12.426600 -30.041300
H -11.364500 -11.471600 -32.297800
52
Fragment
H -9.738400 -11.520400 -29.275600
N -9.318600 -12.139600 -27.380800
H -9.316300 -13.723300 -28.613600
H -9.290100 -10.324300 -28.307000
C -9.105000 -11.264800 -28.558500
H -9.092000 -14.109900 -27.075700
C -8.856700 -13.453500 -27.780200
H -8.814100 -10.825300 -25.935700
C -8.447300 -11.667700 -26.303700
H -8.438700 -12.339600 -25.577200
C -7.678400 -11.377600 -29.077400
H -7.676600 -11.878900 -29.931300
C -7.320600 -13.479200 -28.009800
H -7.315400 -10.473100 -29.250400
H -7.111200 -13.967800 -28.844700
C -7.005200 -11.421800 -26.783300
H -6.873000 -13.940000 -27.258100
N -6.834400 -12.063100 -28.107300
H -6.833100 -10.448700 -26.854000
H -6.363400 -11.805100 -26.135400
H -21.882800 -16.385300 -30.354300
O -21.746900 -15.722100 -30.851200
H -20.751200 -17.422300 -29.645100
H -20.601800 -13.837000 -32.128000
C -20.432100 -15.503600 -30.954900
C -19.972200 -14.393200 -31.683000
O -19.914500 -17.363800 -29.588500
C -19.485800 -16.280400 -30.300800
C -18.633000 -14.092100 -31.767900
H -18.340500 -13.372600 -32.315100
C -18.109600 -15.998200 -30.376300
C -17.706200 -14.842500 -31.050900
H -17.470300 -16.578800 -29.980000
C -16.308300 -14.414100 -30.972200
O -16.023100 -15.039500 -28.729900
O -15.864000 -13.811800 -32.134300
C -15.536100 -14.446900 -29.888800
H -15.440300 -14.995900 -28.127700
H -14.824700 -12.669100 -34.125000
C -14.629800 -13.213800 -32.179900
C -14.257200 -12.639600 -33.363900
C -14.255800 -13.802800 -29.854200
C -13.813500 -13.208200 -31.036700
O -13.592200 -13.811300 -28.753500
C -13.007900 -12.006300 -33.414200
O -12.680500 -11.444400 -34.587300
C -12.569900 -12.601400 -31.149900
C -12.182900 -11.954900 -32.277400
H -12.102900 -12.860700 -29.398200
H -11.918200 -11.096000 -34.529100
O -11.780900 -12.426600 -30.041300
H -11.364500 -11.471600 -32.297800
