20
Fragment
H -9.738400 -11.520400 -29.275600
N -9.318600 -12.139600 -27.380800
H -9.316300 -13.723300 -28.613600
H -9.290100 -10.324300 -28.307000
C -9.105000 -11.264800 -28.558500
H -9.092000 -14.109900 -27.075700
C -8.856700 -13.453500 -27.780200
H -8.814100 -10.825300 -25.935700
C -8.447300 -11.667700 -26.303700
H -8.438700 -12.339600 -25.577200
C -7.678400 -11.377600 -29.077400
H -7.676600 -11.878900 -29.931300
C -7.320600 -13.479200 -28.009800
H -7.315400 -10.473100 -29.250400
H -7.111200 -13.967800 -28.844700
C -7.005200 -11.421800 -26.783300
H -6.873000 -13.940000 -27.258100
N -6.834400 -12.063100 -28.107300
H -6.833100 -10.448700 -26.854000
H -6.363400 -11.805100 -26.135400
32
Fragment
H -21.681100 -8.418700 -24.309800
O -21.617300 -8.994200 -23.702900
H -20.715100 -10.667300 -22.092700
H -20.489100 -7.852500 -25.380700
C -20.330700 -9.417800 -23.613200
C -20.033000 -10.345000 -22.669800
O -19.665700 -8.014600 -25.404200
C -19.348700 -8.938000 -24.418300
C -18.741100 -10.826300 -22.540800
H -18.557500 -11.509000 -21.905600
C -18.045300 -9.370500 -24.311400
C -17.707100 -10.321000 -23.328600
H -17.378200 -9.030500 -24.897900
C -16.352000 -10.775500 -23.201300
O -16.351800 -11.011300 -20.863100
H -15.819100 -11.222300 -20.248200
C -15.703700 -11.081700 -22.078500
O -15.698500 -10.831900 -24.412000
H -14.372600 -11.129300 -26.538000
C -14.348700 -11.137300 -24.511100
C -14.276800 -11.307900 -22.045500
C -13.837700 -11.236000 -25.759600
C -13.673100 -11.360200 -23.316000
O -13.652400 -11.497600 -20.963700
C -12.479200 -11.503300 -25.822500
C -12.236800 -11.614500 -23.456000
H -11.984200 -11.762000 -21.669700
O -11.939900 -11.583100 -27.067900
C -11.693000 -11.675500 -24.698200
O -11.495700 -11.825700 -22.350600
H -11.116500 -11.738800 -27.006600
H -10.762300 -11.838600 -24.797300
52
Fragment
H -9.738400 -11.520400 -29.275600
N -9.318600 -12.139600 -27.380800
H -9.316300 -13.723300 -28.613600
H -9.290100 -10.324300 -28.307000
C -9.105000 -11.264800 -28.558500
H -9.092000 -14.109900 -27.075700
C -8.856700 -13.453500 -27.780200
H -8.814100 -10.825300 -25.935700
C -8.447300 -11.667700 -26.303700
H -8.438700 -12.339600 -25.577200
C -7.678400 -11.377600 -29.077400
H -7.676600 -11.878900 -29.931300
C -7.320600 -13.479200 -28.009800
H -7.315400 -10.473100 -29.250400
H -7.111200 -13.967800 -28.844700
C -7.005200 -11.421800 -26.783300
H -6.873000 -13.940000 -27.258100
N -6.834400 -12.063100 -28.107300
H -6.833100 -10.448700 -26.854000
H -6.363400 -11.805100 -26.135400
H -21.681100 -8.418700 -24.309800
O -21.617300 -8.994200 -23.702900
H -20.715100 -10.667300 -22.092700
H -20.489100 -7.852500 -25.380700
C -20.330700 -9.417800 -23.613200
C -20.033000 -10.345000 -22.669800
O -19.665700 -8.014600 -25.404200
C -19.348700 -8.938000 -24.418300
C -18.741100 -10.826300 -22.540800
H -18.557500 -11.509000 -21.905600
C -18.045300 -9.370500 -24.311400
C -17.707100 -10.321000 -23.328600
H -17.378200 -9.030500 -24.897900
C -16.352000 -10.775500 -23.201300
O -16.351800 -11.011300 -20.863100
H -15.819100 -11.222300 -20.248200
C -15.703700 -11.081700 -22.078500
O -15.698500 -10.831900 -24.412000
H -14.372600 -11.129300 -26.538000
C -14.348700 -11.137300 -24.511100
C -14.276800 -11.307900 -22.045500
C -13.837700 -11.236000 -25.759600
C -13.673100 -11.360200 -23.316000
O -13.652400 -11.497600 -20.963700
C -12.479200 -11.503300 -25.822500
C -12.236800 -11.614500 -23.456000
H -11.984200 -11.762000 -21.669700
O -11.939900 -11.583100 -27.067900
C -11.693000 -11.675500 -24.698200
O -11.495700 -11.825700 -22.350600
H -11.116500 -11.738800 -27.006600
H -10.762300 -11.838600 -24.797300
