20
Fragment
H -9.738400 -11.520400 -29.275600
N -9.318600 -12.139600 -27.380800
H -9.316300 -13.723300 -28.613600
H -9.290100 -10.324300 -28.307000
C -9.105000 -11.264800 -28.558500
H -9.092000 -14.109900 -27.075700
C -8.856700 -13.453500 -27.780200
H -8.814100 -10.825300 -25.935700
C -8.447300 -11.667700 -26.303700
H -8.438700 -12.339600 -25.577200
C -7.678400 -11.377600 -29.077400
H -7.676600 -11.878900 -29.931300
C -7.320600 -13.479200 -28.009800
H -7.315400 -10.473100 -29.250400
H -7.111200 -13.967800 -28.844700
C -7.005200 -11.421800 -26.783300
H -6.873000 -13.940000 -27.258100
N -6.834400 -12.063100 -28.107300
H -6.833100 -10.448700 -26.854000
H -6.363400 -11.805100 -26.135400
20
Fragment
H -8.149200 -18.424100 -26.209300
H -7.666900 -19.743800 -26.978200
C -7.354100 -18.918700 -26.528500
H -6.726000 -18.745000 -24.547300
H -6.616700 -20.245800 -25.097600
H -6.602200 -16.503900 -26.234500
N -6.596300 -18.068600 -27.508200
C -6.471100 -19.293600 -25.330300
H -5.938300 -19.659200 -28.621400
C -5.921200 -17.024700 -26.729800
C -5.523900 -18.968300 -28.045900
H -5.463900 -16.406200 -27.352500
N -5.065800 -19.077600 -25.633800
H -5.042900 -17.153300 -24.852300
H -4.937900 -20.614800 -26.945200
H -4.906500 -18.435500 -28.607300
C -4.904400 -17.569100 -25.740700
C -4.736500 -19.645500 -26.945200
H -3.987900 -17.349300 -26.045800
H -3.768200 -19.533600 -27.118200
40
Fragment
H -9.738400 -11.520400 -29.275600
N -9.318600 -12.139600 -27.380800
H -9.316300 -13.723300 -28.613600
H -9.290100 -10.324300 -28.307000
C -9.105000 -11.264800 -28.558500
H -9.092000 -14.109900 -27.075700
C -8.856700 -13.453500 -27.780200
H -8.814100 -10.825300 -25.935700
C -8.447300 -11.667700 -26.303700
H -8.438700 -12.339600 -25.577200
C -7.678400 -11.377600 -29.077400
H -7.676600 -11.878900 -29.931300
C -7.320600 -13.479200 -28.009800
H -7.315400 -10.473100 -29.250400
H -7.111200 -13.967800 -28.844700
C -7.005200 -11.421800 -26.783300
H -6.873000 -13.940000 -27.258100
N -6.834400 -12.063100 -28.107300
H -6.833100 -10.448700 -26.854000
H -6.363400 -11.805100 -26.135400
H -8.149200 -18.424100 -26.209300
H -7.666900 -19.743800 -26.978200
C -7.354100 -18.918700 -26.528500
H -6.726000 -18.745000 -24.547300
H -6.616700 -20.245800 -25.097600
H -6.602200 -16.503900 -26.234500
N -6.596300 -18.068600 -27.508200
C -6.471100 -19.293600 -25.330300
H -5.938300 -19.659200 -28.621400
C -5.921200 -17.024700 -26.729800
C -5.523900 -18.968300 -28.045900
H -5.463900 -16.406200 -27.352500
N -5.065800 -19.077600 -25.633800
H -5.042900 -17.153300 -24.852300
H -4.937900 -20.614800 -26.945200
H -4.906500 -18.435500 -28.607300
C -4.904400 -17.569100 -25.740700
C -4.736500 -19.645500 -26.945200
H -3.987900 -17.349300 -26.045800
H -3.768200 -19.533600 -27.118200
