20
Fragment
H -9.738400 -11.520400 -29.275600
N -9.318600 -12.139600 -27.380800
H -9.316300 -13.723300 -28.613600
H -9.290100 -10.324300 -28.307000
C -9.105000 -11.264800 -28.558500
H -9.092000 -14.109900 -27.075700
C -8.856700 -13.453500 -27.780200
H -8.814100 -10.825300 -25.935700
C -8.447300 -11.667700 -26.303700
H -8.438700 -12.339600 -25.577200
C -7.678400 -11.377600 -29.077400
H -7.676600 -11.878900 -29.931300
C -7.320600 -13.479200 -28.009800
H -7.315400 -10.473100 -29.250400
H -7.111200 -13.967800 -28.844700
C -7.005200 -11.421800 -26.783300
H -6.873000 -13.940000 -27.258100
N -6.834400 -12.063100 -28.107300
H -6.833100 -10.448700 -26.854000
H -6.363400 -11.805100 -26.135400
20
Fragment
H -13.860200 -18.332900 -28.509800
H -13.584800 -17.132000 -27.492400
C -13.147900 -17.786200 -28.093100
H -12.696000 -17.328300 -30.090100
H -12.574500 -16.049400 -29.123000
C -12.397000 -17.021000 -29.198500
N -12.302200 -18.645600 -27.306900
H -12.285100 -20.128300 -28.690600
H -11.683200 -17.267600 -25.959300
C -11.622000 -19.573000 -28.207900
C -11.268100 -17.828900 -26.660600
H -11.065100 -18.947400 -30.149800
H -11.024500 -20.171400 -27.695300
N -10.959400 -17.293700 -29.017700
H -10.796000 -15.989800 -27.490900
C -10.785400 -18.717800 -29.228400
H -10.605400 -18.422100 -26.226600
C -10.564400 -16.936400 -27.665400
H -9.826800 -18.945800 -29.135600
H -9.583900 -17.035600 -27.567900
40
Fragment
H -9.738400 -11.520400 -29.275600
N -9.318600 -12.139600 -27.380800
H -9.316300 -13.723300 -28.613600
H -9.290100 -10.324300 -28.307000
C -9.105000 -11.264800 -28.558500
H -9.092000 -14.109900 -27.075700
C -8.856700 -13.453500 -27.780200
H -8.814100 -10.825300 -25.935700
C -8.447300 -11.667700 -26.303700
H -8.438700 -12.339600 -25.577200
C -7.678400 -11.377600 -29.077400
H -7.676600 -11.878900 -29.931300
C -7.320600 -13.479200 -28.009800
H -7.315400 -10.473100 -29.250400
H -7.111200 -13.967800 -28.844700
C -7.005200 -11.421800 -26.783300
H -6.873000 -13.940000 -27.258100
N -6.834400 -12.063100 -28.107300
H -6.833100 -10.448700 -26.854000
H -6.363400 -11.805100 -26.135400
H -13.860200 -18.332900 -28.509800
H -13.584800 -17.132000 -27.492400
C -13.147900 -17.786200 -28.093100
H -12.696000 -17.328300 -30.090100
H -12.574500 -16.049400 -29.123000
C -12.397000 -17.021000 -29.198500
N -12.302200 -18.645600 -27.306900
H -12.285100 -20.128300 -28.690600
H -11.683200 -17.267600 -25.959300
C -11.622000 -19.573000 -28.207900
C -11.268100 -17.828900 -26.660600
H -11.065100 -18.947400 -30.149800
H -11.024500 -20.171400 -27.695300
N -10.959400 -17.293700 -29.017700
H -10.796000 -15.989800 -27.490900
C -10.785400 -18.717800 -29.228400
H -10.605400 -18.422100 -26.226600
C -10.564400 -16.936400 -27.665400
H -9.826800 -18.945800 -29.135600
H -9.583900 -17.035600 -27.567900
