24
Fragment
H -16.795900 -10.735600 -23.844500
H -16.626700 -11.758000 -22.668100
C -16.170500 -11.128800 -23.231200
H -15.778400 -10.440000 -22.689100
O -15.143100 -11.801200 -23.963800
H -14.901700 -12.270900 -21.364700
O -14.239800 -12.981100 -19.188000
H -14.188400 -13.078600 -18.375400
C -14.185000 -12.593700 -21.862900
C -14.158900 -12.423400 -23.236900
H -13.507100 -12.120200 -25.560400
C -13.136800 -13.248900 -21.231500
C -13.117300 -13.410000 -19.757500
C -13.092200 -12.895900 -23.985200
O -13.019100 -12.737600 -25.330600
O -12.199100 -13.883500 -19.131800
C -12.062100 -13.732500 -21.971400
C -12.040500 -13.561200 -23.335500
H -11.361400 -14.170100 -21.544900
O -11.044100 -13.993100 -24.174000
H -10.323200 -15.532600 -23.183200
C -9.974100 -14.737600 -23.593400
H -9.533700 -14.202000 -22.930200
H -9.345800 -14.980700 -24.277700
17
Fragment
H -10.262400 -13.077300 -30.404400
N -9.694100 -12.800600 -29.818000
H -9.341100 -13.806400 -28.154400
N -9.287100 -13.887000 -29.009100
H -8.965100 -12.569700 -30.411300
C -8.821000 -15.037200 -29.515000
O -8.704200 -15.215100 -30.715700
H -8.496600 -15.083400 -26.781200
C -8.488000 -16.122600 -28.527100
H -8.373600 -17.564900 -29.930200
C -8.362100 -15.924800 -27.154600
C -8.292300 -17.395300 -29.019000
C -8.033400 -17.009500 -26.356900
C -7.975600 -18.414600 -28.145200
H -7.943600 -16.869200 -25.441900
H -7.851700 -19.267700 -28.493600
N -7.836100 -18.247700 -26.827600
41
Fragment
H -16.795900 -10.735600 -23.844500
H -16.626700 -11.758000 -22.668100
C -16.170500 -11.128800 -23.231200
H -15.778400 -10.440000 -22.689100
O -15.143100 -11.801200 -23.963800
H -14.901700 -12.270900 -21.364700
O -14.239800 -12.981100 -19.188000
H -14.188400 -13.078600 -18.375400
C -14.185000 -12.593700 -21.862900
C -14.158900 -12.423400 -23.236900
H -13.507100 -12.120200 -25.560400
C -13.136800 -13.248900 -21.231500
C -13.117300 -13.410000 -19.757500
C -13.092200 -12.895900 -23.985200
O -13.019100 -12.737600 -25.330600
O -12.199100 -13.883500 -19.131800
C -12.062100 -13.732500 -21.971400
C -12.040500 -13.561200 -23.335500
H -11.361400 -14.170100 -21.544900
O -11.044100 -13.993100 -24.174000
H -10.323200 -15.532600 -23.183200
C -9.974100 -14.737600 -23.593400
H -9.533700 -14.202000 -22.930200
H -9.345800 -14.980700 -24.277700
H -10.262400 -13.077300 -30.404400
N -9.694100 -12.800600 -29.818000
H -9.341100 -13.806400 -28.154400
N -9.287100 -13.887000 -29.009100
H -8.965100 -12.569700 -30.411300
C -8.821000 -15.037200 -29.515000
O -8.704200 -15.215100 -30.715700
H -8.496600 -15.083400 -26.781200
C -8.488000 -16.122600 -28.527100
H -8.373600 -17.564900 -29.930200
C -8.362100 -15.924800 -27.154600
C -8.292300 -17.395300 -29.019000
C -8.033400 -17.009500 -26.356900
C -7.975600 -18.414600 -28.145200
H -7.943600 -16.869200 -25.441900
H -7.851700 -19.267700 -28.493600
N -7.836100 -18.247700 -26.827600
