24
Fragment
H -16.795900 -10.735600 -23.844500
H -16.626700 -11.758000 -22.668100
C -16.170500 -11.128800 -23.231200
H -15.778400 -10.440000 -22.689100
O -15.143100 -11.801200 -23.963800
H -14.901700 -12.270900 -21.364700
O -14.239800 -12.981100 -19.188000
H -14.188400 -13.078600 -18.375400
C -14.185000 -12.593700 -21.862900
C -14.158900 -12.423400 -23.236900
H -13.507100 -12.120200 -25.560400
C -13.136800 -13.248900 -21.231500
C -13.117300 -13.410000 -19.757500
C -13.092200 -12.895900 -23.985200
O -13.019100 -12.737600 -25.330600
O -12.199100 -13.883500 -19.131800
C -12.062100 -13.732500 -21.971400
C -12.040500 -13.561200 -23.335500
H -11.361400 -14.170100 -21.544900
O -11.044100 -13.993100 -24.174000
H -10.323200 -15.532600 -23.183200
C -9.974100 -14.737600 -23.593400
H -9.533700 -14.202000 -22.930200
H -9.345800 -14.980700 -24.277700
24
Fragment
H -23.842100 -7.651900 -17.999300
H -23.654200 -8.430600 -19.346800
C -23.213800 -7.895000 -18.683600
H -22.864700 -7.100000 -19.093900
O -22.143700 -8.639500 -18.103000
H -21.826500 -8.462500 -20.732100
C -21.147400 -9.071400 -18.941500
C -21.125800 -8.900100 -20.305700
O -20.988800 -8.749100 -23.145300
O -20.168800 -9.894900 -16.946500
C -20.095600 -9.736700 -18.291900
C -20.070500 -9.222600 -22.519600
C -20.051100 -9.383700 -21.045500
H -19.680700 -10.512400 -16.716600
C -19.028900 -10.209200 -19.040200
C -19.002800 -10.038900 -20.414200
H -18.999400 -9.553900 -23.901600
O -18.948100 -9.651400 -23.089000
H -18.286200 -10.361700 -20.912300
O -18.044700 -10.831300 -18.313300
H -17.409500 -12.192600 -19.587900
C -17.017400 -11.503800 -19.045800
H -16.561100 -10.874600 -19.608900
H -16.392000 -11.897000 -18.432500
48
Fragment
H -16.795900 -10.735600 -23.844500
H -16.626700 -11.758000 -22.668100
C -16.170500 -11.128800 -23.231200
H -15.778400 -10.440000 -22.689100
O -15.143100 -11.801200 -23.963800
H -14.901700 -12.270900 -21.364700
O -14.239800 -12.981100 -19.188000
H -14.188400 -13.078600 -18.375400
C -14.185000 -12.593700 -21.862900
C -14.158900 -12.423400 -23.236900
H -13.507100 -12.120200 -25.560400
C -13.136800 -13.248900 -21.231500
C -13.117300 -13.410000 -19.757500
C -13.092200 -12.895900 -23.985200
O -13.019100 -12.737600 -25.330600
O -12.199100 -13.883500 -19.131800
C -12.062100 -13.732500 -21.971400
C -12.040500 -13.561200 -23.335500
H -11.361400 -14.170100 -21.544900
O -11.044100 -13.993100 -24.174000
H -10.323200 -15.532600 -23.183200
C -9.974100 -14.737600 -23.593400
H -9.533700 -14.202000 -22.930200
H -9.345800 -14.980700 -24.277700
H -23.842100 -7.651900 -17.999300
H -23.654200 -8.430600 -19.346800
C -23.213800 -7.895000 -18.683600
H -22.864700 -7.100000 -19.093900
O -22.143700 -8.639500 -18.103000
H -21.826500 -8.462500 -20.732100
C -21.147400 -9.071400 -18.941500
C -21.125800 -8.900100 -20.305700
O -20.988800 -8.749100 -23.145300
O -20.168800 -9.894900 -16.946500
C -20.095600 -9.736700 -18.291900
C -20.070500 -9.222600 -22.519600
C -20.051100 -9.383700 -21.045500
H -19.680700 -10.512400 -16.716600
C -19.028900 -10.209200 -19.040200
C -19.002800 -10.038900 -20.414200
H -18.999400 -9.553900 -23.901600
O -18.948100 -9.651400 -23.089000
H -18.286200 -10.361700 -20.912300
O -18.044700 -10.831300 -18.313300
H -17.409500 -12.192600 -19.587900
C -17.017400 -11.503800 -19.045800
H -16.561100 -10.874600 -19.608900
H -16.392000 -11.897000 -18.432500
