24
Fragment
H -16.795900 -10.735600 -23.844500
H -16.626700 -11.758000 -22.668100
C -16.170500 -11.128800 -23.231200
H -15.778400 -10.440000 -22.689100
O -15.143100 -11.801200 -23.963800
H -14.901700 -12.270900 -21.364700
O -14.239800 -12.981100 -19.188000
H -14.188400 -13.078600 -18.375400
C -14.185000 -12.593700 -21.862900
C -14.158900 -12.423400 -23.236900
H -13.507100 -12.120200 -25.560400
C -13.136800 -13.248900 -21.231500
C -13.117300 -13.410000 -19.757500
C -13.092200 -12.895900 -23.985200
O -13.019100 -12.737600 -25.330600
O -12.199100 -13.883500 -19.131800
C -12.062100 -13.732500 -21.971400
C -12.040500 -13.561200 -23.335500
H -11.361400 -14.170100 -21.544900
O -11.044100 -13.993100 -24.174000
H -10.323200 -15.532600 -23.183200
C -9.974100 -14.737600 -23.593400
H -9.533700 -14.202000 -22.930200
H -9.345800 -14.980700 -24.277700
24
Fragment
H -24.006300 -10.735600 -23.844500
H -23.837100 -11.758000 -22.668100
C -23.380900 -11.128800 -23.231200
H -22.988800 -10.440000 -22.689100
O -22.353500 -11.801200 -23.963800
H -22.112100 -12.270900 -21.364700
O -21.450200 -12.981100 -19.188000
H -21.398800 -13.078600 -18.375400
C -21.395400 -12.593700 -21.862900
C -21.369300 -12.423400 -23.236900
H -20.717500 -12.120200 -25.560400
C -20.347200 -13.248900 -21.231500
C -20.327700 -13.410000 -19.757500
C -20.302600 -12.895900 -23.985200
O -20.229500 -12.737600 -25.330600
O -19.409500 -13.883500 -19.131800
C -19.272500 -13.732500 -21.971400
C -19.250900 -13.561200 -23.335500
H -18.571800 -14.170100 -21.544900
O -18.254500 -13.993100 -24.174000
H -17.533600 -15.532600 -23.183200
C -17.184500 -14.737600 -23.593400
H -16.744100 -14.202000 -22.930200
H -16.556200 -14.980700 -24.277700
48
Fragment
H -16.795900 -10.735600 -23.844500
H -16.626700 -11.758000 -22.668100
C -16.170500 -11.128800 -23.231200
H -15.778400 -10.440000 -22.689100
O -15.143100 -11.801200 -23.963800
H -14.901700 -12.270900 -21.364700
O -14.239800 -12.981100 -19.188000
H -14.188400 -13.078600 -18.375400
C -14.185000 -12.593700 -21.862900
C -14.158900 -12.423400 -23.236900
H -13.507100 -12.120200 -25.560400
C -13.136800 -13.248900 -21.231500
C -13.117300 -13.410000 -19.757500
C -13.092200 -12.895900 -23.985200
O -13.019100 -12.737600 -25.330600
O -12.199100 -13.883500 -19.131800
C -12.062100 -13.732500 -21.971400
C -12.040500 -13.561200 -23.335500
H -11.361400 -14.170100 -21.544900
O -11.044100 -13.993100 -24.174000
H -10.323200 -15.532600 -23.183200
C -9.974100 -14.737600 -23.593400
H -9.533700 -14.202000 -22.930200
H -9.345800 -14.980700 -24.277700
H -24.006300 -10.735600 -23.844500
H -23.837100 -11.758000 -22.668100
C -23.380900 -11.128800 -23.231200
H -22.988800 -10.440000 -22.689100
O -22.353500 -11.801200 -23.963800
H -22.112100 -12.270900 -21.364700
O -21.450200 -12.981100 -19.188000
H -21.398800 -13.078600 -18.375400
C -21.395400 -12.593700 -21.862900
C -21.369300 -12.423400 -23.236900
H -20.717500 -12.120200 -25.560400
C -20.347200 -13.248900 -21.231500
C -20.327700 -13.410000 -19.757500
C -20.302600 -12.895900 -23.985200
O -20.229500 -12.737600 -25.330600
O -19.409500 -13.883500 -19.131800
C -19.272500 -13.732500 -21.971400
C -19.250900 -13.561200 -23.335500
H -18.571800 -14.170100 -21.544900
O -18.254500 -13.993100 -24.174000
H -17.533600 -15.532600 -23.183200
C -17.184500 -14.737600 -23.593400
H -16.744100 -14.202000 -22.930200
H -16.556200 -14.980700 -24.277700
