24
Fragment
H -16.795900 -10.735600 -23.844500
H -16.626700 -11.758000 -22.668100
C -16.170500 -11.128800 -23.231200
H -15.778400 -10.440000 -22.689100
O -15.143100 -11.801200 -23.963800
H -14.901700 -12.270900 -21.364700
O -14.239800 -12.981100 -19.188000
H -14.188400 -13.078600 -18.375400
C -14.185000 -12.593700 -21.862900
C -14.158900 -12.423400 -23.236900
H -13.507100 -12.120200 -25.560400
C -13.136800 -13.248900 -21.231500
C -13.117300 -13.410000 -19.757500
C -13.092200 -12.895900 -23.985200
O -13.019100 -12.737600 -25.330600
O -12.199100 -13.883500 -19.131800
C -12.062100 -13.732500 -21.971400
C -12.040500 -13.561200 -23.335500
H -11.361400 -14.170100 -21.544900
O -11.044100 -13.993100 -24.174000
H -10.323200 -15.532600 -23.183200
C -9.974100 -14.737600 -23.593400
H -9.533700 -14.202000 -22.930200
H -9.345800 -14.980700 -24.277700
24
Fragment
H -10.331000 -18.221800 -23.844500
H -10.161800 -19.244200 -22.668100
C -9.705600 -18.614900 -23.231200
H -9.313500 -17.926100 -22.689100
O -8.678200 -19.287400 -23.963800
H -8.436800 -19.757100 -21.364700
O -7.774900 -20.467300 -19.188000
H -7.723500 -20.564800 -18.375400
C -7.720100 -20.079800 -21.862900
C -7.694000 -19.909600 -23.236900
H -7.042200 -19.606400 -25.560400
C -6.671900 -20.735000 -21.231500
C -6.652400 -20.896100 -19.757500
C -6.627400 -20.382000 -23.985200
O -6.554200 -20.223800 -25.330600
O -5.734200 -21.369700 -19.131800
C -5.597200 -21.218700 -21.971400
C -5.575600 -21.047400 -23.335500
H -4.896500 -21.656200 -21.544900
O -4.579200 -21.479300 -24.174000
H -3.858300 -23.018700 -23.183200
C -3.509200 -22.223800 -23.593400
H -3.068800 -21.688200 -22.930200
H -2.880900 -22.466900 -24.277700
48
Fragment
H -16.795900 -10.735600 -23.844500
H -16.626700 -11.758000 -22.668100
C -16.170500 -11.128800 -23.231200
H -15.778400 -10.440000 -22.689100
O -15.143100 -11.801200 -23.963800
H -14.901700 -12.270900 -21.364700
O -14.239800 -12.981100 -19.188000
H -14.188400 -13.078600 -18.375400
C -14.185000 -12.593700 -21.862900
C -14.158900 -12.423400 -23.236900
H -13.507100 -12.120200 -25.560400
C -13.136800 -13.248900 -21.231500
C -13.117300 -13.410000 -19.757500
C -13.092200 -12.895900 -23.985200
O -13.019100 -12.737600 -25.330600
O -12.199100 -13.883500 -19.131800
C -12.062100 -13.732500 -21.971400
C -12.040500 -13.561200 -23.335500
H -11.361400 -14.170100 -21.544900
O -11.044100 -13.993100 -24.174000
H -10.323200 -15.532600 -23.183200
C -9.974100 -14.737600 -23.593400
H -9.533700 -14.202000 -22.930200
H -9.345800 -14.980700 -24.277700
H -10.331000 -18.221800 -23.844500
H -10.161800 -19.244200 -22.668100
C -9.705600 -18.614900 -23.231200
H -9.313500 -17.926100 -22.689100
O -8.678200 -19.287400 -23.963800
H -8.436800 -19.757100 -21.364700
O -7.774900 -20.467300 -19.188000
H -7.723500 -20.564800 -18.375400
C -7.720100 -20.079800 -21.862900
C -7.694000 -19.909600 -23.236900
H -7.042200 -19.606400 -25.560400
C -6.671900 -20.735000 -21.231500
C -6.652400 -20.896100 -19.757500
C -6.627400 -20.382000 -23.985200
O -6.554200 -20.223800 -25.330600
O -5.734200 -21.369700 -19.131800
C -5.597200 -21.218700 -21.971400
C -5.575600 -21.047400 -23.335500
H -4.896500 -21.656200 -21.544900
O -4.579200 -21.479300 -24.174000
H -3.858300 -23.018700 -23.183200
C -3.509200 -22.223800 -23.593400
H -3.068800 -21.688200 -22.930200
H -2.880900 -22.466900 -24.277700
