33
Fragment
Cl -7.329400 -20.012200 -36.361300
H -7.291900 -19.492800 -30.755000
H -6.853500 -20.106800 -33.720300
O -6.701000 -18.663900 -32.432200
O -6.532000 -21.627900 -31.342200
C -6.434600 -19.248100 -31.123100
H -6.342000 -17.446000 -30.215900
C -6.209600 -19.516500 -33.442100
C -6.131600 -18.890500 -35.902300
H -6.079000 -22.298100 -31.294200
N -5.800400 -18.699700 -34.578200
C -5.774600 -18.210300 -30.274700
H -5.655200 -18.589800 -29.382700
C -5.631900 -20.530700 -31.376500
N -5.499400 -18.136600 -36.733800
H -5.494500 -21.876700 -33.622200
C -5.094600 -20.331700 -32.807400
H -4.924600 -20.648600 -30.730500
C -4.852000 -17.684400 -34.592200
O -4.798400 -21.519000 -33.510200
C -4.681500 -17.357900 -35.924600
H -4.554400 -17.710800 -31.588200
O -4.480300 -17.844200 -30.767500
H -4.262100 -19.841900 -32.838000
N -4.254300 -17.135600 -33.513700
C -3.736500 -16.363700 -36.264200
O -3.433600 -15.935200 -37.387800
C -3.365400 -16.199800 -33.834200
N -3.100400 -15.846900 -35.145000
H -2.810600 -15.832600 -32.151900
N -2.680000 -15.554400 -32.905900
H -2.513400 -15.242600 -35.337700
H -2.162700 -14.905500 -33.132100
33
Fragment
Cl -4.893900 -22.127800 -37.156700
H -4.856400 -22.647200 -42.763000
H -4.418000 -22.033200 -39.797700
O -4.265500 -23.476100 -41.085800
O -4.096500 -20.512100 -42.175800
C -3.999100 -22.891900 -42.394900
H -3.906500 -24.694000 -43.302100
C -3.774100 -22.623500 -40.075900
C -3.696100 -23.249500 -37.615700
H -3.643500 -19.841900 -42.223800
N -3.364900 -23.440300 -38.939800
C -3.339100 -23.929700 -43.243300
H -3.219700 -23.550200 -44.135300
C -3.196400 -21.609300 -42.141500
N -3.063900 -24.003400 -36.784200
H -3.059000 -20.263300 -39.895800
C -2.659100 -21.808300 -40.710600
H -2.489100 -21.491400 -42.787500
C -2.416500 -24.455600 -38.925800
O -2.362900 -20.621000 -40.007800
C -2.246000 -24.782100 -37.593400
H -2.118900 -24.429200 -41.929800
O -2.044800 -24.295800 -42.750500
H -1.826600 -22.298100 -40.680000
N -1.818800 -25.004400 -40.004300
C -1.301000 -25.776300 -37.253800
O -0.998100 -26.204800 -36.130200
C -0.929900 -25.940200 -39.683800
N -0.664900 -26.293100 -38.373000
H -0.375100 -26.307400 -41.366100
N -0.244500 -26.585600 -40.612100
H -0.077900 -26.897400 -38.180300
H 0.272800 -27.234500 -40.385900
66
Fragment
Cl -7.329400 -20.012200 -36.361300
H -7.291900 -19.492800 -30.755000
H -6.853500 -20.106800 -33.720300
O -6.701000 -18.663900 -32.432200
O -6.532000 -21.627900 -31.342200
C -6.434600 -19.248100 -31.123100
H -6.342000 -17.446000 -30.215900
C -6.209600 -19.516500 -33.442100
C -6.131600 -18.890500 -35.902300
H -6.079000 -22.298100 -31.294200
N -5.800400 -18.699700 -34.578200
C -5.774600 -18.210300 -30.274700
H -5.655200 -18.589800 -29.382700
C -5.631900 -20.530700 -31.376500
N -5.499400 -18.136600 -36.733800
H -5.494500 -21.876700 -33.622200
C -5.094600 -20.331700 -32.807400
H -4.924600 -20.648600 -30.730500
C -4.852000 -17.684400 -34.592200
O -4.798400 -21.519000 -33.510200
C -4.681500 -17.357900 -35.924600
H -4.554400 -17.710800 -31.588200
O -4.480300 -17.844200 -30.767500
H -4.262100 -19.841900 -32.838000
N -4.254300 -17.135600 -33.513700
C -3.736500 -16.363700 -36.264200
O -3.433600 -15.935200 -37.387800
C -3.365400 -16.199800 -33.834200
N -3.100400 -15.846900 -35.145000
H -2.810600 -15.832600 -32.151900
N -2.680000 -15.554400 -32.905900
H -2.513400 -15.242600 -35.337700
H -2.162700 -14.905500 -33.132100
Cl -4.893900 -22.127800 -37.156700
H -4.856400 -22.647200 -42.763000
H -4.418000 -22.033200 -39.797700
O -4.265500 -23.476100 -41.085800
O -4.096500 -20.512100 -42.175800
C -3.999100 -22.891900 -42.394900
H -3.906500 -24.694000 -43.302100
C -3.774100 -22.623500 -40.075900
C -3.696100 -23.249500 -37.615700
H -3.643500 -19.841900 -42.223800
N -3.364900 -23.440300 -38.939800
C -3.339100 -23.929700 -43.243300
H -3.219700 -23.550200 -44.135300
C -3.196400 -21.609300 -42.141500
N -3.063900 -24.003400 -36.784200
H -3.059000 -20.263300 -39.895800
C -2.659100 -21.808300 -40.710600
H -2.489100 -21.491400 -42.787500
C -2.416500 -24.455600 -38.925800
O -2.362900 -20.621000 -40.007800
C -2.246000 -24.782100 -37.593400
H -2.118900 -24.429200 -41.929800
O -2.044800 -24.295800 -42.750500
H -1.826600 -22.298100 -40.680000
N -1.818800 -25.004400 -40.004300
C -1.301000 -25.776300 -37.253800
O -0.998100 -26.204800 -36.130200
C -0.929900 -25.940200 -39.683800
N -0.664900 -26.293100 -38.373000
H -0.375100 -26.307400 -41.366100
N -0.244500 -26.585600 -40.612100
H -0.077900 -26.897400 -38.180300
H 0.272800 -27.234500 -40.385900
