17
Fragment
N -8.069700 -6.601300 -21.394400
N -8.068300 -6.274000 -20.119200
H -7.846900 -7.996300 -23.336800
O -7.647100 -6.371000 -17.439100
H -7.566100 -9.344600 -22.578600
N -7.370500 -7.730600 -21.483300
C -7.366000 -7.241400 -19.523500
C -7.256900 -8.468700 -22.735600
N -7.134100 -7.271000 -18.098800
N -6.902100 -8.175900 -20.325300
O -6.449800 -8.174400 -17.655900
C -5.873200 -8.436200 -23.288600
H -5.344300 -10.363200 -23.489000
N -5.166100 -7.357100 -23.555900
N -5.164100 -9.507000 -23.627100
N -3.983100 -7.799000 -24.066200
N -3.977800 -9.097100 -24.112100
17
Fragment
N -7.445400 -11.557500 -14.247700
N -7.440200 -10.259400 -14.293600
N -6.259100 -11.967400 -14.732700
N -6.257100 -9.817500 -14.803900
H -6.078900 -12.823600 -14.870800
C -5.550000 -10.896600 -15.071200
O -4.973500 -10.634800 -20.703900
N -4.521100 -10.636300 -18.034500
N -4.289200 -9.731400 -20.261000
C -4.166300 -10.929100 -15.624200
C -4.057300 -9.701800 -18.836300
N -4.052700 -10.191000 -16.876500
H -3.857200 -11.805000 -15.781200
O -3.776100 -8.831400 -20.920700
H -3.576400 -10.456700 -15.023000
N -3.354900 -8.734400 -18.240600
N -3.353500 -9.061700 -16.965400
34
Fragment
N -8.069700 -6.601300 -21.394400
N -8.068300 -6.274000 -20.119200
H -7.846900 -7.996300 -23.336800
O -7.647100 -6.371000 -17.439100
H -7.566100 -9.344600 -22.578600
N -7.370500 -7.730600 -21.483300
C -7.366000 -7.241400 -19.523500
C -7.256900 -8.468700 -22.735600
N -7.134100 -7.271000 -18.098800
N -6.902100 -8.175900 -20.325300
O -6.449800 -8.174400 -17.655900
C -5.873200 -8.436200 -23.288600
H -5.344300 -10.363200 -23.489000
N -5.166100 -7.357100 -23.555900
N -5.164100 -9.507000 -23.627100
N -3.983100 -7.799000 -24.066200
N -3.977800 -9.097100 -24.112100
N -7.445400 -11.557500 -14.247700
N -7.440200 -10.259400 -14.293600
N -6.259100 -11.967400 -14.732700
N -6.257100 -9.817500 -14.803900
H -6.078900 -12.823600 -14.870800
C -5.550000 -10.896600 -15.071200
O -4.973500 -10.634800 -20.703900
N -4.521100 -10.636300 -18.034500
N -4.289200 -9.731400 -20.261000
C -4.166300 -10.929100 -15.624200
C -4.057300 -9.701800 -18.836300
N -4.052700 -10.191000 -16.876500
H -3.857200 -11.805000 -15.781200
O -3.776100 -8.831400 -20.920700
H -3.576400 -10.456700 -15.023000
N -3.354900 -8.734400 -18.240600
N -3.353500 -9.061700 -16.965400
