17
Fragment
N -8.069700 -6.601300 -21.394400
N -8.068300 -6.274000 -20.119200
H -7.846900 -7.996300 -23.336800
O -7.647100 -6.371000 -17.439100
H -7.566100 -9.344600 -22.578600
N -7.370500 -7.730600 -21.483300
C -7.366000 -7.241400 -19.523500
C -7.256900 -8.468700 -22.735600
N -7.134100 -7.271000 -18.098800
N -6.902100 -8.175900 -20.325300
O -6.449800 -8.174400 -17.655900
C -5.873200 -8.436200 -23.288600
H -5.344300 -10.363200 -23.489000
N -5.166100 -7.357100 -23.555900
N -5.164100 -9.507000 -23.627100
N -3.983100 -7.799000 -24.066200
N -3.977800 -9.097100 -24.112100
17
Fragment
N -14.393500 -6.601300 -21.394400
N -14.392100 -6.274000 -20.119200
H -14.170700 -7.996300 -23.336800
O -13.970900 -6.371000 -17.439100
H -13.889900 -9.344600 -22.578600
N -13.694300 -7.730600 -21.483300
C -13.689800 -7.241400 -19.523500
C -13.580700 -8.468700 -22.735600
N -13.457900 -7.271000 -18.098800
N -13.225900 -8.175900 -20.325300
O -12.773600 -8.174400 -17.655900
C -12.197000 -8.436200 -23.288600
H -11.668100 -10.363200 -23.489000
N -11.489900 -7.357100 -23.555900
N -11.487900 -9.507000 -23.627100
N -10.306900 -7.799000 -24.066200
N -10.301600 -9.097100 -24.112100
34
Fragment
N -8.069700 -6.601300 -21.394400
N -8.068300 -6.274000 -20.119200
H -7.846900 -7.996300 -23.336800
O -7.647100 -6.371000 -17.439100
H -7.566100 -9.344600 -22.578600
N -7.370500 -7.730600 -21.483300
C -7.366000 -7.241400 -19.523500
C -7.256900 -8.468700 -22.735600
N -7.134100 -7.271000 -18.098800
N -6.902100 -8.175900 -20.325300
O -6.449800 -8.174400 -17.655900
C -5.873200 -8.436200 -23.288600
H -5.344300 -10.363200 -23.489000
N -5.166100 -7.357100 -23.555900
N -5.164100 -9.507000 -23.627100
N -3.983100 -7.799000 -24.066200
N -3.977800 -9.097100 -24.112100
N -14.393500 -6.601300 -21.394400
N -14.392100 -6.274000 -20.119200
H -14.170700 -7.996300 -23.336800
O -13.970900 -6.371000 -17.439100
H -13.889900 -9.344600 -22.578600
N -13.694300 -7.730600 -21.483300
C -13.689800 -7.241400 -19.523500
C -13.580700 -8.468700 -22.735600
N -13.457900 -7.271000 -18.098800
N -13.225900 -8.175900 -20.325300
O -12.773600 -8.174400 -17.655900
C -12.197000 -8.436200 -23.288600
H -11.668100 -10.363200 -23.489000
N -11.489900 -7.357100 -23.555900
N -11.487900 -9.507000 -23.627100
N -10.306900 -7.799000 -24.066200
N -10.301600 -9.097100 -24.112100
