17
Fragment
N -8.069700 -6.601300 -21.394400
N -8.068300 -6.274000 -20.119200
H -7.846900 -7.996300 -23.336800
O -7.647100 -6.371000 -17.439100
H -7.566100 -9.344600 -22.578600
N -7.370500 -7.730600 -21.483300
C -7.366000 -7.241400 -19.523500
C -7.256900 -8.468700 -22.735600
N -7.134100 -7.271000 -18.098800
N -6.902100 -8.175900 -20.325300
O -6.449800 -8.174400 -17.655900
C -5.873200 -8.436200 -23.288600
H -5.344300 -10.363200 -23.489000
N -5.166100 -7.357100 -23.555900
N -5.164100 -9.507000 -23.627100
N -3.983100 -7.799000 -24.066200
N -3.977800 -9.097100 -24.112100
17
Fragment
N -1.745900 -6.601300 -21.394400
N -1.744500 -6.274000 -20.119200
H -1.523100 -7.996300 -23.336800
O -1.323300 -6.371000 -17.439100
H -1.242300 -9.344600 -22.578600
N -1.046700 -7.730600 -21.483300
C -1.042200 -7.241400 -19.523500
C -0.933100 -8.468700 -22.735600
N -0.810300 -7.271000 -18.098800
N -0.578300 -8.175900 -20.325300
O -0.126000 -8.174400 -17.655900
C 0.450600 -8.436200 -23.288600
H 0.979500 -10.363200 -23.489000
N 1.157700 -7.357100 -23.555900
N 1.159700 -9.507000 -23.627100
N 2.340700 -7.799000 -24.066200
N 2.346000 -9.097100 -24.112100
34
Fragment
N -8.069700 -6.601300 -21.394400
N -8.068300 -6.274000 -20.119200
H -7.846900 -7.996300 -23.336800
O -7.647100 -6.371000 -17.439100
H -7.566100 -9.344600 -22.578600
N -7.370500 -7.730600 -21.483300
C -7.366000 -7.241400 -19.523500
C -7.256900 -8.468700 -22.735600
N -7.134100 -7.271000 -18.098800
N -6.902100 -8.175900 -20.325300
O -6.449800 -8.174400 -17.655900
C -5.873200 -8.436200 -23.288600
H -5.344300 -10.363200 -23.489000
N -5.166100 -7.357100 -23.555900
N -5.164100 -9.507000 -23.627100
N -3.983100 -7.799000 -24.066200
N -3.977800 -9.097100 -24.112100
N -1.745900 -6.601300 -21.394400
N -1.744500 -6.274000 -20.119200
H -1.523100 -7.996300 -23.336800
O -1.323300 -6.371000 -17.439100
H -1.242300 -9.344600 -22.578600
N -1.046700 -7.730600 -21.483300
C -1.042200 -7.241400 -19.523500
C -0.933100 -8.468700 -22.735600
N -0.810300 -7.271000 -18.098800
N -0.578300 -8.175900 -20.325300
O -0.126000 -8.174400 -17.655900
C 0.450600 -8.436200 -23.288600
H 0.979500 -10.363200 -23.489000
N 1.157700 -7.357100 -23.555900
N 1.159700 -9.507000 -23.627100
N 2.340700 -7.799000 -24.066200
N 2.346000 -9.097100 -24.112100
