42
Fragment
H -8.627200 -24.871300 -14.896900
H -7.988700 -27.193900 -14.644400
H -7.777100 -22.587300 -14.986300
C -7.550200 -24.698900 -14.852800
H -7.526600 -23.406200 -16.542400
H -7.229900 -24.688800 -13.810600
C -7.227700 -23.372700 -15.496900
H -6.988800 -28.148300 -16.663800
C -6.944800 -26.984600 -14.883700
O -6.871700 -25.755500 -15.548700
H -6.429900 -29.019100 -15.214600
C -6.400900 -28.071300 -15.751700
H -6.370000 -26.920900 -13.959400
H -6.018200 -21.658000 -16.866700
H -5.996500 -21.073600 -15.193600
O -5.887800 -23.103100 -15.426300
C -5.569900 -21.802000 -15.880700
H -5.168300 -28.429700 -18.043500
O -5.093300 -27.778300 -16.078100
H -4.881500 -29.702300 -16.813800
C -4.671300 -28.667400 -17.096100
C -4.082800 -21.567600 -15.991000
H -3.872500 -20.532700 -16.273300
O -3.660700 -22.456700 -17.009000
H -3.585700 -21.805300 -15.043600
C -3.184100 -28.433000 -17.206400
O -2.866200 -27.131900 -17.660800
H -2.757500 -29.161400 -17.893500
H -2.735900 -28.577000 -16.220400
H -2.384100 -23.314100 -19.127700
C -2.353200 -22.163700 -17.335400
H -2.324100 -21.215900 -17.872600
O -1.882300 -24.479500 -17.538400
C -1.809300 -23.250400 -18.203400
H -1.765300 -22.086700 -16.423300
C -1.526400 -26.862300 -17.590200
H -1.524100 -25.546200 -19.276500
H -1.227500 -26.828800 -16.544700
C -1.203900 -25.536100 -18.234300
H -0.976900 -27.647700 -18.100900
H -0.765300 -23.041100 -18.442800
H -0.126900 -25.363700 -18.190200
20
Fragment
H -8.988300 -36.916000 -16.048300
H -8.961500 -35.556300 -14.035600
H -8.660000 -33.036200 -11.841900
C -8.376800 -36.013500 -16.007500
C -8.363600 -35.249900 -14.893600
N -8.317600 -33.762900 -12.533400
O -8.244100 -37.565700 -18.193500
H -7.743000 -34.411000 -11.978600
C -7.625200 -35.653500 -17.060800
N -7.624600 -36.492400 -18.255300
C -7.573800 -34.014100 -14.803200
N -7.564800 -33.302500 -13.630800
O -7.026500 -36.129000 -19.267700
H -7.009900 -32.451800 -13.551400
C -6.889900 -34.519800 -17.118200
C -6.842900 -33.719400 -15.976700
H -6.348500 -34.240200 -18.021400
O -6.108400 -31.688200 -15.157200
N -6.057700 -32.482000 -16.074800
O -5.379000 -32.311200 -17.116000
62
Fragment
H -8.627200 -24.871300 -14.896900
H -7.988700 -27.193900 -14.644400
H -7.777100 -22.587300 -14.986300
C -7.550200 -24.698900 -14.852800
H -7.526600 -23.406200 -16.542400
H -7.229900 -24.688800 -13.810600
C -7.227700 -23.372700 -15.496900
H -6.988800 -28.148300 -16.663800
C -6.944800 -26.984600 -14.883700
O -6.871700 -25.755500 -15.548700
H -6.429900 -29.019100 -15.214600
C -6.400900 -28.071300 -15.751700
H -6.370000 -26.920900 -13.959400
H -6.018200 -21.658000 -16.866700
H -5.996500 -21.073600 -15.193600
O -5.887800 -23.103100 -15.426300
C -5.569900 -21.802000 -15.880700
H -5.168300 -28.429700 -18.043500
O -5.093300 -27.778300 -16.078100
H -4.881500 -29.702300 -16.813800
C -4.671300 -28.667400 -17.096100
C -4.082800 -21.567600 -15.991000
H -3.872500 -20.532700 -16.273300
O -3.660700 -22.456700 -17.009000
H -3.585700 -21.805300 -15.043600
C -3.184100 -28.433000 -17.206400
O -2.866200 -27.131900 -17.660800
H -2.757500 -29.161400 -17.893500
H -2.735900 -28.577000 -16.220400
H -2.384100 -23.314100 -19.127700
C -2.353200 -22.163700 -17.335400
H -2.324100 -21.215900 -17.872600
O -1.882300 -24.479500 -17.538400
C -1.809300 -23.250400 -18.203400
H -1.765300 -22.086700 -16.423300
C -1.526400 -26.862300 -17.590200
H -1.524100 -25.546200 -19.276500
H -1.227500 -26.828800 -16.544700
C -1.203900 -25.536100 -18.234300
H -0.976900 -27.647700 -18.100900
H -0.765300 -23.041100 -18.442800
H -0.126900 -25.363700 -18.190200
H -8.988300 -36.916000 -16.048300
H -8.961500 -35.556300 -14.035600
H -8.660000 -33.036200 -11.841900
C -8.376800 -36.013500 -16.007500
C -8.363600 -35.249900 -14.893600
N -8.317600 -33.762900 -12.533400
O -8.244100 -37.565700 -18.193500
H -7.743000 -34.411000 -11.978600
C -7.625200 -35.653500 -17.060800
N -7.624600 -36.492400 -18.255300
C -7.573800 -34.014100 -14.803200
N -7.564800 -33.302500 -13.630800
O -7.026500 -36.129000 -19.267700
H -7.009900 -32.451800 -13.551400
C -6.889900 -34.519800 -17.118200
C -6.842900 -33.719400 -15.976700
H -6.348500 -34.240200 -18.021400
O -6.108400 -31.688200 -15.157200
N -6.057700 -32.482000 -16.074800
O -5.379000 -32.311200 -17.116000
