42
Fragment
H -8.627200 -24.871300 -14.896900
H -7.988700 -27.193900 -14.644400
H -7.777100 -22.587300 -14.986300
C -7.550200 -24.698900 -14.852800
H -7.526600 -23.406200 -16.542400
H -7.229900 -24.688800 -13.810600
C -7.227700 -23.372700 -15.496900
H -6.988800 -28.148300 -16.663800
C -6.944800 -26.984600 -14.883700
O -6.871700 -25.755500 -15.548700
H -6.429900 -29.019100 -15.214600
C -6.400900 -28.071300 -15.751700
H -6.370000 -26.920900 -13.959400
H -6.018200 -21.658000 -16.866700
H -5.996500 -21.073600 -15.193600
O -5.887800 -23.103100 -15.426300
C -5.569900 -21.802000 -15.880700
H -5.168300 -28.429700 -18.043500
O -5.093300 -27.778300 -16.078100
H -4.881500 -29.702300 -16.813800
C -4.671300 -28.667400 -17.096100
C -4.082800 -21.567600 -15.991000
H -3.872500 -20.532700 -16.273300
O -3.660700 -22.456700 -17.009000
H -3.585700 -21.805300 -15.043600
C -3.184100 -28.433000 -17.206400
O -2.866200 -27.131900 -17.660800
H -2.757500 -29.161400 -17.893500
H -2.735900 -28.577000 -16.220400
H -2.384100 -23.314100 -19.127700
C -2.353200 -22.163700 -17.335400
H -2.324100 -21.215900 -17.872600
O -1.882300 -24.479500 -17.538400
C -1.809300 -23.250400 -18.203400
H -1.765300 -22.086700 -16.423300
C -1.526400 -26.862300 -17.590200
H -1.524100 -25.546200 -19.276500
H -1.227500 -26.828800 -16.544700
C -1.203900 -25.536100 -18.234300
H -0.976900 -27.647700 -18.100900
H -0.765300 -23.041100 -18.442800
H -0.126900 -25.363700 -18.190200
20
Fragment
O -9.112500 -23.938700 -21.485700
N -8.433900 -24.109500 -22.526800
O -8.383100 -23.315700 -23.444400
H -8.143000 -25.867700 -20.580200
C -7.648600 -25.346900 -22.625000
C -7.601600 -26.147300 -21.483500
H -7.481700 -24.079300 -25.050200
O -7.465000 -27.756500 -19.333900
N -6.926700 -24.930000 -24.970800
C -6.917700 -25.641600 -23.798500
N -6.866900 -28.119900 -20.346400
C -6.866300 -27.281000 -21.540800
H -6.748600 -26.038500 -26.623000
O -6.247500 -29.193200 -20.408100
N -6.174000 -25.390400 -26.068200
C -6.128000 -26.877400 -23.708000
C -6.114800 -27.641000 -22.594100
H -5.831500 -24.663700 -26.759700
H -5.530100 -27.183800 -24.566100
H -5.503300 -28.543500 -22.553300
62
Fragment
H -8.627200 -24.871300 -14.896900
H -7.988700 -27.193900 -14.644400
H -7.777100 -22.587300 -14.986300
C -7.550200 -24.698900 -14.852800
H -7.526600 -23.406200 -16.542400
H -7.229900 -24.688800 -13.810600
C -7.227700 -23.372700 -15.496900
H -6.988800 -28.148300 -16.663800
C -6.944800 -26.984600 -14.883700
O -6.871700 -25.755500 -15.548700
H -6.429900 -29.019100 -15.214600
C -6.400900 -28.071300 -15.751700
H -6.370000 -26.920900 -13.959400
H -6.018200 -21.658000 -16.866700
H -5.996500 -21.073600 -15.193600
O -5.887800 -23.103100 -15.426300
C -5.569900 -21.802000 -15.880700
H -5.168300 -28.429700 -18.043500
O -5.093300 -27.778300 -16.078100
H -4.881500 -29.702300 -16.813800
C -4.671300 -28.667400 -17.096100
C -4.082800 -21.567600 -15.991000
H -3.872500 -20.532700 -16.273300
O -3.660700 -22.456700 -17.009000
H -3.585700 -21.805300 -15.043600
C -3.184100 -28.433000 -17.206400
O -2.866200 -27.131900 -17.660800
H -2.757500 -29.161400 -17.893500
H -2.735900 -28.577000 -16.220400
H -2.384100 -23.314100 -19.127700
C -2.353200 -22.163700 -17.335400
H -2.324100 -21.215900 -17.872600
O -1.882300 -24.479500 -17.538400
C -1.809300 -23.250400 -18.203400
H -1.765300 -22.086700 -16.423300
C -1.526400 -26.862300 -17.590200
H -1.524100 -25.546200 -19.276500
H -1.227500 -26.828800 -16.544700
C -1.203900 -25.536100 -18.234300
H -0.976900 -27.647700 -18.100900
H -0.765300 -23.041100 -18.442800
H -0.126900 -25.363700 -18.190200
O -9.112500 -23.938700 -21.485700
N -8.433900 -24.109500 -22.526800
O -8.383100 -23.315700 -23.444400
H -8.143000 -25.867700 -20.580200
C -7.648600 -25.346900 -22.625000
C -7.601600 -26.147300 -21.483500
H -7.481700 -24.079300 -25.050200
O -7.465000 -27.756500 -19.333900
N -6.926700 -24.930000 -24.970800
C -6.917700 -25.641600 -23.798500
N -6.866900 -28.119900 -20.346400
C -6.866300 -27.281000 -21.540800
H -6.748600 -26.038500 -26.623000
O -6.247500 -29.193200 -20.408100
N -6.174000 -25.390400 -26.068200
C -6.128000 -26.877400 -23.708000
C -6.114800 -27.641000 -22.594100
H -5.831500 -24.663700 -26.759700
H -5.530100 -27.183800 -24.566100
H -5.503300 -28.543500 -22.553300
