42
Fragment
H -20.990100 -13.001500 -29.161200
H -20.631600 -11.825000 -27.867300
H -20.560400 -11.344900 -30.728900
H -20.285000 -14.054200 -26.961100
C -20.188000 -12.581700 -28.532300
H -20.012400 -10.127900 -29.538200
C -19.684200 -10.976600 -30.162600
C -19.558900 -13.666300 -27.696200
O -19.173300 -12.006700 -29.342600
O -19.136200 -14.709200 -28.561900
H -19.112200 -16.271000 -27.191100
H -19.106900 -9.792200 -31.840200
H -18.709500 -13.244900 -27.146900
C -18.644800 -10.530100 -31.156800
C -18.456900 -15.791000 -27.930000
H -18.307800 -11.388600 -31.759400
H -18.243600 -16.511100 -28.728700
O -17.535400 -9.946900 -30.488800
H -17.365400 -14.677100 -26.414800
C -17.172500 -15.388600 -27.236900
H -17.098500 -8.462200 -31.875200
H -16.717300 -16.288400 -26.788300
C -16.643200 -9.362000 -31.426600
H -16.450300 -10.073500 -32.248700
O -16.280300 -14.803700 -28.174600
H -15.572100 -8.239500 -29.934800
H -15.507900 -13.362000 -26.904000
C -15.358800 -8.959600 -30.733500
C -15.171000 -14.220500 -27.506600
H -15.106200 -11.505700 -31.516500
H -14.708800 -14.958400 -26.823300
H -14.703500 -8.479600 -31.472300
O -14.679600 -10.041400 -30.101500
O -14.642400 -12.743900 -29.320800
C -14.256900 -11.084300 -30.967300
C -14.131500 -13.774000 -28.500800
H -13.803300 -14.622700 -29.125200
C -13.627700 -12.168900 -30.131100
H -13.530800 -10.696400 -31.702300
H -13.255300 -13.405700 -27.934500
H -13.184200 -12.925600 -30.796200
H -12.825700 -11.749100 -29.502200
42
Fragment
H -20.990100 -21.251700 -29.161200
H -20.631600 -20.075200 -27.867300
H -20.560400 -19.595100 -30.728900
H -20.285000 -22.304400 -26.961100
C -20.188000 -20.831900 -28.532300
H -20.012400 -18.378100 -29.538200
C -19.684200 -19.226800 -30.162600
C -19.558900 -21.916500 -27.696200
O -19.173300 -20.256900 -29.342600
O -19.136200 -22.959400 -28.561900
H -19.112200 -24.521200 -27.191100
H -19.106900 -18.042400 -31.840200
H -18.709500 -21.495100 -27.146900
C -18.644800 -18.780300 -31.156800
C -18.456900 -24.041200 -27.930000
H -18.307800 -19.638800 -31.759400
H -18.243600 -24.761300 -28.728700
O -17.535400 -18.197100 -30.488800
H -17.365400 -22.927300 -26.414800
C -17.172500 -23.638800 -27.236900
H -17.098500 -16.712400 -31.875200
H -16.717300 -24.538600 -26.788300
C -16.643200 -17.612200 -31.426600
H -16.450300 -18.323700 -32.248700
O -16.280300 -23.053900 -28.174600
H -15.572100 -16.489700 -29.934800
H -15.507900 -21.612200 -26.904000
C -15.358800 -17.209800 -30.733500
C -15.171000 -22.470700 -27.506600
H -15.106200 -19.755900 -31.516500
H -14.708800 -23.208600 -26.823300
H -14.703500 -16.729800 -31.472300
O -14.679600 -18.291600 -30.101500
O -14.642400 -20.994100 -29.320800
C -14.256900 -19.334500 -30.967300
C -14.131500 -22.024200 -28.500800
H -13.803300 -22.872900 -29.125200
C -13.627700 -20.419100 -30.131100
H -13.530800 -18.946600 -31.702300
H -13.255300 -21.655900 -27.934500
H -13.184200 -21.175800 -30.796200
H -12.825700 -19.999300 -29.502200
84
Fragment
H -20.990100 -13.001500 -29.161200
H -20.631600 -11.825000 -27.867300
H -20.560400 -11.344900 -30.728900
H -20.285000 -14.054200 -26.961100
C -20.188000 -12.581700 -28.532300
H -20.012400 -10.127900 -29.538200
C -19.684200 -10.976600 -30.162600
C -19.558900 -13.666300 -27.696200
O -19.173300 -12.006700 -29.342600
O -19.136200 -14.709200 -28.561900
H -19.112200 -16.271000 -27.191100
H -19.106900 -9.792200 -31.840200
H -18.709500 -13.244900 -27.146900
C -18.644800 -10.530100 -31.156800
C -18.456900 -15.791000 -27.930000
H -18.307800 -11.388600 -31.759400
H -18.243600 -16.511100 -28.728700
O -17.535400 -9.946900 -30.488800
H -17.365400 -14.677100 -26.414800
C -17.172500 -15.388600 -27.236900
H -17.098500 -8.462200 -31.875200
H -16.717300 -16.288400 -26.788300
C -16.643200 -9.362000 -31.426600
H -16.450300 -10.073500 -32.248700
O -16.280300 -14.803700 -28.174600
H -15.572100 -8.239500 -29.934800
H -15.507900 -13.362000 -26.904000
C -15.358800 -8.959600 -30.733500
C -15.171000 -14.220500 -27.506600
H -15.106200 -11.505700 -31.516500
H -14.708800 -14.958400 -26.823300
H -14.703500 -8.479600 -31.472300
O -14.679600 -10.041400 -30.101500
O -14.642400 -12.743900 -29.320800
C -14.256900 -11.084300 -30.967300
C -14.131500 -13.774000 -28.500800
H -13.803300 -14.622700 -29.125200
C -13.627700 -12.168900 -30.131100
H -13.530800 -10.696400 -31.702300
H -13.255300 -13.405700 -27.934500
H -13.184200 -12.925600 -30.796200
H -12.825700 -11.749100 -29.502200
H -20.990100 -21.251700 -29.161200
H -20.631600 -20.075200 -27.867300
H -20.560400 -19.595100 -30.728900
H -20.285000 -22.304400 -26.961100
C -20.188000 -20.831900 -28.532300
H -20.012400 -18.378100 -29.538200
C -19.684200 -19.226800 -30.162600
C -19.558900 -21.916500 -27.696200
O -19.173300 -20.256900 -29.342600
O -19.136200 -22.959400 -28.561900
H -19.112200 -24.521200 -27.191100
H -19.106900 -18.042400 -31.840200
H -18.709500 -21.495100 -27.146900
C -18.644800 -18.780300 -31.156800
C -18.456900 -24.041200 -27.930000
H -18.307800 -19.638800 -31.759400
H -18.243600 -24.761300 -28.728700
O -17.535400 -18.197100 -30.488800
H -17.365400 -22.927300 -26.414800
C -17.172500 -23.638800 -27.236900
H -17.098500 -16.712400 -31.875200
H -16.717300 -24.538600 -26.788300
C -16.643200 -17.612200 -31.426600
H -16.450300 -18.323700 -32.248700
O -16.280300 -23.053900 -28.174600
H -15.572100 -16.489700 -29.934800
H -15.507900 -21.612200 -26.904000
C -15.358800 -17.209800 -30.733500
C -15.171000 -22.470700 -27.506600
H -15.106200 -19.755900 -31.516500
H -14.708800 -23.208600 -26.823300
H -14.703500 -16.729800 -31.472300
O -14.679600 -18.291600 -30.101500
O -14.642400 -20.994100 -29.320800
C -14.256900 -19.334500 -30.967300
C -14.131500 -22.024200 -28.500800
H -13.803300 -22.872900 -29.125200
C -13.627700 -20.419100 -30.131100
H -13.530800 -18.946600 -31.702300
H -13.255300 -21.655900 -27.934500
H -13.184200 -21.175800 -30.796200
H -12.825700 -19.999300 -29.502200
