8
Fragment
H -19.918700 -14.556700 -31.948100
H -19.112100 -14.534400 -30.379100
N -19.065400 -14.537900 -31.394900
C -17.940500 -14.151000 -32.010900
O -17.897900 -14.041500 -33.272500
H -16.872500 -13.945300 -30.251000
N -16.848200 -13.910000 -31.260800
H -15.973500 -13.725900 -31.728500
8
Fragment
H -18.176000 -11.132000 -35.111200
H -17.332600 -12.428100 -34.271600
N -17.306800 -11.574900 -34.813000
O -16.183500 -9.700100 -35.438800
C -16.180800 -10.831400 -34.893200
N -15.051000 -11.349100 -34.371500
H -15.009300 -12.272200 -33.958900
H -14.191100 -10.823400 -34.532400
16
Fragment
H -19.918700 -14.556700 -31.948100
H -19.112100 -14.534400 -30.379100
N -19.065400 -14.537900 -31.394900
C -17.940500 -14.151000 -32.010900
O -17.897900 -14.041500 -33.272500
H -16.872500 -13.945300 -30.251000
N -16.848200 -13.910000 -31.260800
H -15.973500 -13.725900 -31.728500
H -18.176000 -11.132000 -35.111200
H -17.332600 -12.428100 -34.271600
N -17.306800 -11.574900 -34.813000
O -16.183500 -9.700100 -35.438800
C -16.180800 -10.831400 -34.893200
N -15.051000 -11.349100 -34.371500
H -15.009300 -12.272200 -33.958900
H -14.191100 -10.823400 -34.532400
