8
Fragment
H -19.918700 -14.556700 -31.948100
H -19.112100 -14.534400 -30.379100
N -19.065400 -14.537900 -31.394900
C -17.940500 -14.151000 -32.010900
O -17.897900 -14.041500 -33.272500
H -16.872500 -13.945300 -30.251000
N -16.848200 -13.910000 -31.260800
H -15.973500 -13.725900 -31.728500
8
Fragment
H -16.348100 -14.948500 -33.908200
H -15.529900 -16.397300 -34.481800
N -15.488200 -15.474200 -34.069200
C -14.358400 -14.956500 -33.547500
O -14.355700 -13.825200 -33.001900
N -13.232400 -15.700000 -33.627600
H -13.206600 -16.553200 -34.169100
H -12.363200 -15.257100 -33.329400
16
Fragment
H -19.918700 -14.556700 -31.948100
H -19.112100 -14.534400 -30.379100
N -19.065400 -14.537900 -31.394900
C -17.940500 -14.151000 -32.010900
O -17.897900 -14.041500 -33.272500
H -16.872500 -13.945300 -30.251000
N -16.848200 -13.910000 -31.260800
H -15.973500 -13.725900 -31.728500
H -16.348100 -14.948500 -33.908200
H -15.529900 -16.397300 -34.481800
N -15.488200 -15.474200 -34.069200
C -14.358400 -14.956500 -33.547500
O -14.355700 -13.825200 -33.001900
N -13.232400 -15.700000 -33.627600
H -13.206600 -16.553200 -34.169100
H -12.363200 -15.257100 -33.329400
