16
Fragment
H -29.699000 -4.826000 -7.625200
O -29.020500 -5.328100 -7.742500
O -28.110100 -3.340700 -8.109400
C -28.019600 -4.544000 -8.057000
H -27.516600 -7.112500 -8.127300
C -26.771600 -5.266600 -8.373600
C -26.720500 -6.646400 -8.388000
H -26.221600 -2.924600 -8.317000
C -25.607200 -4.521300 -8.656300
O -25.559200 -3.184000 -8.659100
C -25.538900 -7.299800 -8.667400
Cl -25.484000 -9.035000 -8.666700
C -24.422800 -5.208000 -8.973600
C -24.399900 -6.567100 -8.976300
H -23.716100 -4.753300 -9.310200
H -23.638500 -7.003300 -9.193600
16
Fragment
H -28.271200 -3.812900 -11.497200
H -28.193500 -6.062900 -11.380600
C -27.509700 -4.249000 -11.714400
C -27.486800 -5.608200 -11.717200
Cl -26.425600 -1.781200 -12.024100
C -26.370800 -3.516400 -12.023400
O -26.350400 -7.632200 -12.031700
C -26.302500 -6.294800 -12.034400
H -25.688000 -7.891500 -12.373800
C -25.189100 -4.169800 -12.302700
C -25.138100 -5.549600 -12.317200
H -24.393000 -3.703600 -12.563400
C -23.890100 -6.272200 -12.633800
O -23.799600 -7.475500 -12.581400
O -22.889100 -5.488000 -12.948300
H -22.210600 -5.990200 -13.065500
32
Fragment
H -29.699000 -4.826000 -7.625200
O -29.020500 -5.328100 -7.742500
O -28.110100 -3.340700 -8.109400
C -28.019600 -4.544000 -8.057000
H -27.516600 -7.112500 -8.127300
C -26.771600 -5.266600 -8.373600
C -26.720500 -6.646400 -8.388000
H -26.221600 -2.924600 -8.317000
C -25.607200 -4.521300 -8.656300
O -25.559200 -3.184000 -8.659100
C -25.538900 -7.299800 -8.667400
Cl -25.484000 -9.035000 -8.666700
C -24.422800 -5.208000 -8.973600
C -24.399900 -6.567100 -8.976300
H -23.716100 -4.753300 -9.310200
H -23.638500 -7.003300 -9.193600
H -28.271200 -3.812900 -11.497200
H -28.193500 -6.062900 -11.380600
C -27.509700 -4.249000 -11.714400
C -27.486800 -5.608200 -11.717200
Cl -26.425600 -1.781200 -12.024100
C -26.370800 -3.516400 -12.023400
O -26.350400 -7.632200 -12.031700
C -26.302500 -6.294800 -12.034400
H -25.688000 -7.891500 -12.373800
C -25.189100 -4.169800 -12.302700
C -25.138100 -5.549600 -12.317200
H -24.393000 -3.703600 -12.563400
C -23.890100 -6.272200 -12.633800
O -23.799600 -7.475500 -12.581400
O -22.889100 -5.488000 -12.948300
H -22.210600 -5.990200 -13.065500
