16
Fragment
H -29.699000 -4.826000 -7.625200
O -29.020500 -5.328100 -7.742500
O -28.110100 -3.340700 -8.109400
C -28.019600 -4.544000 -8.057000
H -27.516600 -7.112500 -8.127300
C -26.771600 -5.266600 -8.373600
C -26.720500 -6.646400 -8.388000
H -26.221600 -2.924600 -8.317000
C -25.607200 -4.521300 -8.656300
O -25.559200 -3.184000 -8.659100
C -25.538900 -7.299800 -8.667400
Cl -25.484000 -9.035000 -8.666700
C -24.422800 -5.208000 -8.973600
C -24.399900 -6.567100 -8.976300
H -23.716100 -4.753300 -9.310200
H -23.638500 -7.003300 -9.193600
16
Fragment
H -33.778100 -10.083900 -11.998600
O -33.066700 -10.443400 -11.880600
O -32.582700 -8.317300 -11.459900
C -32.243100 -9.494800 -11.502000
H -31.163200 -11.713900 -11.582700
C -30.904600 -9.952700 -11.179900
H -30.874800 -7.559700 -10.811600
C -30.563000 -11.304300 -11.274400
O -30.199100 -7.708900 -10.666800
C -29.933600 -9.017200 -10.795700
C -29.285400 -11.694500 -10.981300
Cl -28.818600 -13.359500 -11.079900
C -28.646700 -9.420400 -10.508100
C -28.305900 -10.757300 -10.580600
H -27.848600 -8.779100 -10.161200
H -27.066600 -11.175300 -10.091600
32
Fragment
H -29.699000 -4.826000 -7.625200
O -29.020500 -5.328100 -7.742500
O -28.110100 -3.340700 -8.109400
C -28.019600 -4.544000 -8.057000
H -27.516600 -7.112500 -8.127300
C -26.771600 -5.266600 -8.373600
C -26.720500 -6.646400 -8.388000
H -26.221600 -2.924600 -8.317000
C -25.607200 -4.521300 -8.656300
O -25.559200 -3.184000 -8.659100
C -25.538900 -7.299800 -8.667400
Cl -25.484000 -9.035000 -8.666700
C -24.422800 -5.208000 -8.973600
C -24.399900 -6.567100 -8.976300
H -23.716100 -4.753300 -9.310200
H -23.638500 -7.003300 -9.193600
H -33.778100 -10.083900 -11.998600
O -33.066700 -10.443400 -11.880600
O -32.582700 -8.317300 -11.459900
C -32.243100 -9.494800 -11.502000
H -31.163200 -11.713900 -11.582700
C -30.904600 -9.952700 -11.179900
H -30.874800 -7.559700 -10.811600
C -30.563000 -11.304300 -11.274400
O -30.199100 -7.708900 -10.666800
C -29.933600 -9.017200 -10.795700
C -29.285400 -11.694500 -10.981300
Cl -28.818600 -13.359500 -11.079900
C -28.646700 -9.420400 -10.508100
C -28.305900 -10.757300 -10.580600
H -27.848600 -8.779100 -10.161200
H -27.066600 -11.175300 -10.091600
