16
Fragment
H -29.699000 -4.826000 -7.625200
O -29.020500 -5.328100 -7.742500
O -28.110100 -3.340700 -8.109400
C -28.019600 -4.544000 -8.057000
H -27.516600 -7.112500 -8.127300
C -26.771600 -5.266600 -8.373600
C -26.720500 -6.646400 -8.388000
H -26.221600 -2.924600 -8.317000
C -25.607200 -4.521300 -8.656300
O -25.559200 -3.184000 -8.659100
C -25.538900 -7.299800 -8.667400
Cl -25.484000 -9.035000 -8.666700
C -24.422800 -5.208000 -8.973600
C -24.399900 -6.567100 -8.976300
H -23.716100 -4.753300 -9.310200
H -23.638500 -7.003300 -9.193600
16
Fragment
H -27.245200 -13.544200 -7.625200
O -26.566600 -14.046400 -7.742500
O -25.656200 -12.058900 -8.109400
C -25.565700 -13.262200 -8.057000
H -25.062800 -15.830800 -8.127300
C -24.317700 -13.984800 -8.373600
C -24.266700 -15.364600 -8.388000
H -23.767800 -11.642900 -8.317000
C -23.153300 -13.239600 -8.656300
O -23.105400 -11.902200 -8.659100
C -23.085000 -16.018100 -8.667400
Cl -23.030100 -17.753200 -8.666700
C -21.968900 -13.926200 -8.973600
C -21.946100 -15.285400 -8.976300
H -21.262200 -13.471500 -9.310200
H -21.184600 -15.721500 -9.193600
32
Fragment
H -29.699000 -4.826000 -7.625200
O -29.020500 -5.328100 -7.742500
O -28.110100 -3.340700 -8.109400
C -28.019600 -4.544000 -8.057000
H -27.516600 -7.112500 -8.127300
C -26.771600 -5.266600 -8.373600
C -26.720500 -6.646400 -8.388000
H -26.221600 -2.924600 -8.317000
C -25.607200 -4.521300 -8.656300
O -25.559200 -3.184000 -8.659100
C -25.538900 -7.299800 -8.667400
Cl -25.484000 -9.035000 -8.666700
C -24.422800 -5.208000 -8.973600
C -24.399900 -6.567100 -8.976300
H -23.716100 -4.753300 -9.310200
H -23.638500 -7.003300 -9.193600
H -27.245200 -13.544200 -7.625200
O -26.566600 -14.046400 -7.742500
O -25.656200 -12.058900 -8.109400
C -25.565700 -13.262200 -8.057000
H -25.062800 -15.830800 -8.127300
C -24.317700 -13.984800 -8.373600
C -24.266700 -15.364600 -8.388000
H -23.767800 -11.642900 -8.317000
C -23.153300 -13.239600 -8.656300
O -23.105400 -11.902200 -8.659100
C -23.085000 -16.018100 -8.667400
Cl -23.030100 -17.753200 -8.666700
C -21.968900 -13.926200 -8.973600
C -21.946100 -15.285400 -8.976300
H -21.262200 -13.471500 -9.310200
H -21.184600 -15.721500 -9.193600
