28
Fragment
H -15.769000 -38.891300 -8.950600
H -15.091500 -39.378300 -7.379200
C -14.931600 -38.763800 -8.264500
O -14.845000 -37.416400 -7.861500
H -14.463100 -37.360700 -6.976300
O -14.301500 -38.119000 -10.976100
H -13.826400 -40.213200 -9.388000
C -13.656700 -39.211300 -8.972500
H -13.402000 -33.070400 -7.517300
C -13.379200 -38.295300 -10.147300
H -13.344900 -34.832900 -5.612100
N -12.854300 -33.963200 -7.539800
C -12.796400 -34.888500 -6.557200
H -12.691900 -39.888500 -7.177700
N -12.545000 -39.299500 -8.028500
N -12.203800 -37.722500 -10.270400
H -12.079800 -37.105600 -11.097600
C -12.069100 -34.415400 -8.566100
N -12.019400 -35.897300 -6.885900
H -11.892000 -33.882100 -9.503200
C -11.557400 -35.602800 -8.169500
C -11.359900 -38.698800 -8.132700
C -11.084000 -37.840800 -9.340300
C -10.575500 -36.447000 -8.905100
O -10.471000 -38.865800 -7.296900
H -10.276000 -38.334700 -9.917600
H -10.267800 -35.922900 -9.814000
H -9.729100 -36.572200 -8.236800
28
Fragment
H -15.769000 -38.891300 -3.194600
H -15.091500 -39.378300 -1.623200
C -14.931600 -38.763800 -2.508500
O -14.845000 -37.416400 -2.105500
H -14.463100 -37.360700 -1.220300
O -14.301500 -38.119000 -5.220100
H -13.826400 -40.213200 -3.632000
C -13.656700 -39.211300 -3.216500
H -13.402000 -33.070400 -1.761300
C -13.379200 -38.295300 -4.391300
H -13.344900 -34.832900 0.143900
N -12.854300 -33.963200 -1.783800
C -12.796400 -34.888500 -0.801200
H -12.691900 -39.888500 -1.421700
N -12.545000 -39.299500 -2.272500
N -12.203800 -37.722500 -4.514400
H -12.079800 -37.105600 -5.341600
C -12.069100 -34.415400 -2.810100
N -12.019400 -35.897300 -1.129900
H -11.892000 -33.882100 -3.747200
C -11.557400 -35.602800 -2.413500
C -11.359900 -38.698800 -2.376700
C -11.084000 -37.840800 -3.584300
C -10.575500 -36.447000 -3.149100
O -10.471000 -38.865800 -1.540900
H -10.276000 -38.334700 -4.161600
H -10.267800 -35.922900 -4.058000
H -9.729100 -36.572200 -2.480800
56
Fragment
H -15.769000 -38.891300 -8.950600
H -15.091500 -39.378300 -7.379200
C -14.931600 -38.763800 -8.264500
O -14.845000 -37.416400 -7.861500
H -14.463100 -37.360700 -6.976300
O -14.301500 -38.119000 -10.976100
H -13.826400 -40.213200 -9.388000
C -13.656700 -39.211300 -8.972500
H -13.402000 -33.070400 -7.517300
C -13.379200 -38.295300 -10.147300
H -13.344900 -34.832900 -5.612100
N -12.854300 -33.963200 -7.539800
C -12.796400 -34.888500 -6.557200
H -12.691900 -39.888500 -7.177700
N -12.545000 -39.299500 -8.028500
N -12.203800 -37.722500 -10.270400
H -12.079800 -37.105600 -11.097600
C -12.069100 -34.415400 -8.566100
N -12.019400 -35.897300 -6.885900
H -11.892000 -33.882100 -9.503200
C -11.557400 -35.602800 -8.169500
C -11.359900 -38.698800 -8.132700
C -11.084000 -37.840800 -9.340300
C -10.575500 -36.447000 -8.905100
O -10.471000 -38.865800 -7.296900
H -10.276000 -38.334700 -9.917600
H -10.267800 -35.922900 -9.814000
H -9.729100 -36.572200 -8.236800
H -15.769000 -38.891300 -3.194600
H -15.091500 -39.378300 -1.623200
C -14.931600 -38.763800 -2.508500
O -14.845000 -37.416400 -2.105500
H -14.463100 -37.360700 -1.220300
O -14.301500 -38.119000 -5.220100
H -13.826400 -40.213200 -3.632000
C -13.656700 -39.211300 -3.216500
H -13.402000 -33.070400 -1.761300
C -13.379200 -38.295300 -4.391300
H -13.344900 -34.832900 0.143900
N -12.854300 -33.963200 -1.783800
C -12.796400 -34.888500 -0.801200
H -12.691900 -39.888500 -1.421700
N -12.545000 -39.299500 -2.272500
N -12.203800 -37.722500 -4.514400
H -12.079800 -37.105600 -5.341600
C -12.069100 -34.415400 -2.810100
N -12.019400 -35.897300 -1.129900
H -11.892000 -33.882100 -3.747200
C -11.557400 -35.602800 -2.413500
C -11.359900 -38.698800 -2.376700
C -11.084000 -37.840800 -3.584300
C -10.575500 -36.447000 -3.149100
O -10.471000 -38.865800 -1.540900
H -10.276000 -38.334700 -4.161600
H -10.267800 -35.922900 -4.058000
H -9.729100 -36.572200 -2.480800
