28
Fragment
H -15.769000 -38.891300 -8.950600
H -15.091500 -39.378300 -7.379200
C -14.931600 -38.763800 -8.264500
O -14.845000 -37.416400 -7.861500
H -14.463100 -37.360700 -6.976300
O -14.301500 -38.119000 -10.976100
H -13.826400 -40.213200 -9.388000
C -13.656700 -39.211300 -8.972500
H -13.402000 -33.070400 -7.517300
C -13.379200 -38.295300 -10.147300
H -13.344900 -34.832900 -5.612100
N -12.854300 -33.963200 -7.539800
C -12.796400 -34.888500 -6.557200
H -12.691900 -39.888500 -7.177700
N -12.545000 -39.299500 -8.028500
N -12.203800 -37.722500 -10.270400
H -12.079800 -37.105600 -11.097600
C -12.069100 -34.415400 -8.566100
N -12.019400 -35.897300 -6.885900
H -11.892000 -33.882100 -9.503200
C -11.557400 -35.602800 -8.169500
C -11.359900 -38.698800 -8.132700
C -11.084000 -37.840800 -9.340300
C -10.575500 -36.447000 -8.905100
O -10.471000 -38.865800 -7.296900
H -10.276000 -38.334700 -9.917600
H -10.267800 -35.922900 -9.814000
H -9.729100 -36.572200 -8.236800
28
Fragment
H -18.837900 -33.000800 -11.114800
H -18.299200 -33.650100 -12.692000
H -18.291000 -31.238300 -12.795600
O -18.096000 -30.707200 -10.174900
C -17.991500 -33.126000 -11.783100
C -17.483000 -31.732200 -12.218300
C -17.207100 -30.874200 -11.010700
C -17.009600 -33.970200 -11.047500
H -16.675000 -35.690900 -12.381200
N -16.547600 -33.675700 -9.763900
C -16.497900 -35.157600 -11.444100
H -16.487200 -32.467400 -13.975600
N -16.363200 -31.850500 -13.148400
N -16.022000 -30.273500 -10.906500
H -15.875100 -29.684500 -10.055700
C -15.770600 -34.684500 -9.435200
N -15.712700 -35.609800 -10.417800
H -15.222100 -34.740100 -8.490100
C -15.187800 -31.277700 -13.025300
H -15.165000 -36.502600 -10.395300
C -14.910300 -30.361700 -11.850500
H -14.740600 -29.359800 -12.266000
O -14.265500 -31.454000 -13.854100
H -14.103900 -32.212300 -9.854300
O -13.722000 -32.156600 -10.739500
C -13.635400 -30.809200 -11.142500
H -13.475500 -30.194700 -10.257200
H -12.798000 -30.681700 -11.828600
56
Fragment
H -15.769000 -38.891300 -8.950600
H -15.091500 -39.378300 -7.379200
C -14.931600 -38.763800 -8.264500
O -14.845000 -37.416400 -7.861500
H -14.463100 -37.360700 -6.976300
O -14.301500 -38.119000 -10.976100
H -13.826400 -40.213200 -9.388000
C -13.656700 -39.211300 -8.972500
H -13.402000 -33.070400 -7.517300
C -13.379200 -38.295300 -10.147300
H -13.344900 -34.832900 -5.612100
N -12.854300 -33.963200 -7.539800
C -12.796400 -34.888500 -6.557200
H -12.691900 -39.888500 -7.177700
N -12.545000 -39.299500 -8.028500
N -12.203800 -37.722500 -10.270400
H -12.079800 -37.105600 -11.097600
C -12.069100 -34.415400 -8.566100
N -12.019400 -35.897300 -6.885900
H -11.892000 -33.882100 -9.503200
C -11.557400 -35.602800 -8.169500
C -11.359900 -38.698800 -8.132700
C -11.084000 -37.840800 -9.340300
C -10.575500 -36.447000 -8.905100
O -10.471000 -38.865800 -7.296900
H -10.276000 -38.334700 -9.917600
H -10.267800 -35.922900 -9.814000
H -9.729100 -36.572200 -8.236800
H -18.837900 -33.000800 -11.114800
H -18.299200 -33.650100 -12.692000
H -18.291000 -31.238300 -12.795600
O -18.096000 -30.707200 -10.174900
C -17.991500 -33.126000 -11.783100
C -17.483000 -31.732200 -12.218300
C -17.207100 -30.874200 -11.010700
C -17.009600 -33.970200 -11.047500
H -16.675000 -35.690900 -12.381200
N -16.547600 -33.675700 -9.763900
C -16.497900 -35.157600 -11.444100
H -16.487200 -32.467400 -13.975600
N -16.363200 -31.850500 -13.148400
N -16.022000 -30.273500 -10.906500
H -15.875100 -29.684500 -10.055700
C -15.770600 -34.684500 -9.435200
N -15.712700 -35.609800 -10.417800
H -15.222100 -34.740100 -8.490100
C -15.187800 -31.277700 -13.025300
H -15.165000 -36.502600 -10.395300
C -14.910300 -30.361700 -11.850500
H -14.740600 -29.359800 -12.266000
O -14.265500 -31.454000 -13.854100
H -14.103900 -32.212300 -9.854300
O -13.722000 -32.156600 -10.739500
C -13.635400 -30.809200 -11.142500
H -13.475500 -30.194700 -10.257200
H -12.798000 -30.681700 -11.828600
