28
Fragment
H -15.769000 -38.891300 -8.950600
H -15.091500 -39.378300 -7.379200
C -14.931600 -38.763800 -8.264500
O -14.845000 -37.416400 -7.861500
H -14.463100 -37.360700 -6.976300
O -14.301500 -38.119000 -10.976100
H -13.826400 -40.213200 -9.388000
C -13.656700 -39.211300 -8.972500
H -13.402000 -33.070400 -7.517300
C -13.379200 -38.295300 -10.147300
H -13.344900 -34.832900 -5.612100
N -12.854300 -33.963200 -7.539800
C -12.796400 -34.888500 -6.557200
H -12.691900 -39.888500 -7.177700
N -12.545000 -39.299500 -8.028500
N -12.203800 -37.722500 -10.270400
H -12.079800 -37.105600 -11.097600
C -12.069100 -34.415400 -8.566100
N -12.019400 -35.897300 -6.885900
H -11.892000 -33.882100 -9.503200
C -11.557400 -35.602800 -8.169500
C -11.359900 -38.698800 -8.132700
C -11.084000 -37.840800 -9.340300
C -10.575500 -36.447000 -8.905100
O -10.471000 -38.865800 -7.296900
H -10.276000 -38.334700 -9.917600
H -10.267800 -35.922900 -9.814000
H -9.729100 -36.572200 -8.236800
28
Fragment
H -23.931000 -38.891300 -8.950600
H -23.253500 -39.378300 -7.379200
C -23.093600 -38.763800 -8.264500
O -23.007000 -37.416400 -7.861500
H -22.625100 -37.360700 -6.976300
O -22.463500 -38.119000 -10.976100
H -21.988400 -40.213200 -9.388000
C -21.818700 -39.211300 -8.972500
H -21.564000 -33.070400 -7.517300
C -21.541200 -38.295300 -10.147300
H -21.506900 -34.832900 -5.612100
N -21.016300 -33.963200 -7.539800
C -20.958400 -34.888500 -6.557200
H -20.853900 -39.888500 -7.177700
N -20.707000 -39.299500 -8.028500
N -20.365800 -37.722500 -10.270400
H -20.241800 -37.105600 -11.097600
C -20.231100 -34.415400 -8.566100
N -20.181400 -35.897300 -6.885900
H -20.054000 -33.882100 -9.503200
C -19.719400 -35.602800 -8.169500
C -19.521900 -38.698800 -8.132700
C -19.246000 -37.840800 -9.340300
C -18.737500 -36.447000 -8.905100
O -18.633000 -38.865800 -7.296900
H -18.438000 -38.334700 -9.917600
H -18.429800 -35.922900 -9.814000
H -17.891100 -36.572200 -8.236800
56
Fragment
H -15.769000 -38.891300 -8.950600
H -15.091500 -39.378300 -7.379200
C -14.931600 -38.763800 -8.264500
O -14.845000 -37.416400 -7.861500
H -14.463100 -37.360700 -6.976300
O -14.301500 -38.119000 -10.976100
H -13.826400 -40.213200 -9.388000
C -13.656700 -39.211300 -8.972500
H -13.402000 -33.070400 -7.517300
C -13.379200 -38.295300 -10.147300
H -13.344900 -34.832900 -5.612100
N -12.854300 -33.963200 -7.539800
C -12.796400 -34.888500 -6.557200
H -12.691900 -39.888500 -7.177700
N -12.545000 -39.299500 -8.028500
N -12.203800 -37.722500 -10.270400
H -12.079800 -37.105600 -11.097600
C -12.069100 -34.415400 -8.566100
N -12.019400 -35.897300 -6.885900
H -11.892000 -33.882100 -9.503200
C -11.557400 -35.602800 -8.169500
C -11.359900 -38.698800 -8.132700
C -11.084000 -37.840800 -9.340300
C -10.575500 -36.447000 -8.905100
O -10.471000 -38.865800 -7.296900
H -10.276000 -38.334700 -9.917600
H -10.267800 -35.922900 -9.814000
H -9.729100 -36.572200 -8.236800
H -23.931000 -38.891300 -8.950600
H -23.253500 -39.378300 -7.379200
C -23.093600 -38.763800 -8.264500
O -23.007000 -37.416400 -7.861500
H -22.625100 -37.360700 -6.976300
O -22.463500 -38.119000 -10.976100
H -21.988400 -40.213200 -9.388000
C -21.818700 -39.211300 -8.972500
H -21.564000 -33.070400 -7.517300
C -21.541200 -38.295300 -10.147300
H -21.506900 -34.832900 -5.612100
N -21.016300 -33.963200 -7.539800
C -20.958400 -34.888500 -6.557200
H -20.853900 -39.888500 -7.177700
N -20.707000 -39.299500 -8.028500
N -20.365800 -37.722500 -10.270400
H -20.241800 -37.105600 -11.097600
C -20.231100 -34.415400 -8.566100
N -20.181400 -35.897300 -6.885900
H -20.054000 -33.882100 -9.503200
C -19.719400 -35.602800 -8.169500
C -19.521900 -38.698800 -8.132700
C -19.246000 -37.840800 -9.340300
C -18.737500 -36.447000 -8.905100
O -18.633000 -38.865800 -7.296900
H -18.438000 -38.334700 -9.917600
H -18.429800 -35.922900 -9.814000
H -17.891100 -36.572200 -8.236800
