34
Fragment
H -13.530500 -13.656500 -25.467400
H -13.277100 -14.439300 -24.132700
C -12.869500 -14.106800 -24.935300
H -12.502200 -14.839600 -25.436000
C -11.780000 -13.150900 -24.581100
N -11.763800 -11.883400 -24.924800
H -10.965600 -15.412900 -23.518600
H -10.738600 -9.574400 -24.898600
N -10.702900 -13.476100 -23.872700
C -10.594400 -11.413200 -24.375200
C -10.236400 -14.759300 -23.473200
N -10.227100 -10.137300 -24.495600
H -10.058200 -16.497000 -21.515600
N -9.884600 -12.341000 -23.754100
O -9.804000 -14.592600 -22.109700
H -9.730400 -15.036600 -19.666300
O -9.585500 -15.454600 -25.631900
H -9.460000 -9.885100 -24.200700
C -9.336000 -15.835100 -21.520900
H -9.137600 -17.256900 -23.891900
C -9.056300 -15.229500 -24.322900
H -8.981100 -15.688100 -26.135600
C -8.964800 -15.452500 -20.092000
H -8.749400 -16.257300 -19.594700
C -8.492900 -16.528300 -23.775000
H -8.359600 -14.541500 -24.350800
C -8.136400 -16.370900 -22.313000
O -7.882300 -14.580000 -20.034400
O -7.756700 -17.623900 -21.786100
H -7.508000 -14.339300 -20.758400
H -7.492500 -17.529000 -20.985300
H -7.387100 -15.745500 -22.229200
O -7.294100 -16.809700 -24.478100
H -6.867200 -17.462300 -24.139700
34
Fragment
H -9.656000 -12.403500 -26.873600
H -9.402600 -11.620700 -28.208300
C -8.995000 -11.953200 -27.405700
H -8.627700 -11.220400 -26.905000
C -7.905500 -12.909100 -27.759900
N -7.889300 -14.176600 -27.416200
H -7.091100 -10.647100 -28.822400
H -6.864100 -16.485600 -27.442400
N -6.828400 -12.583900 -28.468300
C -6.719900 -14.646800 -27.965800
C -6.361900 -11.300700 -28.867800
N -6.352600 -15.922700 -27.845400
H -6.183700 -9.563000 -30.825400
N -6.010100 -13.719000 -28.586900
O -5.929500 -11.467400 -30.231300
H -5.855900 -11.023400 -32.674700
O -5.711000 -10.605400 -26.709100
H -5.585500 -16.174900 -28.140300
C -5.461500 -10.224900 -30.820100
H -5.263100 -8.803100 -28.449100
C -5.181800 -10.830500 -28.018100
H -5.106600 -10.371900 -26.205400
C -5.090300 -10.607500 -32.249000
H -4.874900 -9.802700 -32.746300
C -4.618400 -9.531700 -28.566000
H -4.485100 -11.518500 -27.990200
C -4.262000 -9.689100 -30.028000
O -4.007800 -11.480000 -32.306600
O -3.882200 -8.436100 -30.554900
H -3.633500 -11.720700 -31.582600
H -3.618000 -8.531000 -31.355700
H -3.512600 -10.314500 -30.111800
O -3.419600 -9.250300 -27.862900
H -2.992700 -8.597700 -28.201300
68
Fragment
H -13.530500 -13.656500 -25.467400
H -13.277100 -14.439300 -24.132700
C -12.869500 -14.106800 -24.935300
H -12.502200 -14.839600 -25.436000
C -11.780000 -13.150900 -24.581100
N -11.763800 -11.883400 -24.924800
H -10.965600 -15.412900 -23.518600
H -10.738600 -9.574400 -24.898600
N -10.702900 -13.476100 -23.872700
C -10.594400 -11.413200 -24.375200
C -10.236400 -14.759300 -23.473200
N -10.227100 -10.137300 -24.495600
H -10.058200 -16.497000 -21.515600
N -9.884600 -12.341000 -23.754100
O -9.804000 -14.592600 -22.109700
H -9.730400 -15.036600 -19.666300
O -9.585500 -15.454600 -25.631900
H -9.460000 -9.885100 -24.200700
C -9.336000 -15.835100 -21.520900
H -9.137600 -17.256900 -23.891900
C -9.056300 -15.229500 -24.322900
H -8.981100 -15.688100 -26.135600
C -8.964800 -15.452500 -20.092000
H -8.749400 -16.257300 -19.594700
C -8.492900 -16.528300 -23.775000
H -8.359600 -14.541500 -24.350800
C -8.136400 -16.370900 -22.313000
O -7.882300 -14.580000 -20.034400
O -7.756700 -17.623900 -21.786100
H -7.508000 -14.339300 -20.758400
H -7.492500 -17.529000 -20.985300
H -7.387100 -15.745500 -22.229200
O -7.294100 -16.809700 -24.478100
H -6.867200 -17.462300 -24.139700
H -9.656000 -12.403500 -26.873600
H -9.402600 -11.620700 -28.208300
C -8.995000 -11.953200 -27.405700
H -8.627700 -11.220400 -26.905000
C -7.905500 -12.909100 -27.759900
N -7.889300 -14.176600 -27.416200
H -7.091100 -10.647100 -28.822400
H -6.864100 -16.485600 -27.442400
N -6.828400 -12.583900 -28.468300
C -6.719900 -14.646800 -27.965800
C -6.361900 -11.300700 -28.867800
N -6.352600 -15.922700 -27.845400
H -6.183700 -9.563000 -30.825400
N -6.010100 -13.719000 -28.586900
O -5.929500 -11.467400 -30.231300
H -5.855900 -11.023400 -32.674700
O -5.711000 -10.605400 -26.709100
H -5.585500 -16.174900 -28.140300
C -5.461500 -10.224900 -30.820100
H -5.263100 -8.803100 -28.449100
C -5.181800 -10.830500 -28.018100
H -5.106600 -10.371900 -26.205400
C -5.090300 -10.607500 -32.249000
H -4.874900 -9.802700 -32.746300
C -4.618400 -9.531700 -28.566000
H -4.485100 -11.518500 -27.990200
C -4.262000 -9.689100 -30.028000
O -4.007800 -11.480000 -32.306600
O -3.882200 -8.436100 -30.554900
H -3.633500 -11.720700 -31.582600
H -3.618000 -8.531000 -31.355700
H -3.512600 -10.314500 -30.111800
O -3.419600 -9.250300 -27.862900
H -2.992700 -8.597700 -28.201300
