34
Fragment
H -13.530500 -13.656500 -25.467400
H -13.277100 -14.439300 -24.132700
C -12.869500 -14.106800 -24.935300
H -12.502200 -14.839600 -25.436000
C -11.780000 -13.150900 -24.581100
N -11.763800 -11.883400 -24.924800
H -10.965600 -15.412900 -23.518600
H -10.738600 -9.574400 -24.898600
N -10.702900 -13.476100 -23.872700
C -10.594400 -11.413200 -24.375200
C -10.236400 -14.759300 -23.473200
N -10.227100 -10.137300 -24.495600
H -10.058200 -16.497000 -21.515600
N -9.884600 -12.341000 -23.754100
O -9.804000 -14.592600 -22.109700
H -9.730400 -15.036600 -19.666300
O -9.585500 -15.454600 -25.631900
H -9.460000 -9.885100 -24.200700
C -9.336000 -15.835100 -21.520900
H -9.137600 -17.256900 -23.891900
C -9.056300 -15.229500 -24.322900
H -8.981100 -15.688100 -26.135600
C -8.964800 -15.452500 -20.092000
H -8.749400 -16.257300 -19.594700
C -8.492900 -16.528300 -23.775000
H -8.359600 -14.541500 -24.350800
C -8.136400 -16.370900 -22.313000
O -7.882300 -14.580000 -20.034400
O -7.756700 -17.623900 -21.786100
H -7.508000 -14.339300 -20.758400
H -7.492500 -17.529000 -20.985300
H -7.387100 -15.745500 -22.229200
O -7.294100 -16.809700 -24.478100
H -6.867200 -17.462300 -24.139700
34
Fragment
H -16.379800 -12.250300 -19.477800
O -15.952900 -11.597700 -19.139400
H -15.859900 -10.533500 -21.388300
H -15.754500 -12.317000 -22.632200
H -15.739000 -9.127300 -22.859100
O -15.490300 -12.411900 -21.831400
O -15.364700 -9.368000 -23.583100
C -15.110600 -11.158900 -21.304500
H -14.887400 -9.329500 -19.266700
C -14.754100 -11.316300 -19.842500
H -14.497600 -11.045300 -24.022800
C -14.282200 -10.240500 -23.525500
H -14.265900 -10.476100 -17.481900
C -14.190700 -10.017500 -19.294600
H -14.109400 -12.044900 -19.725600
C -13.911000 -10.623100 -22.096600
H -13.787000 -4.673100 -19.416800
O -13.661500 -10.242600 -17.985600
H -13.516600 -9.824600 -23.951200
O -13.443000 -9.380600 -21.507800
N -13.362400 -7.129000 -19.863400
H -13.188800 -11.285000 -22.101900
N -13.019900 -4.925300 -19.121900
C -13.010600 -9.547300 -20.144300
C -12.652600 -6.201200 -19.242300
N -12.544100 -8.264100 -19.744800
H -12.508400 -4.362400 -18.718900
H -12.281400 -10.200900 -20.098900
N -11.483200 -6.671400 -18.692700
C -11.467000 -7.938900 -19.036400
H -10.744800 -9.627600 -18.181500
C -10.377500 -8.894800 -18.682200
H -9.969900 -9.227300 -19.484800
H -9.716500 -8.444500 -18.150100
68
Fragment
H -13.530500 -13.656500 -25.467400
H -13.277100 -14.439300 -24.132700
C -12.869500 -14.106800 -24.935300
H -12.502200 -14.839600 -25.436000
C -11.780000 -13.150900 -24.581100
N -11.763800 -11.883400 -24.924800
H -10.965600 -15.412900 -23.518600
H -10.738600 -9.574400 -24.898600
N -10.702900 -13.476100 -23.872700
C -10.594400 -11.413200 -24.375200
C -10.236400 -14.759300 -23.473200
N -10.227100 -10.137300 -24.495600
H -10.058200 -16.497000 -21.515600
N -9.884600 -12.341000 -23.754100
O -9.804000 -14.592600 -22.109700
H -9.730400 -15.036600 -19.666300
O -9.585500 -15.454600 -25.631900
H -9.460000 -9.885100 -24.200700
C -9.336000 -15.835100 -21.520900
H -9.137600 -17.256900 -23.891900
C -9.056300 -15.229500 -24.322900
H -8.981100 -15.688100 -26.135600
C -8.964800 -15.452500 -20.092000
H -8.749400 -16.257300 -19.594700
C -8.492900 -16.528300 -23.775000
H -8.359600 -14.541500 -24.350800
C -8.136400 -16.370900 -22.313000
O -7.882300 -14.580000 -20.034400
O -7.756700 -17.623900 -21.786100
H -7.508000 -14.339300 -20.758400
H -7.492500 -17.529000 -20.985300
H -7.387100 -15.745500 -22.229200
O -7.294100 -16.809700 -24.478100
H -6.867200 -17.462300 -24.139700
H -16.379800 -12.250300 -19.477800
O -15.952900 -11.597700 -19.139400
H -15.859900 -10.533500 -21.388300
H -15.754500 -12.317000 -22.632200
H -15.739000 -9.127300 -22.859100
O -15.490300 -12.411900 -21.831400
O -15.364700 -9.368000 -23.583100
C -15.110600 -11.158900 -21.304500
H -14.887400 -9.329500 -19.266700
C -14.754100 -11.316300 -19.842500
H -14.497600 -11.045300 -24.022800
C -14.282200 -10.240500 -23.525500
H -14.265900 -10.476100 -17.481900
C -14.190700 -10.017500 -19.294600
H -14.109400 -12.044900 -19.725600
C -13.911000 -10.623100 -22.096600
H -13.787000 -4.673100 -19.416800
O -13.661500 -10.242600 -17.985600
H -13.516600 -9.824600 -23.951200
O -13.443000 -9.380600 -21.507800
N -13.362400 -7.129000 -19.863400
H -13.188800 -11.285000 -22.101900
N -13.019900 -4.925300 -19.121900
C -13.010600 -9.547300 -20.144300
C -12.652600 -6.201200 -19.242300
N -12.544100 -8.264100 -19.744800
H -12.508400 -4.362400 -18.718900
H -12.281400 -10.200900 -20.098900
N -11.483200 -6.671400 -18.692700
C -11.467000 -7.938900 -19.036400
H -10.744800 -9.627600 -18.181500
C -10.377500 -8.894800 -18.682200
H -9.969900 -9.227300 -19.484800
H -9.716500 -8.444500 -18.150100
