34
Fragment
H -13.530500 -13.656500 -25.467400
H -13.277100 -14.439300 -24.132700
C -12.869500 -14.106800 -24.935300
H -12.502200 -14.839600 -25.436000
C -11.780000 -13.150900 -24.581100
N -11.763800 -11.883400 -24.924800
H -10.965600 -15.412900 -23.518600
H -10.738600 -9.574400 -24.898600
N -10.702900 -13.476100 -23.872700
C -10.594400 -11.413200 -24.375200
C -10.236400 -14.759300 -23.473200
N -10.227100 -10.137300 -24.495600
H -10.058200 -16.497000 -21.515600
N -9.884600 -12.341000 -23.754100
O -9.804000 -14.592600 -22.109700
H -9.730400 -15.036600 -19.666300
O -9.585500 -15.454600 -25.631900
H -9.460000 -9.885100 -24.200700
C -9.336000 -15.835100 -21.520900
H -9.137600 -17.256900 -23.891900
C -9.056300 -15.229500 -24.322900
H -8.981100 -15.688100 -26.135600
C -8.964800 -15.452500 -20.092000
H -8.749400 -16.257300 -19.594700
C -8.492900 -16.528300 -23.775000
H -8.359600 -14.541500 -24.350800
C -8.136400 -16.370900 -22.313000
O -7.882300 -14.580000 -20.034400
O -7.756700 -17.623900 -21.786100
H -7.508000 -14.339300 -20.758400
H -7.492500 -17.529000 -20.985300
H -7.387100 -15.745500 -22.229200
O -7.294100 -16.809700 -24.478100
H -6.867200 -17.462300 -24.139700
34
Fragment
H -12.505300 -13.809700 -15.416200
O -12.078400 -14.462300 -15.754600
H -11.985400 -15.526500 -13.505700
H -11.880000 -13.743000 -12.261800
H -11.864500 -16.932700 -12.034900
O -11.615800 -13.648100 -13.062600
O -11.490200 -16.692000 -11.310900
C -11.236000 -14.901100 -13.589500
H -11.012900 -16.730500 -15.627300
C -10.879600 -14.743700 -15.051500
H -10.623100 -15.014700 -10.871200
C -10.407700 -15.819500 -11.368500
H -10.391400 -15.583900 -17.412100
C -10.316200 -16.042500 -15.599400
H -10.234900 -14.015100 -15.168400
C -10.036500 -15.436900 -12.797400
H -9.912500 -21.386900 -15.477200
O -9.787000 -15.817400 -16.908400
H -9.642100 -16.235400 -10.942800
O -9.568500 -16.679400 -13.386200
N -9.487900 -18.931000 -15.030600
H -9.314300 -14.775000 -12.792100
N -9.145400 -21.134700 -15.772100
C -9.136100 -16.512700 -14.749700
C -8.778100 -19.858800 -15.651700
N -8.669600 -17.795900 -15.149200
H -8.633900 -21.697600 -16.175100
H -8.406900 -15.859100 -14.795100
N -7.608700 -19.388600 -16.201300
C -7.592500 -18.121100 -15.857600
H -6.870300 -16.432400 -16.712500
C -6.503000 -17.165200 -16.211800
H -6.095400 -16.832700 -15.409200
H -5.842000 -17.615500 -16.743900
68
Fragment
H -13.530500 -13.656500 -25.467400
H -13.277100 -14.439300 -24.132700
C -12.869500 -14.106800 -24.935300
H -12.502200 -14.839600 -25.436000
C -11.780000 -13.150900 -24.581100
N -11.763800 -11.883400 -24.924800
H -10.965600 -15.412900 -23.518600
H -10.738600 -9.574400 -24.898600
N -10.702900 -13.476100 -23.872700
C -10.594400 -11.413200 -24.375200
C -10.236400 -14.759300 -23.473200
N -10.227100 -10.137300 -24.495600
H -10.058200 -16.497000 -21.515600
N -9.884600 -12.341000 -23.754100
O -9.804000 -14.592600 -22.109700
H -9.730400 -15.036600 -19.666300
O -9.585500 -15.454600 -25.631900
H -9.460000 -9.885100 -24.200700
C -9.336000 -15.835100 -21.520900
H -9.137600 -17.256900 -23.891900
C -9.056300 -15.229500 -24.322900
H -8.981100 -15.688100 -26.135600
C -8.964800 -15.452500 -20.092000
H -8.749400 -16.257300 -19.594700
C -8.492900 -16.528300 -23.775000
H -8.359600 -14.541500 -24.350800
C -8.136400 -16.370900 -22.313000
O -7.882300 -14.580000 -20.034400
O -7.756700 -17.623900 -21.786100
H -7.508000 -14.339300 -20.758400
H -7.492500 -17.529000 -20.985300
H -7.387100 -15.745500 -22.229200
O -7.294100 -16.809700 -24.478100
H -6.867200 -17.462300 -24.139700
H -12.505300 -13.809700 -15.416200
O -12.078400 -14.462300 -15.754600
H -11.985400 -15.526500 -13.505700
H -11.880000 -13.743000 -12.261800
H -11.864500 -16.932700 -12.034900
O -11.615800 -13.648100 -13.062600
O -11.490200 -16.692000 -11.310900
C -11.236000 -14.901100 -13.589500
H -11.012900 -16.730500 -15.627300
C -10.879600 -14.743700 -15.051500
H -10.623100 -15.014700 -10.871200
C -10.407700 -15.819500 -11.368500
H -10.391400 -15.583900 -17.412100
C -10.316200 -16.042500 -15.599400
H -10.234900 -14.015100 -15.168400
C -10.036500 -15.436900 -12.797400
H -9.912500 -21.386900 -15.477200
O -9.787000 -15.817400 -16.908400
H -9.642100 -16.235400 -10.942800
O -9.568500 -16.679400 -13.386200
N -9.487900 -18.931000 -15.030600
H -9.314300 -14.775000 -12.792100
N -9.145400 -21.134700 -15.772100
C -9.136100 -16.512700 -14.749700
C -8.778100 -19.858800 -15.651700
N -8.669600 -17.795900 -15.149200
H -8.633900 -21.697600 -16.175100
H -8.406900 -15.859100 -14.795100
N -7.608700 -19.388600 -16.201300
C -7.592500 -18.121100 -15.857600
H -6.870300 -16.432400 -16.712500
C -6.503000 -17.165200 -16.211800
H -6.095400 -16.832700 -15.409200
H -5.842000 -17.615500 -16.743900
