17
Fragment
H -27.374200 -3.483400 -36.686500
H -27.207100 -3.579600 -38.164100
N -26.908000 -3.720200 -37.370600
C -25.727200 -4.303300 -37.199400
N -25.135700 -4.585100 -36.063300
O -25.049900 -4.693700 -38.280500
H -24.697700 -5.614200 -33.450100
N -24.005900 -5.117100 -33.325900
C -23.979000 -5.186100 -36.487300
N -23.839300 -5.303000 -37.786200
H -23.741700 -5.191200 -32.510400
C -23.014600 -5.523100 -34.163700
C -22.971700 -5.614900 -35.543000
N -21.817100 -5.993300 -33.768100
N -21.768700 -6.120400 -35.911000
H -21.436100 -6.064100 -32.991200
N -21.068200 -6.356100 -34.839500
3
Fragment
H -28.105000 -5.591700 -34.673100
O -27.380400 -6.034700 -34.649800
H -26.749000 -5.530300 -34.844300
20
Fragment
H -27.374200 -3.483400 -36.686500
H -27.207100 -3.579600 -38.164100
N -26.908000 -3.720200 -37.370600
C -25.727200 -4.303300 -37.199400
N -25.135700 -4.585100 -36.063300
O -25.049900 -4.693700 -38.280500
H -24.697700 -5.614200 -33.450100
N -24.005900 -5.117100 -33.325900
C -23.979000 -5.186100 -36.487300
N -23.839300 -5.303000 -37.786200
H -23.741700 -5.191200 -32.510400
C -23.014600 -5.523100 -34.163700
C -22.971700 -5.614900 -35.543000
N -21.817100 -5.993300 -33.768100
N -21.768700 -6.120400 -35.911000
H -21.436100 -6.064100 -32.991200
N -21.068200 -6.356100 -34.839500
H -28.105000 -5.591700 -34.673100
O -27.380400 -6.034700 -34.649800
H -26.749000 -5.530300 -34.844300
