17
Fragment
H -27.374200 -3.483400 -36.686500
H -27.207100 -3.579600 -38.164100
N -26.908000 -3.720200 -37.370600
C -25.727200 -4.303300 -37.199400
N -25.135700 -4.585100 -36.063300
O -25.049900 -4.693700 -38.280500
H -24.697700 -5.614200 -33.450100
N -24.005900 -5.117100 -33.325900
C -23.979000 -5.186100 -36.487300
N -23.839300 -5.303000 -37.786200
H -23.741700 -5.191200 -32.510400
C -23.014600 -5.523100 -34.163700
C -22.971700 -5.614900 -35.543000
N -21.817100 -5.993300 -33.768100
N -21.768700 -6.120400 -35.911000
H -21.436100 -6.064100 -32.991200
N -21.068200 -6.356100 -34.839500
17
Fragment
H -24.496000 -4.201300 -28.578100
N -24.145400 -3.454400 -30.374500
N -23.900000 -3.874900 -29.105900
N -23.022100 -3.033500 -30.864100
C -22.604800 -3.713300 -28.784900
H -22.423700 -4.724900 -27.276100
C -22.049400 -3.175100 -29.928200
N -22.042700 -4.024800 -27.598400
H -21.204700 -4.181300 -27.713000
C -20.678400 -2.794600 -30.150600
N -20.218400 -2.312000 -31.355100
N -19.780500 -2.888300 -29.212400
C -18.947600 -2.095600 -31.102800
O -18.584400 -2.419800 -29.852600
H -18.198400 -1.401600 -32.710200
N -18.006900 -1.617700 -31.901100
H -17.202500 -1.523300 -31.610200
34
Fragment
H -27.374200 -3.483400 -36.686500
H -27.207100 -3.579600 -38.164100
N -26.908000 -3.720200 -37.370600
C -25.727200 -4.303300 -37.199400
N -25.135700 -4.585100 -36.063300
O -25.049900 -4.693700 -38.280500
H -24.697700 -5.614200 -33.450100
N -24.005900 -5.117100 -33.325900
C -23.979000 -5.186100 -36.487300
N -23.839300 -5.303000 -37.786200
H -23.741700 -5.191200 -32.510400
C -23.014600 -5.523100 -34.163700
C -22.971700 -5.614900 -35.543000
N -21.817100 -5.993300 -33.768100
N -21.768700 -6.120400 -35.911000
H -21.436100 -6.064100 -32.991200
N -21.068200 -6.356100 -34.839500
H -24.496000 -4.201300 -28.578100
N -24.145400 -3.454400 -30.374500
N -23.900000 -3.874900 -29.105900
N -23.022100 -3.033500 -30.864100
C -22.604800 -3.713300 -28.784900
H -22.423700 -4.724900 -27.276100
C -22.049400 -3.175100 -29.928200
N -22.042700 -4.024800 -27.598400
H -21.204700 -4.181300 -27.713000
C -20.678400 -2.794600 -30.150600
N -20.218400 -2.312000 -31.355100
N -19.780500 -2.888300 -29.212400
C -18.947600 -2.095600 -31.102800
O -18.584400 -2.419800 -29.852600
H -18.198400 -1.401600 -32.710200
N -18.006900 -1.617700 -31.901100
H -17.202500 -1.523300 -31.610200
