17
Fragment
H -27.374200 -3.483400 -36.686500
H -27.207100 -3.579600 -38.164100
N -26.908000 -3.720200 -37.370600
C -25.727200 -4.303300 -37.199400
N -25.135700 -4.585100 -36.063300
O -25.049900 -4.693700 -38.280500
H -24.697700 -5.614200 -33.450100
N -24.005900 -5.117100 -33.325900
C -23.979000 -5.186100 -36.487300
N -23.839300 -5.303000 -37.786200
H -23.741700 -5.191200 -32.510400
C -23.014600 -5.523100 -34.163700
C -22.971700 -5.614900 -35.543000
N -21.817100 -5.993300 -33.768100
N -21.768700 -6.120400 -35.911000
H -21.436100 -6.064100 -32.991200
N -21.068200 -6.356100 -34.839500
17
Fragment
H -32.048000 -1.245500 -39.556100
N -31.697400 -1.992400 -41.352600
N -31.452100 -1.571900 -40.083900
N -30.574200 -2.413300 -41.842200
C -30.156800 -1.733500 -39.762900
H -29.975700 -0.721900 -38.254100
C -29.601400 -2.271700 -40.906200
N -29.594700 -1.422000 -38.576400
H -28.756800 -1.265500 -38.691100
C -28.230400 -2.652200 -41.128600
N -27.770400 -3.134800 -42.333100
N -27.332500 -2.558500 -40.190400
C -26.499600 -3.351200 -42.080900
O -26.136400 -3.027000 -40.830700
H -25.750400 -4.045200 -43.688300
N -25.559000 -3.829100 -42.879200
H -24.754500 -3.923500 -42.588300
34
Fragment
H -27.374200 -3.483400 -36.686500
H -27.207100 -3.579600 -38.164100
N -26.908000 -3.720200 -37.370600
C -25.727200 -4.303300 -37.199400
N -25.135700 -4.585100 -36.063300
O -25.049900 -4.693700 -38.280500
H -24.697700 -5.614200 -33.450100
N -24.005900 -5.117100 -33.325900
C -23.979000 -5.186100 -36.487300
N -23.839300 -5.303000 -37.786200
H -23.741700 -5.191200 -32.510400
C -23.014600 -5.523100 -34.163700
C -22.971700 -5.614900 -35.543000
N -21.817100 -5.993300 -33.768100
N -21.768700 -6.120400 -35.911000
H -21.436100 -6.064100 -32.991200
N -21.068200 -6.356100 -34.839500
H -32.048000 -1.245500 -39.556100
N -31.697400 -1.992400 -41.352600
N -31.452100 -1.571900 -40.083900
N -30.574200 -2.413300 -41.842200
C -30.156800 -1.733500 -39.762900
H -29.975700 -0.721900 -38.254100
C -29.601400 -2.271700 -40.906200
N -29.594700 -1.422000 -38.576400
H -28.756800 -1.265500 -38.691100
C -28.230400 -2.652200 -41.128600
N -27.770400 -3.134800 -42.333100
N -27.332500 -2.558500 -40.190400
C -26.499600 -3.351200 -42.080900
O -26.136400 -3.027000 -40.830700
H -25.750400 -4.045200 -43.688300
N -25.559000 -3.829100 -42.879200
H -24.754500 -3.923500 -42.588300
