17
Fragment
H -27.374200 -3.483400 -36.686500
H -27.207100 -3.579600 -38.164100
N -26.908000 -3.720200 -37.370600
C -25.727200 -4.303300 -37.199400
N -25.135700 -4.585100 -36.063300
O -25.049900 -4.693700 -38.280500
H -24.697700 -5.614200 -33.450100
N -24.005900 -5.117100 -33.325900
C -23.979000 -5.186100 -36.487300
N -23.839300 -5.303000 -37.786200
H -23.741700 -5.191200 -32.510400
C -23.014600 -5.523100 -34.163700
C -22.971700 -5.614900 -35.543000
N -21.817100 -5.993300 -33.768100
N -21.768700 -6.120400 -35.911000
H -21.436100 -6.064100 -32.991200
N -21.068200 -6.356100 -34.839500
17
Fragment
H -36.167900 -1.667800 -36.686500
H -36.000800 -1.764000 -38.164100
N -35.701700 -1.904600 -37.370600
C -34.520900 -2.487700 -37.199400
N -33.929400 -2.769500 -36.063300
O -33.843600 -2.878100 -38.280500
H -33.491400 -3.798600 -33.450100
N -32.799600 -3.301500 -33.325900
C -32.772700 -3.370500 -36.487300
N -32.633000 -3.487400 -37.786200
H -32.535400 -3.375600 -32.510400
C -31.808300 -3.707500 -34.163700
C -31.765400 -3.799300 -35.543000
N -30.610800 -4.177700 -33.768100
N -30.562400 -4.304800 -35.911000
H -30.229800 -4.248500 -32.991200
N -29.861900 -4.540500 -34.839500
34
Fragment
H -27.374200 -3.483400 -36.686500
H -27.207100 -3.579600 -38.164100
N -26.908000 -3.720200 -37.370600
C -25.727200 -4.303300 -37.199400
N -25.135700 -4.585100 -36.063300
O -25.049900 -4.693700 -38.280500
H -24.697700 -5.614200 -33.450100
N -24.005900 -5.117100 -33.325900
C -23.979000 -5.186100 -36.487300
N -23.839300 -5.303000 -37.786200
H -23.741700 -5.191200 -32.510400
C -23.014600 -5.523100 -34.163700
C -22.971700 -5.614900 -35.543000
N -21.817100 -5.993300 -33.768100
N -21.768700 -6.120400 -35.911000
H -21.436100 -6.064100 -32.991200
N -21.068200 -6.356100 -34.839500
H -36.167900 -1.667800 -36.686500
H -36.000800 -1.764000 -38.164100
N -35.701700 -1.904600 -37.370600
C -34.520900 -2.487700 -37.199400
N -33.929400 -2.769500 -36.063300
O -33.843600 -2.878100 -38.280500
H -33.491400 -3.798600 -33.450100
N -32.799600 -3.301500 -33.325900
C -32.772700 -3.370500 -36.487300
N -32.633000 -3.487400 -37.786200
H -32.535400 -3.375600 -32.510400
C -31.808300 -3.707500 -34.163700
C -31.765400 -3.799300 -35.543000
N -30.610800 -4.177700 -33.768100
N -30.562400 -4.304800 -35.911000
H -30.229800 -4.248500 -32.991200
N -29.861900 -4.540500 -34.839500
