12
Fragment
H -5.922700 -23.729200 -35.877500
H -5.826200 -22.542900 -36.945200
H -5.629500 -22.813000 -33.602600
C -5.321000 -23.085500 -36.305300
N -4.735900 -22.219700 -35.291500
C -4.711500 -22.681800 -33.919200
H -4.607900 -23.566800 -36.776000
H -4.263600 -22.015100 -33.357900
H -4.224700 -23.531400 -33.870100
C -4.217400 -21.041500 -35.631700
O -4.187900 -20.597700 -36.774700
H -3.844100 -20.507500 -34.940100
28
Fragment
O -4.751100 -17.671900 -41.543300
N -4.020100 -16.885600 -40.955300
N -3.951200 -18.371100 -39.074800
O -3.617700 -15.822600 -41.414400
C -3.600600 -17.225800 -39.607200
H -3.423600 -18.867500 -37.205900
N -3.386800 -18.258700 -37.840300
N -2.879400 -16.371900 -38.872400
C -2.762000 -17.065000 -37.742000
N -2.501800 -18.322900 -35.208100
N -2.315100 -18.859800 -34.014400
N -2.084300 -16.547700 -36.670000
C -1.919100 -17.134900 -35.455900
H -1.765300 -19.550700 -31.812400
H -1.718600 -15.755300 -36.778300
C -1.564700 -18.171100 -33.134800
N -1.399600 -18.758300 -31.920700
N -1.168700 -16.446200 -34.576300
N -0.982000 -16.983100 -33.382600
C -0.721800 -18.241000 -30.848700
N -0.604500 -18.934100 -29.718300
N -0.097000 -17.047300 -30.750400
H -0.060300 -16.438500 -31.384800
C 0.116800 -18.080200 -28.983500
O 0.133900 -19.483400 -27.176300
N 0.467300 -16.934900 -29.516000
N 0.536300 -18.420400 -27.635400
O 1.267300 -17.634100 -27.047400
40
Fragment
H -5.922700 -23.729200 -35.877500
H -5.826200 -22.542900 -36.945200
H -5.629500 -22.813000 -33.602600
C -5.321000 -23.085500 -36.305300
N -4.735900 -22.219700 -35.291500
C -4.711500 -22.681800 -33.919200
H -4.607900 -23.566800 -36.776000
H -4.263600 -22.015100 -33.357900
H -4.224700 -23.531400 -33.870100
C -4.217400 -21.041500 -35.631700
O -4.187900 -20.597700 -36.774700
H -3.844100 -20.507500 -34.940100
O -4.751100 -17.671900 -41.543300
N -4.020100 -16.885600 -40.955300
N -3.951200 -18.371100 -39.074800
O -3.617700 -15.822600 -41.414400
C -3.600600 -17.225800 -39.607200
H -3.423600 -18.867500 -37.205900
N -3.386800 -18.258700 -37.840300
N -2.879400 -16.371900 -38.872400
C -2.762000 -17.065000 -37.742000
N -2.501800 -18.322900 -35.208100
N -2.315100 -18.859800 -34.014400
N -2.084300 -16.547700 -36.670000
C -1.919100 -17.134900 -35.455900
H -1.765300 -19.550700 -31.812400
H -1.718600 -15.755300 -36.778300
C -1.564700 -18.171100 -33.134800
N -1.399600 -18.758300 -31.920700
N -1.168700 -16.446200 -34.576300
N -0.982000 -16.983100 -33.382600
C -0.721800 -18.241000 -30.848700
N -0.604500 -18.934100 -29.718300
N -0.097000 -17.047300 -30.750400
H -0.060300 -16.438500 -31.384800
C 0.116800 -18.080200 -28.983500
O 0.133900 -19.483400 -27.176300
N 0.467300 -16.934900 -29.516000
N 0.536300 -18.420400 -27.635400
O 1.267300 -17.634100 -27.047400
