12
Fragment
H -5.922700 -23.729200 -35.877500
H -5.826200 -22.542900 -36.945200
H -5.629500 -22.813000 -33.602600
C -5.321000 -23.085500 -36.305300
N -4.735900 -22.219700 -35.291500
C -4.711500 -22.681800 -33.919200
H -4.607900 -23.566800 -36.776000
H -4.263600 -22.015100 -33.357900
H -4.224700 -23.531400 -33.870100
C -4.217400 -21.041500 -35.631700
O -4.187900 -20.597700 -36.774700
H -3.844100 -20.507500 -34.940100
12
Fragment
H -2.090400 -23.729200 -35.877500
H -1.993900 -22.542900 -36.945200
H -1.797200 -22.813000 -33.602600
C -1.488700 -23.085500 -36.305300
N -0.903600 -22.219700 -35.291500
C -0.879200 -22.681800 -33.919200
H -0.775600 -23.566800 -36.776000
H -0.431300 -22.015100 -33.357900
H -0.392400 -23.531400 -33.870100
C -0.385100 -21.041500 -35.631700
O -0.355600 -20.597700 -36.774700
H -0.011800 -20.507500 -34.940100
24
Fragment
H -5.922700 -23.729200 -35.877500
H -5.826200 -22.542900 -36.945200
H -5.629500 -22.813000 -33.602600
C -5.321000 -23.085500 -36.305300
N -4.735900 -22.219700 -35.291500
C -4.711500 -22.681800 -33.919200
H -4.607900 -23.566800 -36.776000
H -4.263600 -22.015100 -33.357900
H -4.224700 -23.531400 -33.870100
C -4.217400 -21.041500 -35.631700
O -4.187900 -20.597700 -36.774700
H -3.844100 -20.507500 -34.940100
H -2.090400 -23.729200 -35.877500
H -1.993900 -22.542900 -36.945200
H -1.797200 -22.813000 -33.602600
C -1.488700 -23.085500 -36.305300
N -0.903600 -22.219700 -35.291500
C -0.879200 -22.681800 -33.919200
H -0.775600 -23.566800 -36.776000
H -0.431300 -22.015100 -33.357900
H -0.392400 -23.531400 -33.870100
C -0.385100 -21.041500 -35.631700
O -0.355600 -20.597700 -36.774700
H -0.011800 -20.507500 -34.940100
