12
Fragment
H -5.922700 -23.729200 -35.877500
H -5.826200 -22.542900 -36.945200
H -5.629500 -22.813000 -33.602600
C -5.321000 -23.085500 -36.305300
N -4.735900 -22.219700 -35.291500
C -4.711500 -22.681800 -33.919200
H -4.607900 -23.566800 -36.776000
H -4.263600 -22.015100 -33.357900
H -4.224700 -23.531400 -33.870100
C -4.217400 -21.041500 -35.631700
O -4.187900 -20.597700 -36.774700
H -3.844100 -20.507500 -34.940100
28
Fragment
O -11.718900 -26.460600 -52.975100
N -10.987900 -27.246900 -52.387100
N -10.919000 -25.761400 -50.506500
O -10.585500 -28.309900 -52.846200
C -10.568400 -26.906700 -51.039000
H -10.391400 -25.265000 -48.637700
N -10.354600 -25.873800 -49.272100
N -9.847200 -27.760600 -50.304200
C -9.729800 -27.067500 -49.173800
N -9.469600 -25.809600 -46.639800
N -9.282900 -25.272700 -45.446100
N -9.052100 -27.584800 -48.101700
C -8.886900 -26.997600 -46.887700
H -8.733100 -24.581800 -43.244200
H -8.686400 -28.377200 -48.210100
C -8.532500 -25.961400 -44.566600
N -8.367400 -25.374200 -43.352500
N -8.136500 -27.686300 -46.008100
N -7.949800 -27.149400 -44.814400
C -7.689600 -25.891500 -42.280500
N -7.572300 -25.198400 -41.150100
N -7.064800 -27.085200 -42.182100
H -7.028100 -27.694000 -42.816600
C -6.851000 -26.052300 -40.415200
O -6.833900 -24.649100 -38.608100
N -6.500500 -27.197600 -40.947700
N -6.431500 -25.712100 -39.067200
O -5.700500 -26.498400 -38.479200
40
Fragment
H -5.922700 -23.729200 -35.877500
H -5.826200 -22.542900 -36.945200
H -5.629500 -22.813000 -33.602600
C -5.321000 -23.085500 -36.305300
N -4.735900 -22.219700 -35.291500
C -4.711500 -22.681800 -33.919200
H -4.607900 -23.566800 -36.776000
H -4.263600 -22.015100 -33.357900
H -4.224700 -23.531400 -33.870100
C -4.217400 -21.041500 -35.631700
O -4.187900 -20.597700 -36.774700
H -3.844100 -20.507500 -34.940100
O -11.718900 -26.460600 -52.975100
N -10.987900 -27.246900 -52.387100
N -10.919000 -25.761400 -50.506500
O -10.585500 -28.309900 -52.846200
C -10.568400 -26.906700 -51.039000
H -10.391400 -25.265000 -48.637700
N -10.354600 -25.873800 -49.272100
N -9.847200 -27.760600 -50.304200
C -9.729800 -27.067500 -49.173800
N -9.469600 -25.809600 -46.639800
N -9.282900 -25.272700 -45.446100
N -9.052100 -27.584800 -48.101700
C -8.886900 -26.997600 -46.887700
H -8.733100 -24.581800 -43.244200
H -8.686400 -28.377200 -48.210100
C -8.532500 -25.961400 -44.566600
N -8.367400 -25.374200 -43.352500
N -8.136500 -27.686300 -46.008100
N -7.949800 -27.149400 -44.814400
C -7.689600 -25.891500 -42.280500
N -7.572300 -25.198400 -41.150100
N -7.064800 -27.085200 -42.182100
H -7.028100 -27.694000 -42.816600
C -6.851000 -26.052300 -40.415200
O -6.833900 -24.649100 -38.608100
N -6.500500 -27.197600 -40.947700
N -6.431500 -25.712100 -39.067200
O -5.700500 -26.498400 -38.479200
