12
Fragment
H -5.922700 -23.729200 -35.877500
H -5.826200 -22.542900 -36.945200
H -5.629500 -22.813000 -33.602600
C -5.321000 -23.085500 -36.305300
N -4.735900 -22.219700 -35.291500
C -4.711500 -22.681800 -33.919200
H -4.607900 -23.566800 -36.776000
H -4.263600 -22.015100 -33.357900
H -4.224700 -23.531400 -33.870100
C -4.217400 -21.041500 -35.631700
O -4.187900 -20.597700 -36.774700
H -3.844100 -20.507500 -34.940100
12
Fragment
H -3.683200 -20.131500 -41.440200
H -3.231200 -20.922300 -42.757200
H -3.143700 -21.222400 -39.281900
C -2.923300 -20.532900 -41.911400
N -2.335600 -21.574600 -41.084500
H -2.251500 -19.843700 -42.094100
C -2.243500 -21.333700 -39.653200
O -1.839600 -22.942000 -42.840800
C -1.839200 -22.681500 -41.627500
H -1.803400 -22.096300 -39.222500
H -1.721400 -20.519800 -39.492200
H -1.454200 -23.321400 -41.040100
24
Fragment
H -5.922700 -23.729200 -35.877500
H -5.826200 -22.542900 -36.945200
H -5.629500 -22.813000 -33.602600
C -5.321000 -23.085500 -36.305300
N -4.735900 -22.219700 -35.291500
C -4.711500 -22.681800 -33.919200
H -4.607900 -23.566800 -36.776000
H -4.263600 -22.015100 -33.357900
H -4.224700 -23.531400 -33.870100
C -4.217400 -21.041500 -35.631700
O -4.187900 -20.597700 -36.774700
H -3.844100 -20.507500 -34.940100
H -3.683200 -20.131500 -41.440200
H -3.231200 -20.922300 -42.757200
H -3.143700 -21.222400 -39.281900
C -2.923300 -20.532900 -41.911400
N -2.335600 -21.574600 -41.084500
H -2.251500 -19.843700 -42.094100
C -2.243500 -21.333700 -39.653200
O -1.839600 -22.942000 -42.840800
C -1.839200 -22.681500 -41.627500
H -1.803400 -22.096300 -39.222500
H -1.721400 -20.519800 -39.492200
H -1.454200 -23.321400 -41.040100
