12
Fragment
H -5.922700 -23.729200 -35.877500
H -5.826200 -22.542900 -36.945200
H -5.629500 -22.813000 -33.602600
C -5.321000 -23.085500 -36.305300
N -4.735900 -22.219700 -35.291500
C -4.711500 -22.681800 -33.919200
H -4.607900 -23.566800 -36.776000
H -4.263600 -22.015100 -33.357900
H -4.224700 -23.531400 -33.870100
C -4.217400 -21.041500 -35.631700
O -4.187900 -20.597700 -36.774700
H -3.844100 -20.507500 -34.940100
28
Fragment
O -7.886600 -26.460600 -52.975100
N -7.155600 -27.246900 -52.387100
N -7.086700 -25.761400 -50.506500
O -6.753200 -28.309900 -52.846200
C -6.736100 -26.906700 -51.039000
H -6.559100 -25.265000 -48.637700
N -6.522300 -25.873800 -49.272100
N -6.014900 -27.760600 -50.304200
C -5.897500 -27.067500 -49.173800
N -5.637300 -25.809600 -46.639800
N -5.450600 -25.272700 -45.446100
N -5.219800 -27.584800 -48.101700
C -5.054600 -26.997600 -46.887700
H -4.900800 -24.581800 -43.244200
H -4.854100 -28.377200 -48.210100
C -4.700200 -25.961400 -44.566600
N -4.535100 -25.374200 -43.352500
N -4.304200 -27.686300 -46.008100
N -4.117500 -27.149400 -44.814400
C -3.857300 -25.891500 -42.280500
N -3.740000 -25.198400 -41.150100
N -3.232500 -27.085200 -42.182100
H -3.195800 -27.694000 -42.816600
C -3.018700 -26.052300 -40.415200
O -3.001600 -24.649100 -38.608100
N -2.668200 -27.197600 -40.947700
N -2.599200 -25.712100 -39.067200
O -1.868200 -26.498400 -38.479200
40
Fragment
H -5.922700 -23.729200 -35.877500
H -5.826200 -22.542900 -36.945200
H -5.629500 -22.813000 -33.602600
C -5.321000 -23.085500 -36.305300
N -4.735900 -22.219700 -35.291500
C -4.711500 -22.681800 -33.919200
H -4.607900 -23.566800 -36.776000
H -4.263600 -22.015100 -33.357900
H -4.224700 -23.531400 -33.870100
C -4.217400 -21.041500 -35.631700
O -4.187900 -20.597700 -36.774700
H -3.844100 -20.507500 -34.940100
O -7.886600 -26.460600 -52.975100
N -7.155600 -27.246900 -52.387100
N -7.086700 -25.761400 -50.506500
O -6.753200 -28.309900 -52.846200
C -6.736100 -26.906700 -51.039000
H -6.559100 -25.265000 -48.637700
N -6.522300 -25.873800 -49.272100
N -6.014900 -27.760600 -50.304200
C -5.897500 -27.067500 -49.173800
N -5.637300 -25.809600 -46.639800
N -5.450600 -25.272700 -45.446100
N -5.219800 -27.584800 -48.101700
C -5.054600 -26.997600 -46.887700
H -4.900800 -24.581800 -43.244200
H -4.854100 -28.377200 -48.210100
C -4.700200 -25.961400 -44.566600
N -4.535100 -25.374200 -43.352500
N -4.304200 -27.686300 -46.008100
N -4.117500 -27.149400 -44.814400
C -3.857300 -25.891500 -42.280500
N -3.740000 -25.198400 -41.150100
N -3.232500 -27.085200 -42.182100
H -3.195800 -27.694000 -42.816600
C -3.018700 -26.052300 -40.415200
O -3.001600 -24.649100 -38.608100
N -2.668200 -27.197600 -40.947700
N -2.599200 -25.712100 -39.067200
O -1.868200 -26.498400 -38.479200
