22
Fragment
H -12.029200 -30.362200 -19.579000
H -11.767200 -29.604800 -18.194100
C -11.327800 -29.962500 -19.006000
H -10.717600 -29.832600 -21.516800
N -10.685600 -28.854400 -19.733600
H -10.395600 -31.947700 -20.432200
N -10.365000 -31.018800 -18.610300
H -10.050000 -27.926000 -18.036700
C -10.027600 -29.434400 -20.929300
H -9.722200 -30.039800 -16.936800
C -9.711500 -31.529900 -19.851000
C -9.629900 -28.295300 -18.853400
H -9.580300 -28.710300 -21.435200
C -9.310600 -30.391300 -17.765900
H -9.175100 -27.552100 -19.323700
H -9.050600 -32.226100 -19.609100
N -9.038800 -30.460800 -20.588700
H -8.645800 -31.078000 -17.509100
N -8.633700 -29.301700 -18.468700
C -8.033000 -29.852800 -19.698200
H -7.565000 -29.128100 -20.184000
H -7.360800 -30.537100 -19.452600
24
Fragment
H -17.067700 -26.004700 -21.408000
H -16.792700 -26.826900 -22.753200
H -16.486800 -21.399100 -19.089500
C -16.447200 -26.131000 -22.155900
H -16.357400 -25.290100 -22.651300
O -16.206000 -22.117000 -19.423800
H -15.941600 -24.158100 -20.721400
O -15.161400 -26.528800 -21.649900
C -15.090900 -24.430400 -20.397900
C -14.980300 -22.354700 -18.990400
C -14.549200 -25.648900 -20.794700
O -14.406000 -21.643500 -18.187400
C -14.379800 -23.612500 -19.524300
C -13.292500 -26.055100 -20.319600
C -13.117700 -23.986000 -19.065000
O -12.814100 -27.263400 -20.702000
H -12.631700 -23.415700 -18.481000
C -12.578200 -25.198400 -19.469300
H -12.059500 -27.388400 -20.354800
O -11.353500 -25.682700 -19.091600
H -11.170400 -24.844800 -17.296100
C -10.639500 -24.907200 -18.117200
H -10.477200 -24.007700 -18.470700
H -9.782300 -25.339800 -17.919800
46
Fragment
H -12.029200 -30.362200 -19.579000
H -11.767200 -29.604800 -18.194100
C -11.327800 -29.962500 -19.006000
H -10.717600 -29.832600 -21.516800
N -10.685600 -28.854400 -19.733600
H -10.395600 -31.947700 -20.432200
N -10.365000 -31.018800 -18.610300
H -10.050000 -27.926000 -18.036700
C -10.027600 -29.434400 -20.929300
H -9.722200 -30.039800 -16.936800
C -9.711500 -31.529900 -19.851000
C -9.629900 -28.295300 -18.853400
H -9.580300 -28.710300 -21.435200
C -9.310600 -30.391300 -17.765900
H -9.175100 -27.552100 -19.323700
H -9.050600 -32.226100 -19.609100
N -9.038800 -30.460800 -20.588700
H -8.645800 -31.078000 -17.509100
N -8.633700 -29.301700 -18.468700
C -8.033000 -29.852800 -19.698200
H -7.565000 -29.128100 -20.184000
H -7.360800 -30.537100 -19.452600
H -17.067700 -26.004700 -21.408000
H -16.792700 -26.826900 -22.753200
H -16.486800 -21.399100 -19.089500
C -16.447200 -26.131000 -22.155900
H -16.357400 -25.290100 -22.651300
O -16.206000 -22.117000 -19.423800
H -15.941600 -24.158100 -20.721400
O -15.161400 -26.528800 -21.649900
C -15.090900 -24.430400 -20.397900
C -14.980300 -22.354700 -18.990400
C -14.549200 -25.648900 -20.794700
O -14.406000 -21.643500 -18.187400
C -14.379800 -23.612500 -19.524300
C -13.292500 -26.055100 -20.319600
C -13.117700 -23.986000 -19.065000
O -12.814100 -27.263400 -20.702000
H -12.631700 -23.415700 -18.481000
C -12.578200 -25.198400 -19.469300
H -12.059500 -27.388400 -20.354800
O -11.353500 -25.682700 -19.091600
H -11.170400 -24.844800 -17.296100
C -10.639500 -24.907200 -18.117200
H -10.477200 -24.007700 -18.470700
H -9.782300 -25.339800 -17.919800
