22
Fragment
H -12.029200 -30.362200 -19.579000
H -11.767200 -29.604800 -18.194100
C -11.327800 -29.962500 -19.006000
H -10.717600 -29.832600 -21.516800
N -10.685600 -28.854400 -19.733600
H -10.395600 -31.947700 -20.432200
N -10.365000 -31.018800 -18.610300
H -10.050000 -27.926000 -18.036700
C -10.027600 -29.434400 -20.929300
H -9.722200 -30.039800 -16.936800
C -9.711500 -31.529900 -19.851000
C -9.629900 -28.295300 -18.853400
H -9.580300 -28.710300 -21.435200
C -9.310600 -30.391300 -17.765900
H -9.175100 -27.552100 -19.323700
H -9.050600 -32.226100 -19.609100
N -9.038800 -30.460800 -20.588700
H -8.645800 -31.078000 -17.509100
N -8.633700 -29.301700 -18.468700
C -8.033000 -29.852800 -19.698200
H -7.565000 -29.128100 -20.184000
H -7.360800 -30.537100 -19.452600
22
Fragment
H -19.083200 -30.362200 -19.579000
H -18.821200 -29.604800 -18.194100
C -18.381800 -29.962500 -19.006000
H -17.771600 -29.832600 -21.516800
N -17.739600 -28.854400 -19.733600
H -17.449600 -31.947700 -20.432200
N -17.419000 -31.018800 -18.610300
H -17.104000 -27.926000 -18.036700
C -17.081600 -29.434400 -20.929300
H -16.776200 -30.039800 -16.936800
C -16.765500 -31.529900 -19.851000
C -16.683900 -28.295300 -18.853400
H -16.634300 -28.710300 -21.435200
C -16.364600 -30.391300 -17.765900
H -16.229100 -27.552100 -19.323700
H -16.104600 -32.226100 -19.609100
N -16.092800 -30.460800 -20.588700
H -15.699800 -31.078000 -17.509100
N -15.687700 -29.301700 -18.468700
C -15.087000 -29.852800 -19.698200
H -14.619000 -29.128100 -20.184000
H -14.414800 -30.537100 -19.452600
44
Fragment
H -12.029200 -30.362200 -19.579000
H -11.767200 -29.604800 -18.194100
C -11.327800 -29.962500 -19.006000
H -10.717600 -29.832600 -21.516800
N -10.685600 -28.854400 -19.733600
H -10.395600 -31.947700 -20.432200
N -10.365000 -31.018800 -18.610300
H -10.050000 -27.926000 -18.036700
C -10.027600 -29.434400 -20.929300
H -9.722200 -30.039800 -16.936800
C -9.711500 -31.529900 -19.851000
C -9.629900 -28.295300 -18.853400
H -9.580300 -28.710300 -21.435200
C -9.310600 -30.391300 -17.765900
H -9.175100 -27.552100 -19.323700
H -9.050600 -32.226100 -19.609100
N -9.038800 -30.460800 -20.588700
H -8.645800 -31.078000 -17.509100
N -8.633700 -29.301700 -18.468700
C -8.033000 -29.852800 -19.698200
H -7.565000 -29.128100 -20.184000
H -7.360800 -30.537100 -19.452600
H -19.083200 -30.362200 -19.579000
H -18.821200 -29.604800 -18.194100
C -18.381800 -29.962500 -19.006000
H -17.771600 -29.832600 -21.516800
N -17.739600 -28.854400 -19.733600
H -17.449600 -31.947700 -20.432200
N -17.419000 -31.018800 -18.610300
H -17.104000 -27.926000 -18.036700
C -17.081600 -29.434400 -20.929300
H -16.776200 -30.039800 -16.936800
C -16.765500 -31.529900 -19.851000
C -16.683900 -28.295300 -18.853400
H -16.634300 -28.710300 -21.435200
C -16.364600 -30.391300 -17.765900
H -16.229100 -27.552100 -19.323700
H -16.104600 -32.226100 -19.609100
N -16.092800 -30.460800 -20.588700
H -15.699800 -31.078000 -17.509100
N -15.687700 -29.301700 -18.468700
C -15.087000 -29.852800 -19.698200
H -14.619000 -29.128100 -20.184000
H -14.414800 -30.537100 -19.452600
