22
Fragment
H -12.029200 -30.362200 -19.579000
H -11.767200 -29.604800 -18.194100
C -11.327800 -29.962500 -19.006000
H -10.717600 -29.832600 -21.516800
N -10.685600 -28.854400 -19.733600
H -10.395600 -31.947700 -20.432200
N -10.365000 -31.018800 -18.610300
H -10.050000 -27.926000 -18.036700
C -10.027600 -29.434400 -20.929300
H -9.722200 -30.039800 -16.936800
C -9.711500 -31.529900 -19.851000
C -9.629900 -28.295300 -18.853400
H -9.580300 -28.710300 -21.435200
C -9.310600 -30.391300 -17.765900
H -9.175100 -27.552100 -19.323700
H -9.050600 -32.226100 -19.609100
N -9.038800 -30.460800 -20.588700
H -8.645800 -31.078000 -17.509100
N -8.633700 -29.301700 -18.468700
C -8.033000 -29.852800 -19.698200
H -7.565000 -29.128100 -20.184000
H -7.360800 -30.537100 -19.452600
24
Fragment
H -12.973600 -27.776000 -26.635700
H -12.698600 -26.953800 -27.980900
H -12.392700 -32.381600 -24.317200
C -12.353100 -27.649800 -27.383500
H -12.263400 -28.490700 -27.879000
O -12.111900 -31.663700 -24.651500
H -11.847500 -29.622700 -25.949100
O -11.067400 -27.252000 -26.877600
C -10.996800 -29.350300 -25.625600
C -10.886300 -31.426000 -24.218100
C -10.455200 -28.131800 -26.022400
O -10.311900 -32.137200 -23.415100
C -10.285800 -30.168200 -24.752000
C -9.198400 -27.725700 -25.547300
C -9.023600 -29.794800 -24.292700
O -8.720000 -26.517400 -25.929700
H -8.537600 -30.365000 -23.708700
C -8.484100 -28.582300 -24.696900
H -7.965400 -26.392400 -25.582500
O -7.259400 -28.098100 -24.319300
H -7.076400 -28.936000 -22.523800
C -6.545400 -28.873600 -23.344800
H -6.383200 -29.773000 -23.698300
H -5.688200 -28.441000 -23.147400
46
Fragment
H -12.029200 -30.362200 -19.579000
H -11.767200 -29.604800 -18.194100
C -11.327800 -29.962500 -19.006000
H -10.717600 -29.832600 -21.516800
N -10.685600 -28.854400 -19.733600
H -10.395600 -31.947700 -20.432200
N -10.365000 -31.018800 -18.610300
H -10.050000 -27.926000 -18.036700
C -10.027600 -29.434400 -20.929300
H -9.722200 -30.039800 -16.936800
C -9.711500 -31.529900 -19.851000
C -9.629900 -28.295300 -18.853400
H -9.580300 -28.710300 -21.435200
C -9.310600 -30.391300 -17.765900
H -9.175100 -27.552100 -19.323700
H -9.050600 -32.226100 -19.609100
N -9.038800 -30.460800 -20.588700
H -8.645800 -31.078000 -17.509100
N -8.633700 -29.301700 -18.468700
C -8.033000 -29.852800 -19.698200
H -7.565000 -29.128100 -20.184000
H -7.360800 -30.537100 -19.452600
H -12.973600 -27.776000 -26.635700
H -12.698600 -26.953800 -27.980900
H -12.392700 -32.381600 -24.317200
C -12.353100 -27.649800 -27.383500
H -12.263400 -28.490700 -27.879000
O -12.111900 -31.663700 -24.651500
H -11.847500 -29.622700 -25.949100
O -11.067400 -27.252000 -26.877600
C -10.996800 -29.350300 -25.625600
C -10.886300 -31.426000 -24.218100
C -10.455200 -28.131800 -26.022400
O -10.311900 -32.137200 -23.415100
C -10.285800 -30.168200 -24.752000
C -9.198400 -27.725700 -25.547300
C -9.023600 -29.794800 -24.292700
O -8.720000 -26.517400 -25.929700
H -8.537600 -30.365000 -23.708700
C -8.484100 -28.582300 -24.696900
H -7.965400 -26.392400 -25.582500
O -7.259400 -28.098100 -24.319300
H -7.076400 -28.936000 -22.523800
C -6.545400 -28.873600 -23.344800
H -6.383200 -29.773000 -23.698300
H -5.688200 -28.441000 -23.147400
