20
Fragment
H -8.764400 -25.532800 -25.214700
H -8.247300 -26.991700 -24.808200
C -8.020300 -26.038500 -24.825800
O -7.997200 -24.084400 -27.328900
H -7.855000 -25.725200 -23.911900
H -7.261200 -19.836600 -28.634500
C -7.072100 -23.706800 -26.668100
O -7.020100 -21.683800 -27.843800
H -6.942400 -26.198500 -26.562600
C -6.788500 -25.832900 -25.655500
C -6.573200 -20.309400 -28.102500
C -6.473700 -22.296300 -26.811600
H -6.471500 -19.831200 -27.241500
O -6.418500 -24.404400 -25.764100
H -6.036100 -26.333300 -25.250100
O -5.625000 -21.845100 -26.089900
H -5.357800 -20.777000 -29.680600
C -5.269500 -20.278500 -28.841600
H -5.027200 -19.349200 -29.037700
H -4.571200 -20.688600 -28.289800
36
Fragment
O -14.790500 -20.343500 -21.744200
O -14.188100 -19.253400 -24.589600
H -13.785000 -21.331000 -23.557900
N -13.711200 -20.369700 -21.193600
O -13.436200 -19.895700 -20.116600
N -13.005300 -19.321900 -24.863000
C -12.825300 -21.222500 -23.298900
N -12.688600 -21.089800 -21.858000
H -12.538400 -23.137300 -24.241700
O -12.430700 -18.742400 -25.763000
N -12.219800 -20.086800 -23.999600
C -11.973600 -22.466400 -23.761000
O -11.782300 -25.090100 -23.355000
N -11.355400 -23.039900 -22.590500
C -11.335600 -20.908300 -21.359400
H -11.329400 -20.804700 -20.364800
N -11.228900 -24.434800 -22.493100
O -11.144000 -23.542100 -26.121800
N -10.958300 -21.886700 -24.648000
C -10.873300 -20.451800 -24.399800
N -10.849500 -22.373500 -25.961900
N -10.679600 -19.759600 -22.017700
O -10.631300 -24.866800 -21.525900
H -10.563800 -19.943600 -25.203500
O -10.515300 -18.677100 -20.072300
C -10.509300 -22.170900 -21.802200
O -10.403800 -21.605200 -26.794400
H -10.128200 -22.651900 -21.012600
N -10.061500 -18.787900 -21.192100
C -9.912000 -20.246500 -23.142600
N -9.451300 -21.519000 -22.595500
O -9.200400 -18.102200 -21.714700
H -9.147400 -19.639000 -23.358100
N -8.596800 -22.287100 -23.345000
O -8.437000 -23.443400 -22.990300
O -8.042600 -21.721800 -24.284800
56
Fragment
H -8.764400 -25.532800 -25.214700
H -8.247300 -26.991700 -24.808200
C -8.020300 -26.038500 -24.825800
O -7.997200 -24.084400 -27.328900
H -7.855000 -25.725200 -23.911900
H -7.261200 -19.836600 -28.634500
C -7.072100 -23.706800 -26.668100
O -7.020100 -21.683800 -27.843800
H -6.942400 -26.198500 -26.562600
C -6.788500 -25.832900 -25.655500
C -6.573200 -20.309400 -28.102500
C -6.473700 -22.296300 -26.811600
H -6.471500 -19.831200 -27.241500
O -6.418500 -24.404400 -25.764100
H -6.036100 -26.333300 -25.250100
O -5.625000 -21.845100 -26.089900
H -5.357800 -20.777000 -29.680600
C -5.269500 -20.278500 -28.841600
H -5.027200 -19.349200 -29.037700
H -4.571200 -20.688600 -28.289800
O -14.790500 -20.343500 -21.744200
O -14.188100 -19.253400 -24.589600
H -13.785000 -21.331000 -23.557900
N -13.711200 -20.369700 -21.193600
O -13.436200 -19.895700 -20.116600
N -13.005300 -19.321900 -24.863000
C -12.825300 -21.222500 -23.298900
N -12.688600 -21.089800 -21.858000
H -12.538400 -23.137300 -24.241700
O -12.430700 -18.742400 -25.763000
N -12.219800 -20.086800 -23.999600
C -11.973600 -22.466400 -23.761000
O -11.782300 -25.090100 -23.355000
N -11.355400 -23.039900 -22.590500
C -11.335600 -20.908300 -21.359400
H -11.329400 -20.804700 -20.364800
N -11.228900 -24.434800 -22.493100
O -11.144000 -23.542100 -26.121800
N -10.958300 -21.886700 -24.648000
C -10.873300 -20.451800 -24.399800
N -10.849500 -22.373500 -25.961900
N -10.679600 -19.759600 -22.017700
O -10.631300 -24.866800 -21.525900
H -10.563800 -19.943600 -25.203500
O -10.515300 -18.677100 -20.072300
C -10.509300 -22.170900 -21.802200
O -10.403800 -21.605200 -26.794400
H -10.128200 -22.651900 -21.012600
N -10.061500 -18.787900 -21.192100
C -9.912000 -20.246500 -23.142600
N -9.451300 -21.519000 -22.595500
O -9.200400 -18.102200 -21.714700
H -9.147400 -19.639000 -23.358100
N -8.596800 -22.287100 -23.345000
O -8.437000 -23.443400 -22.990300
O -8.042600 -21.721800 -24.284800
