13
Fragment
H -12.414200 -10.583700 -10.268900
H -12.227700 -9.558400 -9.205300
N -11.993700 -9.900800 -9.958000
C -10.998000 -9.384200 -10.631400
H -10.940400 -10.705600 -12.205400
C -10.579300 -9.914600 -11.874000
N -10.364500 -8.311000 -10.105000
C -9.655300 -9.247200 -12.551900
H -9.400800 -9.545400 -13.395500
C -9.351400 -7.685700 -10.782800
N -9.074300 -8.135200 -12.033500
O -8.709500 -6.757200 -10.284900
H -8.510600 -7.699700 -12.514500
11
Fragment
H -15.496200 -15.602700 -13.414200
H -15.287100 -13.249700 -12.793300
O -14.959300 -15.546900 -14.031500
H -14.570000 -14.278400 -11.864200
C -14.448100 -13.712300 -12.641900
C -14.192600 -14.602900 -13.824800
O -13.550900 -11.972300 -11.312900
C -13.404200 -12.675600 -12.300700
O -13.215000 -14.330500 -14.585600
H -12.491800 -13.097200 -13.718000
O -12.404900 -12.568400 -13.097100
24
Fragment
H -12.414200 -10.583700 -10.268900
H -12.227700 -9.558400 -9.205300
N -11.993700 -9.900800 -9.958000
C -10.998000 -9.384200 -10.631400
H -10.940400 -10.705600 -12.205400
C -10.579300 -9.914600 -11.874000
N -10.364500 -8.311000 -10.105000
C -9.655300 -9.247200 -12.551900
H -9.400800 -9.545400 -13.395500
C -9.351400 -7.685700 -10.782800
N -9.074300 -8.135200 -12.033500
O -8.709500 -6.757200 -10.284900
H -8.510600 -7.699700 -12.514500
H -15.496200 -15.602700 -13.414200
H -15.287100 -13.249700 -12.793300
O -14.959300 -15.546900 -14.031500
H -14.570000 -14.278400 -11.864200
C -14.448100 -13.712300 -12.641900
C -14.192600 -14.602900 -13.824800
O -13.550900 -11.972300 -11.312900
C -13.404200 -12.675600 -12.300700
O -13.215000 -14.330500 -14.585600
H -12.491800 -13.097200 -13.718000
O -12.404900 -12.568400 -13.097100
