13
Fragment
H -12.414200 -10.583700 -10.268900
H -12.227700 -9.558400 -9.205300
N -11.993700 -9.900800 -9.958000
C -10.998000 -9.384200 -10.631400
H -10.940400 -10.705600 -12.205400
C -10.579300 -9.914600 -11.874000
N -10.364500 -8.311000 -10.105000
C -9.655300 -9.247200 -12.551900
H -9.400800 -9.545400 -13.395500
C -9.351400 -7.685700 -10.782800
N -9.074300 -8.135200 -12.033500
O -8.709500 -6.757200 -10.284900
H -8.510600 -7.699700 -12.514500
11
Fragment
H -8.131100 -6.819400 -13.414200
H -7.922000 -4.466400 -12.793300
O -7.594300 -6.763600 -14.031500
H -7.204900 -5.495100 -11.864200
C -7.083000 -4.929000 -12.641900
C -6.827600 -5.819700 -13.824800
O -6.185800 -3.189100 -11.312900
C -6.039100 -3.892400 -12.300700
O -5.849900 -5.547200 -14.585600
H -5.126700 -4.313900 -13.718000
O -5.039800 -3.785200 -13.097100
24
Fragment
H -12.414200 -10.583700 -10.268900
H -12.227700 -9.558400 -9.205300
N -11.993700 -9.900800 -9.958000
C -10.998000 -9.384200 -10.631400
H -10.940400 -10.705600 -12.205400
C -10.579300 -9.914600 -11.874000
N -10.364500 -8.311000 -10.105000
C -9.655300 -9.247200 -12.551900
H -9.400800 -9.545400 -13.395500
C -9.351400 -7.685700 -10.782800
N -9.074300 -8.135200 -12.033500
O -8.709500 -6.757200 -10.284900
H -8.510600 -7.699700 -12.514500
H -8.131100 -6.819400 -13.414200
H -7.922000 -4.466400 -12.793300
O -7.594300 -6.763600 -14.031500
H -7.204900 -5.495100 -11.864200
C -7.083000 -4.929000 -12.641900
C -6.827600 -5.819700 -13.824800
O -6.185800 -3.189100 -11.312900
C -6.039100 -3.892400 -12.300700
O -5.849900 -5.547200 -14.585600
H -5.126700 -4.313900 -13.718000
O -5.039800 -3.785200 -13.097100
