13
Fragment
H -12.414200 -10.583700 -10.268900
H -12.227700 -9.558400 -9.205300
N -11.993700 -9.900800 -9.958000
C -10.998000 -9.384200 -10.631400
H -10.940400 -10.705600 -12.205400
C -10.579300 -9.914600 -11.874000
N -10.364500 -8.311000 -10.105000
C -9.655300 -9.247200 -12.551900
H -9.400800 -9.545400 -13.395500
C -9.351400 -7.685700 -10.782800
N -9.074300 -8.135200 -12.033500
O -8.709500 -6.757200 -10.284900
H -8.510600 -7.699700 -12.514500
13
Fragment
O -10.302500 -10.447200 -6.948300
C -9.294000 -10.328600 -7.635700
N -9.036600 -11.165200 -8.683300
H -8.525200 -8.805300 -6.732500
N -8.379600 -9.347100 -7.383600
H -8.229600 -12.575400 -10.483500
C -7.894900 -11.061400 -9.393200
N -7.661100 -11.947900 -10.333000
C -7.259000 -9.192500 -8.114100
C -6.975200 -10.014800 -9.119800
H -6.939200 -11.900800 -10.798000
H -6.672800 -8.499300 -7.911000
H -6.203200 -9.908300 -9.625700
26
Fragment
H -12.414200 -10.583700 -10.268900
H -12.227700 -9.558400 -9.205300
N -11.993700 -9.900800 -9.958000
C -10.998000 -9.384200 -10.631400
H -10.940400 -10.705600 -12.205400
C -10.579300 -9.914600 -11.874000
N -10.364500 -8.311000 -10.105000
C -9.655300 -9.247200 -12.551900
H -9.400800 -9.545400 -13.395500
C -9.351400 -7.685700 -10.782800
N -9.074300 -8.135200 -12.033500
O -8.709500 -6.757200 -10.284900
H -8.510600 -7.699700 -12.514500
O -10.302500 -10.447200 -6.948300
C -9.294000 -10.328600 -7.635700
N -9.036600 -11.165200 -8.683300
H -8.525200 -8.805300 -6.732500
N -8.379600 -9.347100 -7.383600
H -8.229600 -12.575400 -10.483500
C -7.894900 -11.061400 -9.393200
N -7.661100 -11.947900 -10.333000
C -7.259000 -9.192500 -8.114100
C -6.975200 -10.014800 -9.119800
H -6.939200 -11.900800 -10.798000
H -6.672800 -8.499300 -7.911000
H -6.203200 -9.908300 -9.625700
