14
Fragment
O -5.632400 -10.534900 -23.508600
H -5.517100 -11.005700 -24.170400
H -5.453900 -8.485600 -21.882900
H -5.409100 -10.426200 -20.602700
C -5.169800 -11.097700 -22.518400
O -5.049300 -12.373400 -22.444800
C -4.751600 -10.295400 -21.304400
C -4.606900 -8.830400 -21.558400
O -4.309200 -6.752400 -20.418000
C -4.188700 -8.028100 -20.344400
H -3.949500 -8.699600 -22.260100
H -3.904600 -10.640200 -20.979900
H -3.841400 -8.120100 -18.692500
O -3.726100 -8.590900 -19.354300
14
Fragment
O -9.151000 -17.062600 -23.508600
H -9.035700 -17.533400 -24.170400
H -8.972600 -15.013300 -21.882900
H -8.927700 -16.954000 -20.602700
C -8.688400 -17.625500 -22.518400
O -8.567900 -18.901100 -22.444800
C -8.270200 -16.823100 -21.304400
C -8.125500 -15.358200 -21.558400
O -7.827800 -13.280200 -20.418000
C -7.707300 -14.555800 -20.344400
H -7.468100 -15.227300 -22.260100
H -7.423200 -17.168000 -20.979900
H -7.360000 -14.647900 -18.692500
O -7.244700 -15.118600 -19.354300
28
Fragment
O -5.632400 -10.534900 -23.508600
H -5.517100 -11.005700 -24.170400
H -5.453900 -8.485600 -21.882900
H -5.409100 -10.426200 -20.602700
C -5.169800 -11.097700 -22.518400
O -5.049300 -12.373400 -22.444800
C -4.751600 -10.295400 -21.304400
C -4.606900 -8.830400 -21.558400
O -4.309200 -6.752400 -20.418000
C -4.188700 -8.028100 -20.344400
H -3.949500 -8.699600 -22.260100
H -3.904600 -10.640200 -20.979900
H -3.841400 -8.120100 -18.692500
O -3.726100 -8.590900 -19.354300
O -9.151000 -17.062600 -23.508600
H -9.035700 -17.533400 -24.170400
H -8.972600 -15.013300 -21.882900
H -8.927700 -16.954000 -20.602700
C -8.688400 -17.625500 -22.518400
O -8.567900 -18.901100 -22.444800
C -8.270200 -16.823100 -21.304400
C -8.125500 -15.358200 -21.558400
O -7.827800 -13.280200 -20.418000
C -7.707300 -14.555800 -20.344400
H -7.468100 -15.227300 -22.260100
H -7.423200 -17.168000 -20.979900
H -7.360000 -14.647900 -18.692500
O -7.244700 -15.118600 -19.354300
