13
Fragment
H -12.414200 -10.583700 -10.268900
H -12.227700 -9.558400 -9.205300
N -11.993700 -9.900800 -9.958000
C -10.998000 -9.384200 -10.631400
H -10.940400 -10.705600 -12.205400
C -10.579300 -9.914600 -11.874000
N -10.364500 -8.311000 -10.105000
C -9.655300 -9.247200 -12.551900
H -9.400800 -9.545400 -13.395500
C -9.351400 -7.685700 -10.782800
N -9.074300 -8.135200 -12.033500
O -8.709500 -6.757200 -10.284900
H -8.510600 -7.699700 -12.514500
13
Fragment
O -9.317300 -9.375800 -15.856100
C -8.308700 -9.257200 -16.543500
N -8.051300 -10.093900 -17.591000
H -7.539900 -7.733900 -15.640200
N -7.394300 -8.275700 -16.291400
H -7.244300 -11.504000 -19.391300
C -6.909600 -9.990000 -18.301000
N -6.675800 -10.876500 -19.240800
C -6.273800 -8.121100 -17.021800
C -5.989900 -8.943400 -18.027500
H -5.953900 -10.829400 -19.705800
H -5.687500 -7.427900 -16.818700
H -5.217900 -8.836900 -18.533500
26
Fragment
H -12.414200 -10.583700 -10.268900
H -12.227700 -9.558400 -9.205300
N -11.993700 -9.900800 -9.958000
C -10.998000 -9.384200 -10.631400
H -10.940400 -10.705600 -12.205400
C -10.579300 -9.914600 -11.874000
N -10.364500 -8.311000 -10.105000
C -9.655300 -9.247200 -12.551900
H -9.400800 -9.545400 -13.395500
C -9.351400 -7.685700 -10.782800
N -9.074300 -8.135200 -12.033500
O -8.709500 -6.757200 -10.284900
H -8.510600 -7.699700 -12.514500
O -9.317300 -9.375800 -15.856100
C -8.308700 -9.257200 -16.543500
N -8.051300 -10.093900 -17.591000
H -7.539900 -7.733900 -15.640200
N -7.394300 -8.275700 -16.291400
H -7.244300 -11.504000 -19.391300
C -6.909600 -9.990000 -18.301000
N -6.675800 -10.876500 -19.240800
C -6.273800 -8.121100 -17.021800
C -5.989900 -8.943400 -18.027500
H -5.953900 -10.829400 -19.705800
H -5.687500 -7.427900 -16.818700
H -5.217900 -8.836900 -18.533500
