14
Fragment
O -5.632400 -10.534900 -23.508600
H -5.517100 -11.005700 -24.170400
H -5.453900 -8.485600 -21.882900
H -5.409100 -10.426200 -20.602700
C -5.169800 -11.097700 -22.518400
O -5.049300 -12.373400 -22.444800
C -4.751600 -10.295400 -21.304400
C -4.606900 -8.830400 -21.558400
O -4.309200 -6.752400 -20.418000
C -4.188700 -8.028100 -20.344400
H -3.949500 -8.699600 -22.260100
H -3.904600 -10.640200 -20.979900
H -3.841400 -8.120100 -18.692500
O -3.726100 -8.590900 -19.354300
13
Fragment
H -9.271300 -8.384000 -28.222300
H -9.248900 -9.353700 -27.092200
N -9.036500 -8.587700 -27.420600
C -8.353000 -7.727900 -26.696500
H -8.138600 -8.832600 -24.961900
N -8.043900 -6.537800 -27.257900
C -7.951700 -8.013100 -25.359100
C -7.359300 -5.575100 -26.568500
C -7.292700 -7.050100 -24.696600
O -7.070600 -4.488600 -27.083000
H -7.024100 -7.204400 -23.820300
N -7.010000 -5.855900 -25.276800
H -6.597900 -5.257000 -24.817600
27
Fragment
O -5.632400 -10.534900 -23.508600
H -5.517100 -11.005700 -24.170400
H -5.453900 -8.485600 -21.882900
H -5.409100 -10.426200 -20.602700
C -5.169800 -11.097700 -22.518400
O -5.049300 -12.373400 -22.444800
C -4.751600 -10.295400 -21.304400
C -4.606900 -8.830400 -21.558400
O -4.309200 -6.752400 -20.418000
C -4.188700 -8.028100 -20.344400
H -3.949500 -8.699600 -22.260100
H -3.904600 -10.640200 -20.979900
H -3.841400 -8.120100 -18.692500
O -3.726100 -8.590900 -19.354300
H -9.271300 -8.384000 -28.222300
H -9.248900 -9.353700 -27.092200
N -9.036500 -8.587700 -27.420600
C -8.353000 -7.727900 -26.696500
H -8.138600 -8.832600 -24.961900
N -8.043900 -6.537800 -27.257900
C -7.951700 -8.013100 -25.359100
C -7.359300 -5.575100 -26.568500
C -7.292700 -7.050100 -24.696600
O -7.070600 -4.488600 -27.083000
H -7.024100 -7.204400 -23.820300
N -7.010000 -5.855900 -25.276800
H -6.597900 -5.257000 -24.817600
