13
Fragment
H -12.414200 -10.583700 -10.268900
H -12.227700 -9.558400 -9.205300
N -11.993700 -9.900800 -9.958000
C -10.998000 -9.384200 -10.631400
H -10.940400 -10.705600 -12.205400
C -10.579300 -9.914600 -11.874000
N -10.364500 -8.311000 -10.105000
C -9.655300 -9.247200 -12.551900
H -9.400800 -9.545400 -13.395500
C -9.351400 -7.685700 -10.782800
N -9.074300 -8.135200 -12.033500
O -8.709500 -6.757200 -10.284900
H -8.510600 -7.699700 -12.514500
13
Fragment
O -11.705500 -1.663900 -6.948300
C -10.696900 -1.545300 -7.635700
N -10.439500 -2.382000 -8.683300
H -9.928100 -0.022000 -6.732500
N -9.782500 -0.563800 -7.383600
H -9.632500 -3.792100 -10.483500
C -9.297800 -2.278100 -9.393200
N -9.064000 -3.164600 -10.333000
C -8.662000 -0.409200 -8.114100
C -8.378100 -1.231600 -9.119800
H -8.342200 -3.117500 -10.798000
H -8.075700 0.284000 -7.911000
H -7.606100 -1.125000 -9.625700
26
Fragment
H -12.414200 -10.583700 -10.268900
H -12.227700 -9.558400 -9.205300
N -11.993700 -9.900800 -9.958000
C -10.998000 -9.384200 -10.631400
H -10.940400 -10.705600 -12.205400
C -10.579300 -9.914600 -11.874000
N -10.364500 -8.311000 -10.105000
C -9.655300 -9.247200 -12.551900
H -9.400800 -9.545400 -13.395500
C -9.351400 -7.685700 -10.782800
N -9.074300 -8.135200 -12.033500
O -8.709500 -6.757200 -10.284900
H -8.510600 -7.699700 -12.514500
O -11.705500 -1.663900 -6.948300
C -10.696900 -1.545300 -7.635700
N -10.439500 -2.382000 -8.683300
H -9.928100 -0.022000 -6.732500
N -9.782500 -0.563800 -7.383600
H -9.632500 -3.792100 -10.483500
C -9.297800 -2.278100 -9.393200
N -9.064000 -3.164600 -10.333000
C -8.662000 -0.409200 -8.114100
C -8.378100 -1.231600 -9.119800
H -8.342200 -3.117500 -10.798000
H -8.075700 0.284000 -7.911000
H -7.606100 -1.125000 -9.625700
