16
Fragment
H -4.726300 -14.325700 -13.291000
H -4.342800 -17.558000 -16.687800
N -4.341700 -13.581300 -13.716400
N -4.328500 -15.920200 -15.493500
N -4.201900 -12.365200 -13.138300
C -4.105700 -16.643600 -16.583600
C -3.809500 -13.563700 -14.943800
C -3.808100 -14.718200 -15.837600
O -3.575000 -9.760600 -12.873800
C -3.571300 -11.705200 -14.083600
N -3.498700 -15.899100 -17.514800
N -3.296300 -12.365200 -15.220400
N -3.286400 -14.640800 -17.059300
H -3.182500 -16.129700 -18.278100
N -3.170900 -10.322800 -13.880400
O -2.434100 -9.830000 -14.731200
16
Fragment
H -8.326500 -23.125300 -13.291000
H -7.943000 -26.357600 -16.687800
N -7.941900 -22.380900 -13.716400
N -7.928700 -24.719800 -15.493500
N -7.802100 -21.164800 -13.138300
C -7.705900 -25.443200 -16.583600
C -7.409700 -22.363300 -14.943800
C -7.408300 -23.517800 -15.837600
O -7.175200 -18.560200 -12.873800
C -7.171500 -20.504800 -14.083600
N -7.098900 -24.698700 -17.514800
N -6.896500 -21.164800 -15.220400
N -6.886600 -23.440400 -17.059300
H -6.782700 -24.929300 -18.278100
N -6.771100 -19.122400 -13.880400
O -6.034300 -18.629600 -14.731200
32
Fragment
H -4.726300 -14.325700 -13.291000
H -4.342800 -17.558000 -16.687800
N -4.341700 -13.581300 -13.716400
N -4.328500 -15.920200 -15.493500
N -4.201900 -12.365200 -13.138300
C -4.105700 -16.643600 -16.583600
C -3.809500 -13.563700 -14.943800
C -3.808100 -14.718200 -15.837600
O -3.575000 -9.760600 -12.873800
C -3.571300 -11.705200 -14.083600
N -3.498700 -15.899100 -17.514800
N -3.296300 -12.365200 -15.220400
N -3.286400 -14.640800 -17.059300
H -3.182500 -16.129700 -18.278100
N -3.170900 -10.322800 -13.880400
O -2.434100 -9.830000 -14.731200
H -8.326500 -23.125300 -13.291000
H -7.943000 -26.357600 -16.687800
N -7.941900 -22.380900 -13.716400
N -7.928700 -24.719800 -15.493500
N -7.802100 -21.164800 -13.138300
C -7.705900 -25.443200 -16.583600
C -7.409700 -22.363300 -14.943800
C -7.408300 -23.517800 -15.837600
O -7.175200 -18.560200 -12.873800
C -7.171500 -20.504800 -14.083600
N -7.098900 -24.698700 -17.514800
N -6.896500 -21.164800 -15.220400
N -6.886600 -23.440400 -17.059300
H -6.782700 -24.929300 -18.278100
N -6.771100 -19.122400 -13.880400
O -6.034300 -18.629600 -14.731200
