32
Fragment
O -19.455100 -16.827000 -18.584000
O -19.100500 -15.546800 -16.846000
N -18.831200 -16.021300 -17.928700
N -17.633800 -15.564100 -18.534200
H -17.440000 -16.657600 -20.271100
C -17.072900 -16.002300 -19.689300
N -16.862000 -14.650000 -17.907000
N -15.939500 -15.368200 -19.867400
C -15.858900 -14.558900 -18.757400
H -15.319100 -12.920000 -16.722400
C -14.769800 -13.627500 -18.496900
N -14.722400 -12.893500 -17.368500
N -13.730200 -13.372600 -19.277800
N -13.622700 -12.111900 -17.376200
C -13.065700 -12.436800 -18.541000
N -11.875100 -11.764400 -18.889400
N -11.435700 -12.115000 -20.015900
C -10.245100 -11.442600 -20.364300
N -9.688000 -11.767500 -21.529200
N -9.580600 -10.506800 -19.627500
N -8.588400 -10.985900 -21.536800
C -8.541000 -10.251800 -20.408400
H -7.991600 -10.959400 -22.182900
C -7.451900 -9.320500 -20.147900
N -7.371300 -8.511200 -19.037900
N -6.448800 -9.229400 -20.998400
C -6.237900 -7.877100 -19.216000
H -5.870800 -7.221800 -18.634200
N -5.677000 -8.315300 -20.371100
N -4.479600 -7.858100 -20.976600
O -4.210300 -8.332500 -22.059300
O -3.855700 -7.052400 -20.321300
32
Fragment
O -7.123000 -4.769700 -18.584000
O -6.768400 -3.489500 -16.846000
N -6.499100 -3.964000 -17.928700
N -5.301700 -3.506800 -18.534200
H -5.107900 -4.600300 -20.271100
C -4.740800 -3.945000 -19.689300
N -4.529900 -2.592700 -17.907000
N -3.607400 -3.310900 -19.867400
C -3.526800 -2.501600 -18.757400
H -2.987100 -0.862700 -16.722400
C -2.437700 -1.570200 -18.496900
N -2.390300 -0.836200 -17.368500
N -1.398100 -1.315300 -19.277800
N -1.290600 -0.054600 -17.376200
C -0.733600 -0.379500 -18.541000
N 0.457000 0.292900 -18.889400
N 0.896400 -0.057700 -20.015900
C 2.087000 0.614700 -20.364300
N 2.644000 0.289800 -21.529200
N 2.751500 1.550500 -19.627500
N 3.743700 1.071400 -21.536800
C 3.791100 1.805500 -20.408400
H 4.340500 1.097900 -22.182900
C 4.880200 2.736800 -20.147900
N 4.960800 3.546100 -19.037900
N 5.883300 2.827900 -20.998400
C 6.094200 4.180200 -19.216000
H 6.461300 4.835500 -18.634200
N 6.655100 3.742000 -20.371100
N 7.852500 4.199200 -20.976600
O 8.121800 3.724700 -22.059300
O 8.476400 5.004900 -20.321300
64
Fragment
O -19.455100 -16.827000 -18.584000
O -19.100500 -15.546800 -16.846000
N -18.831200 -16.021300 -17.928700
N -17.633800 -15.564100 -18.534200
H -17.440000 -16.657600 -20.271100
C -17.072900 -16.002300 -19.689300
N -16.862000 -14.650000 -17.907000
N -15.939500 -15.368200 -19.867400
C -15.858900 -14.558900 -18.757400
H -15.319100 -12.920000 -16.722400
C -14.769800 -13.627500 -18.496900
N -14.722400 -12.893500 -17.368500
N -13.730200 -13.372600 -19.277800
N -13.622700 -12.111900 -17.376200
C -13.065700 -12.436800 -18.541000
N -11.875100 -11.764400 -18.889400
N -11.435700 -12.115000 -20.015900
C -10.245100 -11.442600 -20.364300
N -9.688000 -11.767500 -21.529200
N -9.580600 -10.506800 -19.627500
N -8.588400 -10.985900 -21.536800
C -8.541000 -10.251800 -20.408400
H -7.991600 -10.959400 -22.182900
C -7.451900 -9.320500 -20.147900
N -7.371300 -8.511200 -19.037900
N -6.448800 -9.229400 -20.998400
C -6.237900 -7.877100 -19.216000
H -5.870800 -7.221800 -18.634200
N -5.677000 -8.315300 -20.371100
N -4.479600 -7.858100 -20.976600
O -4.210300 -8.332500 -22.059300
O -3.855700 -7.052400 -20.321300
O -7.123000 -4.769700 -18.584000
O -6.768400 -3.489500 -16.846000
N -6.499100 -3.964000 -17.928700
N -5.301700 -3.506800 -18.534200
H -5.107900 -4.600300 -20.271100
C -4.740800 -3.945000 -19.689300
N -4.529900 -2.592700 -17.907000
N -3.607400 -3.310900 -19.867400
C -3.526800 -2.501600 -18.757400
H -2.987100 -0.862700 -16.722400
C -2.437700 -1.570200 -18.496900
N -2.390300 -0.836200 -17.368500
N -1.398100 -1.315300 -19.277800
N -1.290600 -0.054600 -17.376200
C -0.733600 -0.379500 -18.541000
N 0.457000 0.292900 -18.889400
N 0.896400 -0.057700 -20.015900
C 2.087000 0.614700 -20.364300
N 2.644000 0.289800 -21.529200
N 2.751500 1.550500 -19.627500
N 3.743700 1.071400 -21.536800
C 3.791100 1.805500 -20.408400
H 4.340500 1.097900 -22.182900
C 4.880200 2.736800 -20.147900
N 4.960800 3.546100 -19.037900
N 5.883300 2.827900 -20.998400
C 6.094200 4.180200 -19.216000
H 6.461300 4.835500 -18.634200
N 6.655100 3.742000 -20.371100
N 7.852500 4.199200 -20.976600
O 8.121800 3.724700 -22.059300
O 8.476400 5.004900 -20.321300
