32
Fragment
O -19.455100 -16.827000 -18.584000
O -19.100500 -15.546800 -16.846000
N -18.831200 -16.021300 -17.928700
N -17.633800 -15.564100 -18.534200
H -17.440000 -16.657600 -20.271100
C -17.072900 -16.002300 -19.689300
N -16.862000 -14.650000 -17.907000
N -15.939500 -15.368200 -19.867400
C -15.858900 -14.558900 -18.757400
H -15.319100 -12.920000 -16.722400
C -14.769800 -13.627500 -18.496900
N -14.722400 -12.893500 -17.368500
N -13.730200 -13.372600 -19.277800
N -13.622700 -12.111900 -17.376200
C -13.065700 -12.436800 -18.541000
N -11.875100 -11.764400 -18.889400
N -11.435700 -12.115000 -20.015900
C -10.245100 -11.442600 -20.364300
N -9.688000 -11.767500 -21.529200
N -9.580600 -10.506800 -19.627500
N -8.588400 -10.985900 -21.536800
C -8.541000 -10.251800 -20.408400
H -7.991600 -10.959400 -22.182900
C -7.451900 -9.320500 -20.147900
N -7.371300 -8.511200 -19.037900
N -6.448800 -9.229400 -20.998400
C -6.237900 -7.877100 -19.216000
H -5.870800 -7.221800 -18.634200
N -5.677000 -8.315300 -20.371100
N -4.479600 -7.858100 -20.976600
O -4.210300 -8.332500 -22.059300
O -3.855700 -7.052400 -20.321300
12
Fragment
O -23.176800 -18.043600 -17.296000
H -22.629500 -16.677600 -15.420500
C -22.048600 -18.461500 -17.036100
H -21.795900 -17.333200 -14.222100
C -21.743200 -16.985500 -15.136800
H -21.693100 -19.140300 -17.597700
N -21.287400 -18.036900 -16.029000
H -21.112500 -16.236200 -15.165700
H -20.012900 -19.036100 -14.847600
C -20.000000 -18.646100 -15.746700
H -19.819900 -19.349800 -16.404900
H -19.297600 -17.964700 -15.797000
44
Fragment
O -19.455100 -16.827000 -18.584000
O -19.100500 -15.546800 -16.846000
N -18.831200 -16.021300 -17.928700
N -17.633800 -15.564100 -18.534200
H -17.440000 -16.657600 -20.271100
C -17.072900 -16.002300 -19.689300
N -16.862000 -14.650000 -17.907000
N -15.939500 -15.368200 -19.867400
C -15.858900 -14.558900 -18.757400
H -15.319100 -12.920000 -16.722400
C -14.769800 -13.627500 -18.496900
N -14.722400 -12.893500 -17.368500
N -13.730200 -13.372600 -19.277800
N -13.622700 -12.111900 -17.376200
C -13.065700 -12.436800 -18.541000
N -11.875100 -11.764400 -18.889400
N -11.435700 -12.115000 -20.015900
C -10.245100 -11.442600 -20.364300
N -9.688000 -11.767500 -21.529200
N -9.580600 -10.506800 -19.627500
N -8.588400 -10.985900 -21.536800
C -8.541000 -10.251800 -20.408400
H -7.991600 -10.959400 -22.182900
C -7.451900 -9.320500 -20.147900
N -7.371300 -8.511200 -19.037900
N -6.448800 -9.229400 -20.998400
C -6.237900 -7.877100 -19.216000
H -5.870800 -7.221800 -18.634200
N -5.677000 -8.315300 -20.371100
N -4.479600 -7.858100 -20.976600
O -4.210300 -8.332500 -22.059300
O -3.855700 -7.052400 -20.321300
O -23.176800 -18.043600 -17.296000
H -22.629500 -16.677600 -15.420500
C -22.048600 -18.461500 -17.036100
H -21.795900 -17.333200 -14.222100
C -21.743200 -16.985500 -15.136800
H -21.693100 -19.140300 -17.597700
N -21.287400 -18.036900 -16.029000
H -21.112500 -16.236200 -15.165700
H -20.012900 -19.036100 -14.847600
C -20.000000 -18.646100 -15.746700
H -19.819900 -19.349800 -16.404900
H -19.297600 -17.964700 -15.797000
