25
Fragment
H -3.109000 -8.771800 -17.427100
N -2.646900 -9.502300 -17.525900
N -2.604200 -10.206600 -18.664300
N -2.282700 -8.302200 -14.948000
O -2.126200 -12.121900 -20.444000
O -1.955200 -8.099800 -13.589600
C -1.890500 -10.052900 -16.544700
C -1.794900 -11.208600 -18.368200
C -1.765000 -9.477600 -15.221800
N -1.499900 -12.177500 -19.392200
H -1.465300 -7.607500 -10.775500
C -1.309600 -11.186900 -17.060600
C -1.289900 -9.187700 -13.230700
N -1.136800 -10.078100 -14.190900
C -1.017000 -8.433700 -10.800000
C -0.837700 -9.287600 -11.865000
O -0.737400 -7.616800 -8.085100
H -0.729800 -11.794600 -16.638600
O -0.643100 -13.013600 -19.139600
C -0.368300 -9.101800 -9.772800
N -0.220700 -8.678000 -8.405000
N -0.145300 -10.363300 -11.423500
H 0.116400 -11.119700 -11.863200
N 0.160200 -10.264500 -10.125500
O 0.407300 -9.405100 -7.648500
6
Fragment
H 0.844200 -7.331200 -14.900900
O 1.267800 -7.722000 -14.361300
H 1.634500 -6.038700 -13.389500
C 2.112100 -6.857500 -13.596000
H 2.366600 -7.300200 -12.771600
H 2.908300 -6.646300 -14.108700
31
Fragment
H -3.109000 -8.771800 -17.427100
N -2.646900 -9.502300 -17.525900
N -2.604200 -10.206600 -18.664300
N -2.282700 -8.302200 -14.948000
O -2.126200 -12.121900 -20.444000
O -1.955200 -8.099800 -13.589600
C -1.890500 -10.052900 -16.544700
C -1.794900 -11.208600 -18.368200
C -1.765000 -9.477600 -15.221800
N -1.499900 -12.177500 -19.392200
H -1.465300 -7.607500 -10.775500
C -1.309600 -11.186900 -17.060600
C -1.289900 -9.187700 -13.230700
N -1.136800 -10.078100 -14.190900
C -1.017000 -8.433700 -10.800000
C -0.837700 -9.287600 -11.865000
O -0.737400 -7.616800 -8.085100
H -0.729800 -11.794600 -16.638600
O -0.643100 -13.013600 -19.139600
C -0.368300 -9.101800 -9.772800
N -0.220700 -8.678000 -8.405000
N -0.145300 -10.363300 -11.423500
H 0.116400 -11.119700 -11.863200
N 0.160200 -10.264500 -10.125500
O 0.407300 -9.405100 -7.648500
H 0.844200 -7.331200 -14.900900
O 1.267800 -7.722000 -14.361300
H 1.634500 -6.038700 -13.389500
C 2.112100 -6.857500 -13.596000
H 2.366600 -7.300200 -12.771600
H 2.908300 -6.646300 -14.108700
