25
Fragment
H -3.109000 -8.771800 -17.427100
N -2.646900 -9.502300 -17.525900
N -2.604200 -10.206600 -18.664300
N -2.282700 -8.302200 -14.948000
O -2.126200 -12.121900 -20.444000
O -1.955200 -8.099800 -13.589600
C -1.890500 -10.052900 -16.544700
C -1.794900 -11.208600 -18.368200
C -1.765000 -9.477600 -15.221800
N -1.499900 -12.177500 -19.392200
H -1.465300 -7.607500 -10.775500
C -1.309600 -11.186900 -17.060600
C -1.289900 -9.187700 -13.230700
N -1.136800 -10.078100 -14.190900
C -1.017000 -8.433700 -10.800000
C -0.837700 -9.287600 -11.865000
O -0.737400 -7.616800 -8.085100
H -0.729800 -11.794600 -16.638600
O -0.643100 -13.013600 -19.139600
C -0.368300 -9.101800 -9.772800
N -0.220700 -8.678000 -8.405000
N -0.145300 -10.363300 -11.423500
H 0.116400 -11.119700 -11.863200
N 0.160200 -10.264500 -10.125500
O 0.407300 -9.405100 -7.648500
25
Fragment
H -7.642500 -6.179200 -26.414400
N -7.180400 -6.909700 -26.513200
N -7.137800 -7.613900 -27.651600
N -6.816200 -5.709500 -23.935300
O -6.659800 -9.529300 -29.431300
O -6.488800 -5.507200 -22.576900
C -6.424000 -7.460300 -25.532000
C -6.328400 -8.616000 -27.355500
C -6.298500 -6.884900 -24.209100
N -6.033500 -9.584800 -28.379500
H -5.998800 -5.014900 -19.762800
C -5.843200 -8.594300 -26.047900
C -5.823400 -6.595000 -22.218000
N -5.670400 -7.485500 -23.178200
C -5.550500 -5.841100 -19.787300
C -5.371200 -6.695000 -20.852300
O -5.270900 -5.024100 -17.072300
H -5.263300 -9.202000 -25.625900
O -5.176700 -10.421000 -28.126900
C -4.901900 -6.509200 -18.760100
N -4.754200 -6.085300 -17.392300
N -4.678900 -7.770600 -20.410800
H -4.417200 -8.527000 -20.850500
N -4.373400 -7.671800 -19.112800
O -4.126300 -6.812400 -16.635700
50
Fragment
H -3.109000 -8.771800 -17.427100
N -2.646900 -9.502300 -17.525900
N -2.604200 -10.206600 -18.664300
N -2.282700 -8.302200 -14.948000
O -2.126200 -12.121900 -20.444000
O -1.955200 -8.099800 -13.589600
C -1.890500 -10.052900 -16.544700
C -1.794900 -11.208600 -18.368200
C -1.765000 -9.477600 -15.221800
N -1.499900 -12.177500 -19.392200
H -1.465300 -7.607500 -10.775500
C -1.309600 -11.186900 -17.060600
C -1.289900 -9.187700 -13.230700
N -1.136800 -10.078100 -14.190900
C -1.017000 -8.433700 -10.800000
C -0.837700 -9.287600 -11.865000
O -0.737400 -7.616800 -8.085100
H -0.729800 -11.794600 -16.638600
O -0.643100 -13.013600 -19.139600
C -0.368300 -9.101800 -9.772800
N -0.220700 -8.678000 -8.405000
N -0.145300 -10.363300 -11.423500
H 0.116400 -11.119700 -11.863200
N 0.160200 -10.264500 -10.125500
O 0.407300 -9.405100 -7.648500
H -7.642500 -6.179200 -26.414400
N -7.180400 -6.909700 -26.513200
N -7.137800 -7.613900 -27.651600
N -6.816200 -5.709500 -23.935300
O -6.659800 -9.529300 -29.431300
O -6.488800 -5.507200 -22.576900
C -6.424000 -7.460300 -25.532000
C -6.328400 -8.616000 -27.355500
C -6.298500 -6.884900 -24.209100
N -6.033500 -9.584800 -28.379500
H -5.998800 -5.014900 -19.762800
C -5.843200 -8.594300 -26.047900
C -5.823400 -6.595000 -22.218000
N -5.670400 -7.485500 -23.178200
C -5.550500 -5.841100 -19.787300
C -5.371200 -6.695000 -20.852300
O -5.270900 -5.024100 -17.072300
H -5.263300 -9.202000 -25.625900
O -5.176700 -10.421000 -28.126900
C -4.901900 -6.509200 -18.760100
N -4.754200 -6.085300 -17.392300
N -4.678900 -7.770600 -20.410800
H -4.417200 -8.527000 -20.850500
N -4.373400 -7.671800 -19.112800
O -4.126300 -6.812400 -16.635700
