25
Fragment
H -3.109000 -8.771800 -17.427100
N -2.646900 -9.502300 -17.525900
N -2.604200 -10.206600 -18.664300
N -2.282700 -8.302200 -14.948000
O -2.126200 -12.121900 -20.444000
O -1.955200 -8.099800 -13.589600
C -1.890500 -10.052900 -16.544700
C -1.794900 -11.208600 -18.368200
C -1.765000 -9.477600 -15.221800
N -1.499900 -12.177500 -19.392200
H -1.465300 -7.607500 -10.775500
C -1.309600 -11.186900 -17.060600
C -1.289900 -9.187700 -13.230700
N -1.136800 -10.078100 -14.190900
C -1.017000 -8.433700 -10.800000
C -0.837700 -9.287600 -11.865000
O -0.737400 -7.616800 -8.085100
H -0.729800 -11.794600 -16.638600
O -0.643100 -13.013600 -19.139600
C -0.368300 -9.101800 -9.772800
N -0.220700 -8.678000 -8.405000
N -0.145300 -10.363300 -11.423500
H 0.116400 -11.119700 -11.863200
N 0.160200 -10.264500 -10.125500
O 0.407300 -9.405100 -7.648500
25
Fragment
O -4.225800 -4.137200 -10.326100
N -3.978700 -3.277900 -7.849000
H -3.934900 -2.422600 -6.111400
N -3.673200 -3.179100 -6.551100
N -3.597800 -4.864300 -9.569600
C -3.450200 -4.440500 -8.201800
O -3.175400 -0.528700 1.165000
H -3.088700 -1.747700 -1.336000
O -3.081200 -5.925600 -9.889500
C -2.980900 -4.254700 -6.109600
C -2.801600 -5.108600 -7.174600
N -2.681700 -3.464200 -3.783600
C -2.528600 -4.354700 -4.743900
C -2.508900 -2.355400 -0.914000
H -2.353200 -5.934800 -7.199100
N -2.318600 -1.364800 1.417700
C -2.053600 -4.064800 -2.752800
C -2.023700 -2.333700 0.393600
C -1.928000 -3.489400 -1.429900
O -1.863300 -5.442500 -4.385000
O -1.692300 -1.420400 2.469400
N -1.535900 -5.240200 -3.026600
N -1.214300 -3.335700 0.689700
N -1.171700 -4.040000 -0.448600
H -0.709500 -4.770500 -0.547500
50
Fragment
H -3.109000 -8.771800 -17.427100
N -2.646900 -9.502300 -17.525900
N -2.604200 -10.206600 -18.664300
N -2.282700 -8.302200 -14.948000
O -2.126200 -12.121900 -20.444000
O -1.955200 -8.099800 -13.589600
C -1.890500 -10.052900 -16.544700
C -1.794900 -11.208600 -18.368200
C -1.765000 -9.477600 -15.221800
N -1.499900 -12.177500 -19.392200
H -1.465300 -7.607500 -10.775500
C -1.309600 -11.186900 -17.060600
C -1.289900 -9.187700 -13.230700
N -1.136800 -10.078100 -14.190900
C -1.017000 -8.433700 -10.800000
C -0.837700 -9.287600 -11.865000
O -0.737400 -7.616800 -8.085100
H -0.729800 -11.794600 -16.638600
O -0.643100 -13.013600 -19.139600
C -0.368300 -9.101800 -9.772800
N -0.220700 -8.678000 -8.405000
N -0.145300 -10.363300 -11.423500
H 0.116400 -11.119700 -11.863200
N 0.160200 -10.264500 -10.125500
O 0.407300 -9.405100 -7.648500
O -4.225800 -4.137200 -10.326100
N -3.978700 -3.277900 -7.849000
H -3.934900 -2.422600 -6.111400
N -3.673200 -3.179100 -6.551100
N -3.597800 -4.864300 -9.569600
C -3.450200 -4.440500 -8.201800
O -3.175400 -0.528700 1.165000
H -3.088700 -1.747700 -1.336000
O -3.081200 -5.925600 -9.889500
C -2.980900 -4.254700 -6.109600
C -2.801600 -5.108600 -7.174600
N -2.681700 -3.464200 -3.783600
C -2.528600 -4.354700 -4.743900
C -2.508900 -2.355400 -0.914000
H -2.353200 -5.934800 -7.199100
N -2.318600 -1.364800 1.417700
C -2.053600 -4.064800 -2.752800
C -2.023700 -2.333700 0.393600
C -1.928000 -3.489400 -1.429900
O -1.863300 -5.442500 -4.385000
O -1.692300 -1.420400 2.469400
N -1.535900 -5.240200 -3.026600
N -1.214300 -3.335700 0.689700
N -1.171700 -4.040000 -0.448600
H -0.709500 -4.770500 -0.547500
