25
Fragment
H -3.109000 -8.771800 -17.427100
N -2.646900 -9.502300 -17.525900
N -2.604200 -10.206600 -18.664300
N -2.282700 -8.302200 -14.948000
O -2.126200 -12.121900 -20.444000
O -1.955200 -8.099800 -13.589600
C -1.890500 -10.052900 -16.544700
C -1.794900 -11.208600 -18.368200
C -1.765000 -9.477600 -15.221800
N -1.499900 -12.177500 -19.392200
H -1.465300 -7.607500 -10.775500
C -1.309600 -11.186900 -17.060600
C -1.289900 -9.187700 -13.230700
N -1.136800 -10.078100 -14.190900
C -1.017000 -8.433700 -10.800000
C -0.837700 -9.287600 -11.865000
O -0.737400 -7.616800 -8.085100
H -0.729800 -11.794600 -16.638600
O -0.643100 -13.013600 -19.139600
C -0.368300 -9.101800 -9.772800
N -0.220700 -8.678000 -8.405000
N -0.145300 -10.363300 -11.423500
H 0.116400 -11.119700 -11.863200
N 0.160200 -10.264500 -10.125500
O 0.407300 -9.405100 -7.648500
25
Fragment
H -5.018300 -15.543000 -26.414400
N -4.556100 -16.273500 -26.513200
N -4.513500 -16.977700 -27.651600
N -4.191900 -15.073300 -23.935300
O -4.035500 -18.893100 -29.431300
O -3.864500 -14.871000 -22.576900
C -3.799700 -16.824100 -25.532000
C -3.704100 -17.979800 -27.355500
C -3.674200 -16.248700 -24.209100
N -3.409200 -18.948700 -28.379500
H -3.374500 -14.378700 -19.762800
C -3.218900 -17.958100 -26.047900
C -3.199200 -15.958800 -22.218000
N -3.046100 -16.849300 -23.178200
C -2.926200 -15.204900 -19.787300
C -2.746900 -16.058800 -20.852300
O -2.646600 -14.387900 -17.072300
H -2.639000 -18.565800 -25.625900
O -2.552400 -19.784800 -28.126900
C -2.277600 -15.873000 -18.760100
N -2.129900 -15.449200 -17.392300
N -2.054600 -17.134400 -20.410800
H -1.792900 -17.890900 -20.850500
N -1.749100 -17.035600 -19.112800
O -1.502000 -16.176200 -16.635700
50
Fragment
H -3.109000 -8.771800 -17.427100
N -2.646900 -9.502300 -17.525900
N -2.604200 -10.206600 -18.664300
N -2.282700 -8.302200 -14.948000
O -2.126200 -12.121900 -20.444000
O -1.955200 -8.099800 -13.589600
C -1.890500 -10.052900 -16.544700
C -1.794900 -11.208600 -18.368200
C -1.765000 -9.477600 -15.221800
N -1.499900 -12.177500 -19.392200
H -1.465300 -7.607500 -10.775500
C -1.309600 -11.186900 -17.060600
C -1.289900 -9.187700 -13.230700
N -1.136800 -10.078100 -14.190900
C -1.017000 -8.433700 -10.800000
C -0.837700 -9.287600 -11.865000
O -0.737400 -7.616800 -8.085100
H -0.729800 -11.794600 -16.638600
O -0.643100 -13.013600 -19.139600
C -0.368300 -9.101800 -9.772800
N -0.220700 -8.678000 -8.405000
N -0.145300 -10.363300 -11.423500
H 0.116400 -11.119700 -11.863200
N 0.160200 -10.264500 -10.125500
O 0.407300 -9.405100 -7.648500
H -5.018300 -15.543000 -26.414400
N -4.556100 -16.273500 -26.513200
N -4.513500 -16.977700 -27.651600
N -4.191900 -15.073300 -23.935300
O -4.035500 -18.893100 -29.431300
O -3.864500 -14.871000 -22.576900
C -3.799700 -16.824100 -25.532000
C -3.704100 -17.979800 -27.355500
C -3.674200 -16.248700 -24.209100
N -3.409200 -18.948700 -28.379500
H -3.374500 -14.378700 -19.762800
C -3.218900 -17.958100 -26.047900
C -3.199200 -15.958800 -22.218000
N -3.046100 -16.849300 -23.178200
C -2.926200 -15.204900 -19.787300
C -2.746900 -16.058800 -20.852300
O -2.646600 -14.387900 -17.072300
H -2.639000 -18.565800 -25.625900
O -2.552400 -19.784800 -28.126900
C -2.277600 -15.873000 -18.760100
N -2.129900 -15.449200 -17.392300
N -2.054600 -17.134400 -20.410800
H -1.792900 -17.890900 -20.850500
N -1.749100 -17.035600 -19.112800
O -1.502000 -16.176200 -16.635700
