25
Fragment
H -3.109000 -8.771800 -17.427100
N -2.646900 -9.502300 -17.525900
N -2.604200 -10.206600 -18.664300
N -2.282700 -8.302200 -14.948000
O -2.126200 -12.121900 -20.444000
O -1.955200 -8.099800 -13.589600
C -1.890500 -10.052900 -16.544700
C -1.794900 -11.208600 -18.368200
C -1.765000 -9.477600 -15.221800
N -1.499900 -12.177500 -19.392200
H -1.465300 -7.607500 -10.775500
C -1.309600 -11.186900 -17.060600
C -1.289900 -9.187700 -13.230700
N -1.136800 -10.078100 -14.190900
C -1.017000 -8.433700 -10.800000
C -0.837700 -9.287600 -11.865000
O -0.737400 -7.616800 -8.085100
H -0.729800 -11.794600 -16.638600
O -0.643100 -13.013600 -19.139600
C -0.368300 -9.101800 -9.772800
N -0.220700 -8.678000 -8.405000
N -0.145300 -10.363300 -11.423500
H 0.116400 -11.119700 -11.863200
N 0.160200 -10.264500 -10.125500
O 0.407300 -9.405100 -7.648500
25
Fragment
O 1.594400 -10.908400 -19.313400
N 1.841500 -10.049000 -16.836300
H 1.885400 -9.193800 -15.098600
N 2.147100 -9.950200 -15.538400
N 2.222400 -11.635500 -18.556900
C 2.370000 -11.211700 -17.189100
O 2.644800 -7.299900 -7.822300
H 2.731500 -8.518800 -10.323200
O 2.739100 -12.696700 -18.876800
C 2.839400 -11.025900 -15.096800
C 3.018700 -11.879700 -16.161800
N 3.138500 -10.235300 -12.770900
C 3.291600 -11.125800 -13.731100
C 3.311300 -9.126500 -9.901300
H 3.467000 -12.706000 -16.186400
N 3.501700 -8.136000 -7.569600
C 3.766700 -10.835900 -11.740100
C 3.796600 -9.104900 -8.593600
C 3.892200 -10.260600 -10.417200
O 3.957000 -12.213700 -13.372300
O 4.127900 -8.191500 -6.517900
N 4.284400 -12.011300 -12.013800
N 4.606000 -10.106900 -8.297600
N 4.648600 -10.811200 -9.435900
H 5.110700 -11.541700 -9.534800
50
Fragment
H -3.109000 -8.771800 -17.427100
N -2.646900 -9.502300 -17.525900
N -2.604200 -10.206600 -18.664300
N -2.282700 -8.302200 -14.948000
O -2.126200 -12.121900 -20.444000
O -1.955200 -8.099800 -13.589600
C -1.890500 -10.052900 -16.544700
C -1.794900 -11.208600 -18.368200
C -1.765000 -9.477600 -15.221800
N -1.499900 -12.177500 -19.392200
H -1.465300 -7.607500 -10.775500
C -1.309600 -11.186900 -17.060600
C -1.289900 -9.187700 -13.230700
N -1.136800 -10.078100 -14.190900
C -1.017000 -8.433700 -10.800000
C -0.837700 -9.287600 -11.865000
O -0.737400 -7.616800 -8.085100
H -0.729800 -11.794600 -16.638600
O -0.643100 -13.013600 -19.139600
C -0.368300 -9.101800 -9.772800
N -0.220700 -8.678000 -8.405000
N -0.145300 -10.363300 -11.423500
H 0.116400 -11.119700 -11.863200
N 0.160200 -10.264500 -10.125500
O 0.407300 -9.405100 -7.648500
O 1.594400 -10.908400 -19.313400
N 1.841500 -10.049000 -16.836300
H 1.885400 -9.193800 -15.098600
N 2.147100 -9.950200 -15.538400
N 2.222400 -11.635500 -18.556900
C 2.370000 -11.211700 -17.189100
O 2.644800 -7.299900 -7.822300
H 2.731500 -8.518800 -10.323200
O 2.739100 -12.696700 -18.876800
C 2.839400 -11.025900 -15.096800
C 3.018700 -11.879700 -16.161800
N 3.138500 -10.235300 -12.770900
C 3.291600 -11.125800 -13.731100
C 3.311300 -9.126500 -9.901300
H 3.467000 -12.706000 -16.186400
N 3.501700 -8.136000 -7.569600
C 3.766700 -10.835900 -11.740100
C 3.796600 -9.104900 -8.593600
C 3.892200 -10.260600 -10.417200
O 3.957000 -12.213700 -13.372300
O 4.127900 -8.191500 -6.517900
N 4.284400 -12.011300 -12.013800
N 4.606000 -10.106900 -8.297600
N 4.648600 -10.811200 -9.435900
H 5.110700 -11.541700 -9.534800
