25
Fragment
H -3.109000 -8.771800 -17.427100
N -2.646900 -9.502300 -17.525900
N -2.604200 -10.206600 -18.664300
N -2.282700 -8.302200 -14.948000
O -2.126200 -12.121900 -20.444000
O -1.955200 -8.099800 -13.589600
C -1.890500 -10.052900 -16.544700
C -1.794900 -11.208600 -18.368200
C -1.765000 -9.477600 -15.221800
N -1.499900 -12.177500 -19.392200
H -1.465300 -7.607500 -10.775500
C -1.309600 -11.186900 -17.060600
C -1.289900 -9.187700 -13.230700
N -1.136800 -10.078100 -14.190900
C -1.017000 -8.433700 -10.800000
C -0.837700 -9.287600 -11.865000
O -0.737400 -7.616800 -8.085100
H -0.729800 -11.794600 -16.638600
O -0.643100 -13.013600 -19.139600
C -0.368300 -9.101800 -9.772800
N -0.220700 -8.678000 -8.405000
N -0.145300 -10.363300 -11.423500
H 0.116400 -11.119700 -11.863200
N 0.160200 -10.264500 -10.125500
O 0.407300 -9.405100 -7.648500
25
Fragment
H -1.199700 -2.000700 -8.439800
N -0.737600 -2.731200 -8.538600
N -0.695000 -3.435400 -9.677000
N -0.373400 -1.531000 -5.960700
O -0.217000 -5.350800 -11.456700
O -0.046000 -1.328700 -4.602300
C 0.018800 -3.281800 -7.557400
C 0.114400 -4.437400 -9.380900
C 0.144300 -2.706400 -6.234500
N 0.409300 -5.406300 -10.404900
H 0.444000 -0.836400 -1.788200
C 0.599600 -4.415800 -8.073300
C 0.619400 -2.416500 -4.243400
N 0.772500 -3.307000 -5.203600
C 0.892300 -1.662600 -1.812700
C 1.071600 -2.516500 -2.877700
O 1.171900 -0.845600 0.902200
H 1.179500 -5.023500 -7.651300
O 1.266100 -6.242500 -10.152300
C 1.540900 -2.330700 -0.785500
N 1.688600 -1.906800 0.582300
N 1.763900 -3.592100 -2.436200
H 2.025600 -4.348500 -2.875900
N 2.069400 -3.493300 -1.138200
O 2.316500 -2.633900 1.338800
50
Fragment
H -3.109000 -8.771800 -17.427100
N -2.646900 -9.502300 -17.525900
N -2.604200 -10.206600 -18.664300
N -2.282700 -8.302200 -14.948000
O -2.126200 -12.121900 -20.444000
O -1.955200 -8.099800 -13.589600
C -1.890500 -10.052900 -16.544700
C -1.794900 -11.208600 -18.368200
C -1.765000 -9.477600 -15.221800
N -1.499900 -12.177500 -19.392200
H -1.465300 -7.607500 -10.775500
C -1.309600 -11.186900 -17.060600
C -1.289900 -9.187700 -13.230700
N -1.136800 -10.078100 -14.190900
C -1.017000 -8.433700 -10.800000
C -0.837700 -9.287600 -11.865000
O -0.737400 -7.616800 -8.085100
H -0.729800 -11.794600 -16.638600
O -0.643100 -13.013600 -19.139600
C -0.368300 -9.101800 -9.772800
N -0.220700 -8.678000 -8.405000
N -0.145300 -10.363300 -11.423500
H 0.116400 -11.119700 -11.863200
N 0.160200 -10.264500 -10.125500
O 0.407300 -9.405100 -7.648500
H -1.199700 -2.000700 -8.439800
N -0.737600 -2.731200 -8.538600
N -0.695000 -3.435400 -9.677000
N -0.373400 -1.531000 -5.960700
O -0.217000 -5.350800 -11.456700
O -0.046000 -1.328700 -4.602300
C 0.018800 -3.281800 -7.557400
C 0.114400 -4.437400 -9.380900
C 0.144300 -2.706400 -6.234500
N 0.409300 -5.406300 -10.404900
H 0.444000 -0.836400 -1.788200
C 0.599600 -4.415800 -8.073300
C 0.619400 -2.416500 -4.243400
N 0.772500 -3.307000 -5.203600
C 0.892300 -1.662600 -1.812700
C 1.071600 -2.516500 -2.877700
O 1.171900 -0.845600 0.902200
H 1.179500 -5.023500 -7.651300
O 1.266100 -6.242500 -10.152300
C 1.540900 -2.330700 -0.785500
N 1.688600 -1.906800 0.582300
N 1.763900 -3.592100 -2.436200
H 2.025600 -4.348500 -2.875900
N 2.069400 -3.493300 -1.138200
O 2.316500 -2.633900 1.338800
