16
Fragment
H -9.677400 -10.897600 -27.752800
H -9.487600 -11.070600 -25.441200
C -8.997100 -11.398800 -27.364900
C -8.880100 -11.512500 -25.989300
H -8.519800 -11.771700 -30.278000
C -8.064300 -12.058500 -28.135100
N -7.915500 -12.157600 -29.517200
C -7.867200 -12.279400 -25.411700
H -7.822100 -12.349000 -24.485500
C -7.043000 -12.814800 -27.551100
C -6.931300 -12.935000 -26.182800
C -6.842300 -12.950500 -29.793200
O -6.452000 -13.268100 -30.934700
N -6.304500 -13.340400 -28.599900
H -6.252400 -13.438500 -25.795300
H -5.558000 -13.957000 -28.570100
16
Fragment
H -10.206900 -10.415000 -34.069800
H -9.512600 -10.933500 -36.844600
N -9.460400 -11.031600 -34.040000
O -9.312900 -11.103900 -31.705200
C -8.922600 -11.421500 -32.846700
C -8.833700 -11.437000 -36.457000
C -8.721900 -11.557200 -35.088800
H -7.942800 -12.023000 -38.154400
C -7.897700 -12.092600 -37.228100
N -7.849400 -12.214400 -33.122700
C -7.700600 -12.313500 -34.504800
H -7.245100 -12.600300 -32.361900
C -6.884900 -12.859500 -36.650600
C -6.767800 -12.973200 -35.275000
H -6.277300 -13.301400 -37.198700
H -6.087500 -13.474400 -34.887100
32
Fragment
H -9.677400 -10.897600 -27.752800
H -9.487600 -11.070600 -25.441200
C -8.997100 -11.398800 -27.364900
C -8.880100 -11.512500 -25.989300
H -8.519800 -11.771700 -30.278000
C -8.064300 -12.058500 -28.135100
N -7.915500 -12.157600 -29.517200
C -7.867200 -12.279400 -25.411700
H -7.822100 -12.349000 -24.485500
C -7.043000 -12.814800 -27.551100
C -6.931300 -12.935000 -26.182800
C -6.842300 -12.950500 -29.793200
O -6.452000 -13.268100 -30.934700
N -6.304500 -13.340400 -28.599900
H -6.252400 -13.438500 -25.795300
H -5.558000 -13.957000 -28.570100
H -10.206900 -10.415000 -34.069800
H -9.512600 -10.933500 -36.844600
N -9.460400 -11.031600 -34.040000
O -9.312900 -11.103900 -31.705200
C -8.922600 -11.421500 -32.846700
C -8.833700 -11.437000 -36.457000
C -8.721900 -11.557200 -35.088800
H -7.942800 -12.023000 -38.154400
C -7.897700 -12.092600 -37.228100
N -7.849400 -12.214400 -33.122700
C -7.700600 -12.313500 -34.504800
H -7.245100 -12.600300 -32.361900
C -6.884900 -12.859500 -36.650600
C -6.767800 -12.973200 -35.275000
H -6.277300 -13.301400 -37.198700
H -6.087500 -13.474400 -34.887100
