14
Fragment
H -8.994600 -12.743700 -34.511000
O -8.630700 -11.536500 -32.558700
O -8.549900 -12.411200 -35.105900
C -7.896900 -10.930100 -33.314800
C -7.825500 -11.364600 -34.749500
Cl -7.205900 -9.294700 -31.268700
C -7.083600 -9.798400 -32.898600
C -7.031100 -10.722800 -35.630100
Cl -6.908700 -11.226500 -37.259900
C -6.289200 -9.156600 -33.779100
C -6.217800 -9.591100 -35.213900
O -5.564800 -8.110000 -33.422800
O -5.483900 -8.984700 -35.970000
H -5.120000 -7.777500 -34.017600
16
Fragment
H -5.037800 -11.189200 -28.542200
H -4.767700 -11.635500 -30.858500
C -4.448200 -10.631500 -29.060000
C -4.286900 -10.937300 -30.404300
H -3.952900 -9.393600 -27.633000
C -3.790600 -9.564900 -28.478200
C -3.451400 -10.119000 -31.143800
H -3.367000 -10.676200 -33.110800
N -3.087500 -10.131800 -32.476000
C -2.954300 -8.747200 -29.217400
C -2.797700 -9.040100 -30.553000
H -2.506200 -8.080200 -28.775200
C -2.244500 -9.110900 -32.740700
N -2.078900 -8.432700 -31.581000
O -1.713200 -8.862100 -33.845600
H -1.586900 -7.839100 -31.493500
30
Fragment
H -8.994600 -12.743700 -34.511000
O -8.630700 -11.536500 -32.558700
O -8.549900 -12.411200 -35.105900
C -7.896900 -10.930100 -33.314800
C -7.825500 -11.364600 -34.749500
Cl -7.205900 -9.294700 -31.268700
C -7.083600 -9.798400 -32.898600
C -7.031100 -10.722800 -35.630100
Cl -6.908700 -11.226500 -37.259900
C -6.289200 -9.156600 -33.779100
C -6.217800 -9.591100 -35.213900
O -5.564800 -8.110000 -33.422800
O -5.483900 -8.984700 -35.970000
H -5.120000 -7.777500 -34.017600
H -5.037800 -11.189200 -28.542200
H -4.767700 -11.635500 -30.858500
C -4.448200 -10.631500 -29.060000
C -4.286900 -10.937300 -30.404300
H -3.952900 -9.393600 -27.633000
C -3.790600 -9.564900 -28.478200
C -3.451400 -10.119000 -31.143800
H -3.367000 -10.676200 -33.110800
N -3.087500 -10.131800 -32.476000
C -2.954300 -8.747200 -29.217400
C -2.797700 -9.040100 -30.553000
H -2.506200 -8.080200 -28.775200
C -2.244500 -9.110900 -32.740700
N -2.078900 -8.432700 -31.581000
O -1.713200 -8.862100 -33.845600
H -1.586900 -7.839100 -31.493500
