14
Fragment
H -8.994600 -12.743700 -34.511000
O -8.630700 -11.536500 -32.558700
O -8.549900 -12.411200 -35.105900
C -7.896900 -10.930100 -33.314800
C -7.825500 -11.364600 -34.749500
Cl -7.205900 -9.294700 -31.268700
C -7.083600 -9.798400 -32.898600
C -7.031100 -10.722800 -35.630100
Cl -6.908700 -11.226500 -37.259900
C -6.289200 -9.156600 -33.779100
C -6.217800 -9.591100 -35.213900
O -5.564800 -8.110000 -33.422800
O -5.483900 -8.984700 -35.970000
H -5.120000 -7.777500 -34.017600
16
Fragment
H -4.075600 -12.682100 -37.035200
O -3.949300 -11.659100 -34.683000
N -3.583700 -12.088500 -36.947700
C -3.418100 -11.410300 -35.788000
H -3.156400 -12.441000 -39.753500
C -2.864800 -11.481100 -37.975600
C -2.708300 -11.774000 -39.311200
N -2.575100 -10.389400 -36.052700
H -2.295500 -9.845000 -35.417900
C -2.211200 -10.402200 -37.384900
C -1.872000 -10.956300 -40.050400
H -1.709600 -11.127600 -40.895600
C -1.375700 -9.583900 -38.124300
C -1.214300 -9.889700 -39.468600
H -0.894900 -8.885700 -37.670200
H -0.624800 -9.332000 -39.986500
30
Fragment
H -8.994600 -12.743700 -34.511000
O -8.630700 -11.536500 -32.558700
O -8.549900 -12.411200 -35.105900
C -7.896900 -10.930100 -33.314800
C -7.825500 -11.364600 -34.749500
Cl -7.205900 -9.294700 -31.268700
C -7.083600 -9.798400 -32.898600
C -7.031100 -10.722800 -35.630100
Cl -6.908700 -11.226500 -37.259900
C -6.289200 -9.156600 -33.779100
C -6.217800 -9.591100 -35.213900
O -5.564800 -8.110000 -33.422800
O -5.483900 -8.984700 -35.970000
H -5.120000 -7.777500 -34.017600
H -4.075600 -12.682100 -37.035200
O -3.949300 -11.659100 -34.683000
N -3.583700 -12.088500 -36.947700
C -3.418100 -11.410300 -35.788000
H -3.156400 -12.441000 -39.753500
C -2.864800 -11.481100 -37.975600
C -2.708300 -11.774000 -39.311200
N -2.575100 -10.389400 -36.052700
H -2.295500 -9.845000 -35.417900
C -2.211200 -10.402200 -37.384900
C -1.872000 -10.956300 -40.050400
H -1.709600 -11.127600 -40.895600
C -1.375700 -9.583900 -38.124300
C -1.214300 -9.889700 -39.468600
H -0.894900 -8.885700 -37.670200
H -0.624800 -9.332000 -39.986500
