14
Fragment
H -8.994600 -12.743700 -34.511000
O -8.630700 -11.536500 -32.558700
O -8.549900 -12.411200 -35.105900
C -7.896900 -10.930100 -33.314800
C -7.825500 -11.364600 -34.749500
Cl -7.205900 -9.294700 -31.268700
C -7.083600 -9.798400 -32.898600
C -7.031100 -10.722800 -35.630100
Cl -6.908700 -11.226500 -37.259900
C -6.289200 -9.156600 -33.779100
C -6.217800 -9.591100 -35.213900
O -5.564800 -8.110000 -33.422800
O -5.483900 -8.984700 -35.970000
H -5.120000 -7.777500 -34.017600
16
Fragment
H -12.527700 -12.682100 -37.035200
O -12.401400 -11.659100 -34.683000
N -12.035800 -12.088500 -36.947700
C -11.870200 -11.410300 -35.788000
H -11.608500 -12.441000 -39.753500
C -11.316900 -11.481100 -37.975600
C -11.160400 -11.774000 -39.311200
N -11.027200 -10.389400 -36.052700
H -10.747600 -9.845000 -35.417900
C -10.663300 -10.402200 -37.384900
C -10.324100 -10.956300 -40.050400
H -10.161700 -11.127600 -40.895600
C -9.827800 -9.583900 -38.124300
C -9.666400 -9.889700 -39.468600
H -9.347000 -8.885700 -37.670200
H -9.076900 -9.332000 -39.986500
30
Fragment
H -8.994600 -12.743700 -34.511000
O -8.630700 -11.536500 -32.558700
O -8.549900 -12.411200 -35.105900
C -7.896900 -10.930100 -33.314800
C -7.825500 -11.364600 -34.749500
Cl -7.205900 -9.294700 -31.268700
C -7.083600 -9.798400 -32.898600
C -7.031100 -10.722800 -35.630100
Cl -6.908700 -11.226500 -37.259900
C -6.289200 -9.156600 -33.779100
C -6.217800 -9.591100 -35.213900
O -5.564800 -8.110000 -33.422800
O -5.483900 -8.984700 -35.970000
H -5.120000 -7.777500 -34.017600
H -12.527700 -12.682100 -37.035200
O -12.401400 -11.659100 -34.683000
N -12.035800 -12.088500 -36.947700
C -11.870200 -11.410300 -35.788000
H -11.608500 -12.441000 -39.753500
C -11.316900 -11.481100 -37.975600
C -11.160400 -11.774000 -39.311200
N -11.027200 -10.389400 -36.052700
H -10.747600 -9.845000 -35.417900
C -10.663300 -10.402200 -37.384900
C -10.324100 -10.956300 -40.050400
H -10.161700 -11.127600 -40.895600
C -9.827800 -9.583900 -38.124300
C -9.666400 -9.889700 -39.468600
H -9.347000 -8.885700 -37.670200
H -9.076900 -9.332000 -39.986500
