16
Fragment
H -9.677400 -10.897600 -27.752800
H -9.487600 -11.070600 -25.441200
C -8.997100 -11.398800 -27.364900
C -8.880100 -11.512500 -25.989300
H -8.519800 -11.771700 -30.278000
C -8.064300 -12.058500 -28.135100
N -7.915500 -12.157600 -29.517200
C -7.867200 -12.279400 -25.411700
H -7.822100 -12.349000 -24.485500
C -7.043000 -12.814800 -27.551100
C -6.931300 -12.935000 -26.182800
C -6.842300 -12.950500 -29.793200
O -6.452000 -13.268100 -30.934700
N -6.304500 -13.340400 -28.599900
H -6.252400 -13.438500 -25.795300
H -5.558000 -13.957000 -28.570100
14
Fragment
H -10.328300 -6.109200 -31.474500
O -9.911200 -6.504900 -32.232200
O -9.445000 -6.855000 -29.613600
C -8.909700 -7.292100 -31.853800
C -8.708100 -7.474100 -30.368400
H -8.233500 -7.774000 -33.641800
C -8.109000 -7.907100 -32.729800
C -7.655900 -8.340900 -29.910100
H -7.531500 -8.474000 -28.998100
C -7.056800 -8.773900 -32.271400
C -6.855300 -8.955900 -30.786000
O -6.319900 -9.393000 -33.026300
O -5.853700 -9.743100 -30.407700
H -5.436600 -10.138800 -31.165400
30
Fragment
H -9.677400 -10.897600 -27.752800
H -9.487600 -11.070600 -25.441200
C -8.997100 -11.398800 -27.364900
C -8.880100 -11.512500 -25.989300
H -8.519800 -11.771700 -30.278000
C -8.064300 -12.058500 -28.135100
N -7.915500 -12.157600 -29.517200
C -7.867200 -12.279400 -25.411700
H -7.822100 -12.349000 -24.485500
C -7.043000 -12.814800 -27.551100
C -6.931300 -12.935000 -26.182800
C -6.842300 -12.950500 -29.793200
O -6.452000 -13.268100 -30.934700
N -6.304500 -13.340400 -28.599900
H -6.252400 -13.438500 -25.795300
H -5.558000 -13.957000 -28.570100
H -10.328300 -6.109200 -31.474500
O -9.911200 -6.504900 -32.232200
O -9.445000 -6.855000 -29.613600
C -8.909700 -7.292100 -31.853800
C -8.708100 -7.474100 -30.368400
H -8.233500 -7.774000 -33.641800
C -8.109000 -7.907100 -32.729800
C -7.655900 -8.340900 -29.910100
H -7.531500 -8.474000 -28.998100
C -7.056800 -8.773900 -32.271400
C -6.855300 -8.955900 -30.786000
O -6.319900 -9.393000 -33.026300
O -5.853700 -9.743100 -30.407700
H -5.436600 -10.138800 -31.165400
