16
Fragment
H -9.677400 -10.897600 -27.752800
H -9.487600 -11.070600 -25.441200
C -8.997100 -11.398800 -27.364900
C -8.880100 -11.512500 -25.989300
H -8.519800 -11.771700 -30.278000
C -8.064300 -12.058500 -28.135100
N -7.915500 -12.157600 -29.517200
C -7.867200 -12.279400 -25.411700
H -7.822100 -12.349000 -24.485500
C -7.043000 -12.814800 -27.551100
C -6.931300 -12.935000 -26.182800
C -6.842300 -12.950500 -29.793200
O -6.452000 -13.268100 -30.934700
N -6.304500 -13.340400 -28.599900
H -6.252400 -13.438500 -25.795300
H -5.558000 -13.957000 -28.570100
16
Fragment
H -12.874100 -9.895000 -23.629900
H -12.179800 -9.376500 -26.404600
N -12.127600 -9.278400 -23.600000
O -11.980100 -9.206100 -21.265200
C -11.589800 -8.888500 -22.406700
C -11.500900 -8.873000 -26.017100
C -11.389100 -8.752800 -24.648800
H -10.610000 -8.287000 -27.714400
C -10.564900 -8.217400 -26.788200
N -10.516600 -8.095600 -22.682700
C -10.367800 -7.996500 -24.064800
H -9.912300 -7.709700 -21.921900
C -9.552100 -7.450500 -26.210600
C -9.435000 -7.336800 -24.835000
H -8.944500 -7.008600 -26.758700
H -8.754700 -6.835600 -24.447100
32
Fragment
H -9.677400 -10.897600 -27.752800
H -9.487600 -11.070600 -25.441200
C -8.997100 -11.398800 -27.364900
C -8.880100 -11.512500 -25.989300
H -8.519800 -11.771700 -30.278000
C -8.064300 -12.058500 -28.135100
N -7.915500 -12.157600 -29.517200
C -7.867200 -12.279400 -25.411700
H -7.822100 -12.349000 -24.485500
C -7.043000 -12.814800 -27.551100
C -6.931300 -12.935000 -26.182800
C -6.842300 -12.950500 -29.793200
O -6.452000 -13.268100 -30.934700
N -6.304500 -13.340400 -28.599900
H -6.252400 -13.438500 -25.795300
H -5.558000 -13.957000 -28.570100
H -12.874100 -9.895000 -23.629900
H -12.179800 -9.376500 -26.404600
N -12.127600 -9.278400 -23.600000
O -11.980100 -9.206100 -21.265200
C -11.589800 -8.888500 -22.406700
C -11.500900 -8.873000 -26.017100
C -11.389100 -8.752800 -24.648800
H -10.610000 -8.287000 -27.714400
C -10.564900 -8.217400 -26.788200
N -10.516600 -8.095600 -22.682700
C -10.367800 -7.996500 -24.064800
H -9.912300 -7.709700 -21.921900
C -9.552100 -7.450500 -26.210600
C -9.435000 -7.336800 -24.835000
H -8.944500 -7.008600 -26.758700
H -8.754700 -6.835600 -24.447100
