14
Fragment
H -8.994600 -12.743700 -34.511000
O -8.630700 -11.536500 -32.558700
O -8.549900 -12.411200 -35.105900
C -7.896900 -10.930100 -33.314800
C -7.825500 -11.364600 -34.749500
Cl -7.205900 -9.294700 -31.268700
C -7.083600 -9.798400 -32.898600
C -7.031100 -10.722800 -35.630100
Cl -6.908700 -11.226500 -37.259900
C -6.289200 -9.156600 -33.779100
C -6.217800 -9.591100 -35.213900
O -5.564800 -8.110000 -33.422800
O -5.483900 -8.984700 -35.970000
H -5.120000 -7.777500 -34.017600
16
Fragment
H -7.390200 -6.766900 -39.963600
H -7.120100 -6.320500 -42.279900
C -6.800700 -7.324500 -40.481500
C -6.639300 -7.018800 -41.825800
H -6.305300 -8.562500 -39.054500
C -6.143000 -8.391100 -39.899700
C -5.803800 -7.837000 -42.565200
H -5.719500 -7.279900 -44.532200
N -5.439900 -7.824200 -43.897400
C -5.306700 -9.208900 -40.638900
C -5.150200 -8.915900 -41.974500
H -4.858600 -9.875800 -40.196600
C -4.596900 -8.845200 -44.162200
N -4.431300 -9.523400 -43.002400
O -4.065600 -9.094000 -45.267100
H -3.939400 -10.117000 -42.914900
30
Fragment
H -8.994600 -12.743700 -34.511000
O -8.630700 -11.536500 -32.558700
O -8.549900 -12.411200 -35.105900
C -7.896900 -10.930100 -33.314800
C -7.825500 -11.364600 -34.749500
Cl -7.205900 -9.294700 -31.268700
C -7.083600 -9.798400 -32.898600
C -7.031100 -10.722800 -35.630100
Cl -6.908700 -11.226500 -37.259900
C -6.289200 -9.156600 -33.779100
C -6.217800 -9.591100 -35.213900
O -5.564800 -8.110000 -33.422800
O -5.483900 -8.984700 -35.970000
H -5.120000 -7.777500 -34.017600
H -7.390200 -6.766900 -39.963600
H -7.120100 -6.320500 -42.279900
C -6.800700 -7.324500 -40.481500
C -6.639300 -7.018800 -41.825800
H -6.305300 -8.562500 -39.054500
C -6.143000 -8.391100 -39.899700
C -5.803800 -7.837000 -42.565200
H -5.719500 -7.279900 -44.532200
N -5.439900 -7.824200 -43.897400
C -5.306700 -9.208900 -40.638900
C -5.150200 -8.915900 -41.974500
H -4.858600 -9.875800 -40.196600
C -4.596900 -8.845200 -44.162200
N -4.431300 -9.523400 -43.002400
O -4.065600 -9.094000 -45.267100
H -3.939400 -10.117000 -42.914900
