24
Fragment
H -29.653600 -8.665100 -17.253000
H -29.653600 -7.114900 -17.253000
O -29.312600 -7.890000 -19.710100
C -29.078300 -7.890000 -17.037500
H -28.855300 -7.890000 -16.176400
H -28.357800 -8.651200 -22.367100
H -28.357800 -7.128800 -22.367100
C -28.165800 -7.890000 -19.283300
N -27.894200 -7.890000 -17.905500
C -27.791200 -7.890000 -22.450500
H -27.346000 -7.890000 -23.320400
C -26.964300 -7.890000 -20.049200
N -26.754300 -7.890000 -21.414400
C -26.640000 -7.890000 -17.296200
O -26.522600 -7.890000 -16.077600
C -25.719500 -7.890000 -19.481900
N -25.540200 -7.890000 -18.120600
C -25.428600 -7.890000 -21.597000
H -25.019800 -7.890000 -22.505700
N -24.748400 -7.890000 -20.440300
C -24.211500 -7.890000 -17.501100
H -24.071800 -8.696700 -16.942600
H -24.071800 -7.083300 -16.942600
H -23.555900 -7.890000 -18.227000
24
Fragment
H -35.270700 -4.734000 -11.299200
H -34.754800 -5.540700 -10.014800
H -34.754800 -3.927300 -10.014800
C -34.615100 -4.734000 -10.573300
N -34.078200 -4.734000 -13.512500
H -33.806800 -4.734000 -15.577900
C -33.398000 -4.734000 -14.669200
N -33.286400 -4.734000 -11.192800
C -33.107100 -4.734000 -12.554100
O -32.304000 -4.734000 -9.149800
C -32.186600 -4.734000 -10.368400
N -32.072300 -4.734000 -14.486600
C -31.862300 -4.734000 -13.121400
H -31.480600 -4.734000 -16.392600
C -31.035400 -4.734000 -15.522700
N -30.932400 -4.734000 -10.977700
C -30.660800 -4.734000 -12.355500
H -30.468800 -5.495200 -15.439300
H -30.468800 -3.972800 -15.439300
H -29.971300 -4.734000 -9.248600
C -29.748300 -4.734000 -10.109700
O -29.514000 -4.734000 -12.782300
H -29.173000 -5.509100 -10.325200
H -29.173000 -3.958900 -10.325200
48
Fragment
H -29.653600 -8.665100 -17.253000
H -29.653600 -7.114900 -17.253000
O -29.312600 -7.890000 -19.710100
C -29.078300 -7.890000 -17.037500
H -28.855300 -7.890000 -16.176400
H -28.357800 -8.651200 -22.367100
H -28.357800 -7.128800 -22.367100
C -28.165800 -7.890000 -19.283300
N -27.894200 -7.890000 -17.905500
C -27.791200 -7.890000 -22.450500
H -27.346000 -7.890000 -23.320400
C -26.964300 -7.890000 -20.049200
N -26.754300 -7.890000 -21.414400
C -26.640000 -7.890000 -17.296200
O -26.522600 -7.890000 -16.077600
C -25.719500 -7.890000 -19.481900
N -25.540200 -7.890000 -18.120600
C -25.428600 -7.890000 -21.597000
H -25.019800 -7.890000 -22.505700
N -24.748400 -7.890000 -20.440300
C -24.211500 -7.890000 -17.501100
H -24.071800 -8.696700 -16.942600
H -24.071800 -7.083300 -16.942600
H -23.555900 -7.890000 -18.227000
H -35.270700 -4.734000 -11.299200
H -34.754800 -5.540700 -10.014800
H -34.754800 -3.927300 -10.014800
C -34.615100 -4.734000 -10.573300
N -34.078200 -4.734000 -13.512500
H -33.806800 -4.734000 -15.577900
C -33.398000 -4.734000 -14.669200
N -33.286400 -4.734000 -11.192800
C -33.107100 -4.734000 -12.554100
O -32.304000 -4.734000 -9.149800
C -32.186600 -4.734000 -10.368400
N -32.072300 -4.734000 -14.486600
C -31.862300 -4.734000 -13.121400
H -31.480600 -4.734000 -16.392600
C -31.035400 -4.734000 -15.522700
N -30.932400 -4.734000 -10.977700
C -30.660800 -4.734000 -12.355500
H -30.468800 -5.495200 -15.439300
H -30.468800 -3.972800 -15.439300
H -29.971300 -4.734000 -9.248600
C -29.748300 -4.734000 -10.109700
O -29.514000 -4.734000 -12.782300
H -29.173000 -5.509100 -10.325200
H -29.173000 -3.958900 -10.325200
