24
Fragment
H -29.653600 -8.665100 -17.253000
H -29.653600 -7.114900 -17.253000
O -29.312600 -7.890000 -19.710100
C -29.078300 -7.890000 -17.037500
H -28.855300 -7.890000 -16.176400
H -28.357800 -8.651200 -22.367100
H -28.357800 -7.128800 -22.367100
C -28.165800 -7.890000 -19.283300
N -27.894200 -7.890000 -17.905500
C -27.791200 -7.890000 -22.450500
H -27.346000 -7.890000 -23.320400
C -26.964300 -7.890000 -20.049200
N -26.754300 -7.890000 -21.414400
C -26.640000 -7.890000 -17.296200
O -26.522600 -7.890000 -16.077600
C -25.719500 -7.890000 -19.481900
N -25.540200 -7.890000 -18.120600
C -25.428600 -7.890000 -21.597000
H -25.019800 -7.890000 -22.505700
N -24.748400 -7.890000 -20.440300
C -24.211500 -7.890000 -17.501100
H -24.071800 -8.696700 -16.942600
H -24.071800 -7.083300 -16.942600
H -23.555900 -7.890000 -18.227000
24
Fragment
H -26.866900 -4.734000 -23.339800
H -26.351000 -5.540700 -24.624200
H -26.351000 -3.927300 -24.624200
C -26.211300 -4.734000 -24.065700
N -25.674400 -4.734000 -21.126500
H -25.403000 -4.734000 -19.061100
C -24.994200 -4.734000 -19.969800
N -24.882600 -4.734000 -23.446200
C -24.703300 -4.734000 -22.084900
O -23.900200 -4.734000 -25.489200
C -23.782800 -4.734000 -24.270600
N -23.668500 -4.734000 -20.152400
C -23.458500 -4.734000 -21.517600
H -23.076800 -4.734000 -18.246400
C -22.631600 -4.734000 -19.116300
N -22.528600 -4.734000 -23.661300
C -22.257000 -4.734000 -22.283500
H -22.065000 -5.495200 -19.199700
H -22.065000 -3.972800 -19.199700
H -21.567500 -4.734000 -25.390400
C -21.344500 -4.734000 -24.529300
O -21.110200 -4.734000 -21.856700
H -20.769200 -5.509100 -24.313800
H -20.769200 -3.958900 -24.313800
48
Fragment
H -29.653600 -8.665100 -17.253000
H -29.653600 -7.114900 -17.253000
O -29.312600 -7.890000 -19.710100
C -29.078300 -7.890000 -17.037500
H -28.855300 -7.890000 -16.176400
H -28.357800 -8.651200 -22.367100
H -28.357800 -7.128800 -22.367100
C -28.165800 -7.890000 -19.283300
N -27.894200 -7.890000 -17.905500
C -27.791200 -7.890000 -22.450500
H -27.346000 -7.890000 -23.320400
C -26.964300 -7.890000 -20.049200
N -26.754300 -7.890000 -21.414400
C -26.640000 -7.890000 -17.296200
O -26.522600 -7.890000 -16.077600
C -25.719500 -7.890000 -19.481900
N -25.540200 -7.890000 -18.120600
C -25.428600 -7.890000 -21.597000
H -25.019800 -7.890000 -22.505700
N -24.748400 -7.890000 -20.440300
C -24.211500 -7.890000 -17.501100
H -24.071800 -8.696700 -16.942600
H -24.071800 -7.083300 -16.942600
H -23.555900 -7.890000 -18.227000
H -26.866900 -4.734000 -23.339800
H -26.351000 -5.540700 -24.624200
H -26.351000 -3.927300 -24.624200
C -26.211300 -4.734000 -24.065700
N -25.674400 -4.734000 -21.126500
H -25.403000 -4.734000 -19.061100
C -24.994200 -4.734000 -19.969800
N -24.882600 -4.734000 -23.446200
C -24.703300 -4.734000 -22.084900
O -23.900200 -4.734000 -25.489200
C -23.782800 -4.734000 -24.270600
N -23.668500 -4.734000 -20.152400
C -23.458500 -4.734000 -21.517600
H -23.076800 -4.734000 -18.246400
C -22.631600 -4.734000 -19.116300
N -22.528600 -4.734000 -23.661300
C -22.257000 -4.734000 -22.283500
H -22.065000 -5.495200 -19.199700
H -22.065000 -3.972800 -19.199700
H -21.567500 -4.734000 -25.390400
C -21.344500 -4.734000 -24.529300
O -21.110200 -4.734000 -21.856700
H -20.769200 -5.509100 -24.313800
H -20.769200 -3.958900 -24.313800
