24
Fragment
H -29.653600 -8.665100 -17.253000
H -29.653600 -7.114900 -17.253000
O -29.312600 -7.890000 -19.710100
C -29.078300 -7.890000 -17.037500
H -28.855300 -7.890000 -16.176400
H -28.357800 -8.651200 -22.367100
H -28.357800 -7.128800 -22.367100
C -28.165800 -7.890000 -19.283300
N -27.894200 -7.890000 -17.905500
C -27.791200 -7.890000 -22.450500
H -27.346000 -7.890000 -23.320400
C -26.964300 -7.890000 -20.049200
N -26.754300 -7.890000 -21.414400
C -26.640000 -7.890000 -17.296200
O -26.522600 -7.890000 -16.077600
C -25.719500 -7.890000 -19.481900
N -25.540200 -7.890000 -18.120600
C -25.428600 -7.890000 -21.597000
H -25.019800 -7.890000 -22.505700
N -24.748400 -7.890000 -20.440300
C -24.211500 -7.890000 -17.501100
H -24.071800 -8.696700 -16.942600
H -24.071800 -7.083300 -16.942600
H -23.555900 -7.890000 -18.227000
24
Fragment
H -21.249800 -8.665100 -17.386000
H -21.249800 -7.114900 -17.386000
O -20.908800 -7.890000 -14.928900
C -20.674500 -7.890000 -17.601500
H -20.451500 -7.890000 -18.462600
H -19.954000 -8.651200 -12.271900
H -19.954000 -7.128800 -12.271900
C -19.762000 -7.890000 -15.355700
N -19.490400 -7.890000 -16.733500
C -19.387400 -7.890000 -12.188500
H -18.942200 -7.890000 -11.318600
C -18.560500 -7.890000 -14.589800
N -18.350500 -7.890000 -13.224600
C -18.236200 -7.890000 -17.342800
O -18.118800 -7.890000 -18.561400
C -17.315700 -7.890000 -15.157100
N -17.136400 -7.890000 -16.518400
C -17.024800 -7.890000 -13.042000
H -16.616000 -7.890000 -12.133300
N -16.344600 -7.890000 -14.198700
C -15.807700 -7.890000 -17.137900
H -15.668000 -8.696700 -17.696400
H -15.668000 -7.083300 -17.696400
H -15.152100 -7.890000 -16.412000
48
Fragment
H -29.653600 -8.665100 -17.253000
H -29.653600 -7.114900 -17.253000
O -29.312600 -7.890000 -19.710100
C -29.078300 -7.890000 -17.037500
H -28.855300 -7.890000 -16.176400
H -28.357800 -8.651200 -22.367100
H -28.357800 -7.128800 -22.367100
C -28.165800 -7.890000 -19.283300
N -27.894200 -7.890000 -17.905500
C -27.791200 -7.890000 -22.450500
H -27.346000 -7.890000 -23.320400
C -26.964300 -7.890000 -20.049200
N -26.754300 -7.890000 -21.414400
C -26.640000 -7.890000 -17.296200
O -26.522600 -7.890000 -16.077600
C -25.719500 -7.890000 -19.481900
N -25.540200 -7.890000 -18.120600
C -25.428600 -7.890000 -21.597000
H -25.019800 -7.890000 -22.505700
N -24.748400 -7.890000 -20.440300
C -24.211500 -7.890000 -17.501100
H -24.071800 -8.696700 -16.942600
H -24.071800 -7.083300 -16.942600
H -23.555900 -7.890000 -18.227000
H -21.249800 -8.665100 -17.386000
H -21.249800 -7.114900 -17.386000
O -20.908800 -7.890000 -14.928900
C -20.674500 -7.890000 -17.601500
H -20.451500 -7.890000 -18.462600
H -19.954000 -8.651200 -12.271900
H -19.954000 -7.128800 -12.271900
C -19.762000 -7.890000 -15.355700
N -19.490400 -7.890000 -16.733500
C -19.387400 -7.890000 -12.188500
H -18.942200 -7.890000 -11.318600
C -18.560500 -7.890000 -14.589800
N -18.350500 -7.890000 -13.224600
C -18.236200 -7.890000 -17.342800
O -18.118800 -7.890000 -18.561400
C -17.315700 -7.890000 -15.157100
N -17.136400 -7.890000 -16.518400
C -17.024800 -7.890000 -13.042000
H -16.616000 -7.890000 -12.133300
N -16.344600 -7.890000 -14.198700
C -15.807700 -7.890000 -17.137900
H -15.668000 -8.696700 -17.696400
H -15.668000 -7.083300 -17.696400
H -15.152100 -7.890000 -16.412000
