24
Fragment
H -29.653600 -8.665100 -17.253000
H -29.653600 -7.114900 -17.253000
O -29.312600 -7.890000 -19.710100
C -29.078300 -7.890000 -17.037500
H -28.855300 -7.890000 -16.176400
H -28.357800 -8.651200 -22.367100
H -28.357800 -7.128800 -22.367100
C -28.165800 -7.890000 -19.283300
N -27.894200 -7.890000 -17.905500
C -27.791200 -7.890000 -22.450500
H -27.346000 -7.890000 -23.320400
C -26.964300 -7.890000 -20.049200
N -26.754300 -7.890000 -21.414400
C -26.640000 -7.890000 -17.296200
O -26.522600 -7.890000 -16.077600
C -25.719500 -7.890000 -19.481900
N -25.540200 -7.890000 -18.120600
C -25.428600 -7.890000 -21.597000
H -25.019800 -7.890000 -22.505700
N -24.748400 -7.890000 -20.440300
C -24.211500 -7.890000 -17.501100
H -24.071800 -8.696700 -16.942600
H -24.071800 -7.083300 -16.942600
H -23.555900 -7.890000 -18.227000
9
Fragment
H -31.566400 -7.890000 -27.967500
O -30.683800 -7.890000 -25.821600
O -30.538400 -7.890000 -28.043000
C -30.008600 -7.890000 -26.836900
C -28.510900 -7.890000 -26.916400
H -28.268700 -8.716900 -27.436900
H -28.268700 -7.063100 -27.436900
O -27.916100 -7.890000 -25.646900
H -27.060200 -7.890000 -25.783900
33
Fragment
H -29.653600 -8.665100 -17.253000
H -29.653600 -7.114900 -17.253000
O -29.312600 -7.890000 -19.710100
C -29.078300 -7.890000 -17.037500
H -28.855300 -7.890000 -16.176400
H -28.357800 -8.651200 -22.367100
H -28.357800 -7.128800 -22.367100
C -28.165800 -7.890000 -19.283300
N -27.894200 -7.890000 -17.905500
C -27.791200 -7.890000 -22.450500
H -27.346000 -7.890000 -23.320400
C -26.964300 -7.890000 -20.049200
N -26.754300 -7.890000 -21.414400
C -26.640000 -7.890000 -17.296200
O -26.522600 -7.890000 -16.077600
C -25.719500 -7.890000 -19.481900
N -25.540200 -7.890000 -18.120600
C -25.428600 -7.890000 -21.597000
H -25.019800 -7.890000 -22.505700
N -24.748400 -7.890000 -20.440300
C -24.211500 -7.890000 -17.501100
H -24.071800 -8.696700 -16.942600
H -24.071800 -7.083300 -16.942600
H -23.555900 -7.890000 -18.227000
H -31.566400 -7.890000 -27.967500
O -30.683800 -7.890000 -25.821600
O -30.538400 -7.890000 -28.043000
C -30.008600 -7.890000 -26.836900
C -28.510900 -7.890000 -26.916400
H -28.268700 -8.716900 -27.436900
H -28.268700 -7.063100 -27.436900
O -27.916100 -7.890000 -25.646900
H -27.060200 -7.890000 -25.783900
