24
Fragment
H -29.653600 -8.665100 -17.253000
H -29.653600 -7.114900 -17.253000
O -29.312600 -7.890000 -19.710100
C -29.078300 -7.890000 -17.037500
H -28.855300 -7.890000 -16.176400
H -28.357800 -8.651200 -22.367100
H -28.357800 -7.128800 -22.367100
C -28.165800 -7.890000 -19.283300
N -27.894200 -7.890000 -17.905500
C -27.791200 -7.890000 -22.450500
H -27.346000 -7.890000 -23.320400
C -26.964300 -7.890000 -20.049200
N -26.754300 -7.890000 -21.414400
C -26.640000 -7.890000 -17.296200
O -26.522600 -7.890000 -16.077600
C -25.719500 -7.890000 -19.481900
N -25.540200 -7.890000 -18.120600
C -25.428600 -7.890000 -21.597000
H -25.019800 -7.890000 -22.505700
N -24.748400 -7.890000 -20.440300
C -24.211500 -7.890000 -17.501100
H -24.071800 -8.696700 -16.942600
H -24.071800 -7.083300 -16.942600
H -23.555900 -7.890000 -18.227000
24
Fragment
H -35.270700 -11.046000 -25.154800
H -34.754800 -11.852700 -23.870400
H -34.754800 -10.239300 -23.870400
C -34.615100 -11.046000 -24.428900
N -34.078200 -11.046000 -27.368100
H -33.806800 -11.046000 -29.433500
C -33.398000 -11.046000 -28.524800
N -33.286400 -11.046000 -25.048400
C -33.107100 -11.046000 -26.409700
O -32.304000 -11.046000 -23.005400
C -32.186600 -11.046000 -24.224000
N -32.072300 -11.046000 -28.342200
C -31.862300 -11.046000 -26.977000
H -31.480600 -11.046000 -30.248200
C -31.035400 -11.046000 -29.378300
N -30.932400 -11.046000 -24.833300
C -30.660800 -11.046000 -26.211100
H -30.468800 -11.807200 -29.294900
H -30.468800 -10.284800 -29.294900
H -29.971300 -11.046000 -23.104200
C -29.748300 -11.046000 -23.965300
O -29.514000 -11.046000 -26.637900
H -29.173000 -11.821100 -24.180800
H -29.173000 -10.270900 -24.180800
48
Fragment
H -29.653600 -8.665100 -17.253000
H -29.653600 -7.114900 -17.253000
O -29.312600 -7.890000 -19.710100
C -29.078300 -7.890000 -17.037500
H -28.855300 -7.890000 -16.176400
H -28.357800 -8.651200 -22.367100
H -28.357800 -7.128800 -22.367100
C -28.165800 -7.890000 -19.283300
N -27.894200 -7.890000 -17.905500
C -27.791200 -7.890000 -22.450500
H -27.346000 -7.890000 -23.320400
C -26.964300 -7.890000 -20.049200
N -26.754300 -7.890000 -21.414400
C -26.640000 -7.890000 -17.296200
O -26.522600 -7.890000 -16.077600
C -25.719500 -7.890000 -19.481900
N -25.540200 -7.890000 -18.120600
C -25.428600 -7.890000 -21.597000
H -25.019800 -7.890000 -22.505700
N -24.748400 -7.890000 -20.440300
C -24.211500 -7.890000 -17.501100
H -24.071800 -8.696700 -16.942600
H -24.071800 -7.083300 -16.942600
H -23.555900 -7.890000 -18.227000
H -35.270700 -11.046000 -25.154800
H -34.754800 -11.852700 -23.870400
H -34.754800 -10.239300 -23.870400
C -34.615100 -11.046000 -24.428900
N -34.078200 -11.046000 -27.368100
H -33.806800 -11.046000 -29.433500
C -33.398000 -11.046000 -28.524800
N -33.286400 -11.046000 -25.048400
C -33.107100 -11.046000 -26.409700
O -32.304000 -11.046000 -23.005400
C -32.186600 -11.046000 -24.224000
N -32.072300 -11.046000 -28.342200
C -31.862300 -11.046000 -26.977000
H -31.480600 -11.046000 -30.248200
C -31.035400 -11.046000 -29.378300
N -30.932400 -11.046000 -24.833300
C -30.660800 -11.046000 -26.211100
H -30.468800 -11.807200 -29.294900
H -30.468800 -10.284800 -29.294900
H -29.971300 -11.046000 -23.104200
C -29.748300 -11.046000 -23.965300
O -29.514000 -11.046000 -26.637900
H -29.173000 -11.821100 -24.180800
H -29.173000 -10.270900 -24.180800
