22
Fragment
H -20.902500 -14.029600 -11.259200
O -20.382500 -13.173100 -11.407500
C -19.238100 -13.467800 -12.059500
H -19.229700 -15.681200 -11.736800
C -18.772300 -14.765600 -12.218800
H -18.669800 -11.331800 -12.253500
C -18.515900 -12.411100 -12.577900
C -17.587200 -14.990300 -12.886900
H -17.336900 -16.008600 -13.067700
C -17.333100 -12.649600 -13.250000
C -16.850700 -13.939300 -13.414400
H -16.612700 -11.741500 -13.609100
C -15.594500 -14.106100 -14.131900
H -15.117800 -13.191700 -14.522100
N -15.054400 -15.239500 -14.304300
N -13.836300 -15.227300 -15.013000
H -13.613900 -17.368700 -14.902800
H -13.415700 -13.194200 -15.512900
C -13.139200 -14.227200 -15.620000
C -13.098300 -16.350700 -15.195800
N -12.048000 -14.709800 -16.148100
N -12.024000 -16.065400 -15.873600
22
Fragment
H -10.867000 -17.197900 -16.509700
O -10.347000 -18.054400 -16.657900
C -9.202600 -17.759700 -17.309900
H -9.194200 -15.546300 -16.987200
C -8.736900 -16.461900 -17.469200
H -8.634300 -19.895700 -17.503900
C -8.480400 -18.816400 -17.828400
C -7.551700 -16.237200 -18.137300
H -7.301400 -15.218900 -18.318100
C -7.297600 -18.577900 -18.500400
C -6.815200 -17.288200 -18.664900
H -6.577300 -19.486000 -18.859500
C -5.559000 -17.121400 -19.382300
H -5.082300 -18.035800 -19.772500
N -5.018900 -15.988000 -19.554700
N -3.800800 -16.000200 -20.263400
H -3.578400 -13.858800 -20.153300
H -3.380200 -18.033300 -20.763400
C -3.103700 -17.000300 -20.870500
C -3.062800 -14.876800 -20.446200
N -2.012500 -16.517700 -21.398600
N -1.988500 -15.162100 -21.124100
44
Fragment
H -20.902500 -14.029600 -11.259200
O -20.382500 -13.173100 -11.407500
C -19.238100 -13.467800 -12.059500
H -19.229700 -15.681200 -11.736800
C -18.772300 -14.765600 -12.218800
H -18.669800 -11.331800 -12.253500
C -18.515900 -12.411100 -12.577900
C -17.587200 -14.990300 -12.886900
H -17.336900 -16.008600 -13.067700
C -17.333100 -12.649600 -13.250000
C -16.850700 -13.939300 -13.414400
H -16.612700 -11.741500 -13.609100
C -15.594500 -14.106100 -14.131900
H -15.117800 -13.191700 -14.522100
N -15.054400 -15.239500 -14.304300
N -13.836300 -15.227300 -15.013000
H -13.613900 -17.368700 -14.902800
H -13.415700 -13.194200 -15.512900
C -13.139200 -14.227200 -15.620000
C -13.098300 -16.350700 -15.195800
N -12.048000 -14.709800 -16.148100
N -12.024000 -16.065400 -15.873600
H -10.867000 -17.197900 -16.509700
O -10.347000 -18.054400 -16.657900
C -9.202600 -17.759700 -17.309900
H -9.194200 -15.546300 -16.987200
C -8.736900 -16.461900 -17.469200
H -8.634300 -19.895700 -17.503900
C -8.480400 -18.816400 -17.828400
C -7.551700 -16.237200 -18.137300
H -7.301400 -15.218900 -18.318100
C -7.297600 -18.577900 -18.500400
C -6.815200 -17.288200 -18.664900
H -6.577300 -19.486000 -18.859500
C -5.559000 -17.121400 -19.382300
H -5.082300 -18.035800 -19.772500
N -5.018900 -15.988000 -19.554700
N -3.800800 -16.000200 -20.263400
H -3.578400 -13.858800 -20.153300
H -3.380200 -18.033300 -20.763400
C -3.103700 -17.000300 -20.870500
C -3.062800 -14.876800 -20.446200
N -2.012500 -16.517700 -21.398600
N -1.988500 -15.162100 -21.124100
