22
Fragment
H -20.902500 -14.029600 -11.259200
O -20.382500 -13.173100 -11.407500
C -19.238100 -13.467800 -12.059500
H -19.229700 -15.681200 -11.736800
C -18.772300 -14.765600 -12.218800
H -18.669800 -11.331800 -12.253500
C -18.515900 -12.411100 -12.577900
C -17.587200 -14.990300 -12.886900
H -17.336900 -16.008600 -13.067700
C -17.333100 -12.649600 -13.250000
C -16.850700 -13.939300 -13.414400
H -16.612700 -11.741500 -13.609100
C -15.594500 -14.106100 -14.131900
H -15.117800 -13.191700 -14.522100
N -15.054400 -15.239500 -14.304300
N -13.836300 -15.227300 -15.013000
H -13.613900 -17.368700 -14.902800
H -13.415700 -13.194200 -15.512900
C -13.139200 -14.227200 -15.620000
C -13.098300 -16.350700 -15.195800
N -12.048000 -14.709800 -16.148100
N -12.024000 -16.065400 -15.873600
22
Fragment
H -27.969500 -7.784100 -11.259200
O -27.449500 -6.927600 -11.407500
C -26.305100 -7.222300 -12.059500
H -26.296700 -9.435700 -11.736800
C -25.839300 -8.520100 -12.218800
H -25.736800 -5.086300 -12.253500
C -25.582900 -6.165600 -12.577900
C -24.654200 -8.744800 -12.886900
H -24.403900 -9.763100 -13.067700
C -24.400100 -6.404100 -13.250000
C -23.917700 -7.693800 -13.414400
H -23.679700 -5.496000 -13.609100
C -22.661500 -7.860600 -14.131900
H -22.184800 -6.946200 -14.522100
N -22.121400 -8.994000 -14.304300
N -20.903300 -8.981800 -15.013000
H -20.680900 -11.123200 -14.902800
H -20.482700 -6.948700 -15.512900
C -20.206200 -7.981700 -15.620000
C -20.165300 -10.105200 -15.195800
N -19.115000 -8.464300 -16.148100
N -19.091000 -9.819900 -15.873600
44
Fragment
H -20.902500 -14.029600 -11.259200
O -20.382500 -13.173100 -11.407500
C -19.238100 -13.467800 -12.059500
H -19.229700 -15.681200 -11.736800
C -18.772300 -14.765600 -12.218800
H -18.669800 -11.331800 -12.253500
C -18.515900 -12.411100 -12.577900
C -17.587200 -14.990300 -12.886900
H -17.336900 -16.008600 -13.067700
C -17.333100 -12.649600 -13.250000
C -16.850700 -13.939300 -13.414400
H -16.612700 -11.741500 -13.609100
C -15.594500 -14.106100 -14.131900
H -15.117800 -13.191700 -14.522100
N -15.054400 -15.239500 -14.304300
N -13.836300 -15.227300 -15.013000
H -13.613900 -17.368700 -14.902800
H -13.415700 -13.194200 -15.512900
C -13.139200 -14.227200 -15.620000
C -13.098300 -16.350700 -15.195800
N -12.048000 -14.709800 -16.148100
N -12.024000 -16.065400 -15.873600
H -27.969500 -7.784100 -11.259200
O -27.449500 -6.927600 -11.407500
C -26.305100 -7.222300 -12.059500
H -26.296700 -9.435700 -11.736800
C -25.839300 -8.520100 -12.218800
H -25.736800 -5.086300 -12.253500
C -25.582900 -6.165600 -12.577900
C -24.654200 -8.744800 -12.886900
H -24.403900 -9.763100 -13.067700
C -24.400100 -6.404100 -13.250000
C -23.917700 -7.693800 -13.414400
H -23.679700 -5.496000 -13.609100
C -22.661500 -7.860600 -14.131900
H -22.184800 -6.946200 -14.522100
N -22.121400 -8.994000 -14.304300
N -20.903300 -8.981800 -15.013000
H -20.680900 -11.123200 -14.902800
H -20.482700 -6.948700 -15.512900
C -20.206200 -7.981700 -15.620000
C -20.165300 -10.105200 -15.195800
N -19.115000 -8.464300 -16.148100
N -19.091000 -9.819900 -15.873600
