22
Fragment
H -20.902500 -14.029600 -11.259200
O -20.382500 -13.173100 -11.407500
C -19.238100 -13.467800 -12.059500
H -19.229700 -15.681200 -11.736800
C -18.772300 -14.765600 -12.218800
H -18.669800 -11.331800 -12.253500
C -18.515900 -12.411100 -12.577900
C -17.587200 -14.990300 -12.886900
H -17.336900 -16.008600 -13.067700
C -17.333100 -12.649600 -13.250000
C -16.850700 -13.939300 -13.414400
H -16.612700 -11.741500 -13.609100
C -15.594500 -14.106100 -14.131900
H -15.117800 -13.191700 -14.522100
N -15.054400 -15.239500 -14.304300
N -13.836300 -15.227300 -15.013000
H -13.613900 -17.368700 -14.902800
H -13.415700 -13.194200 -15.512900
C -13.139200 -14.227200 -15.620000
C -13.098300 -16.350700 -15.195800
N -12.048000 -14.709800 -16.148100
N -12.024000 -16.065400 -15.873600
22
Fragment
H -30.938000 -17.197900 -6.008800
O -30.418000 -18.054400 -6.157100
C -29.273600 -17.759700 -6.809100
H -29.265200 -15.546300 -6.486400
C -28.807800 -16.461900 -6.968400
H -28.705300 -19.895700 -7.003000
C -28.551400 -18.816400 -7.327500
C -27.622700 -16.237200 -7.636400
H -27.372400 -15.218900 -7.817300
C -27.368600 -18.577900 -7.999600
C -26.886200 -17.288200 -8.164000
H -26.648200 -19.486000 -8.358700
C -25.630000 -17.121400 -8.881400
H -25.153300 -18.035800 -9.271600
N -25.089900 -15.988000 -9.053800
N -23.871800 -16.000200 -9.762500
H -23.649400 -13.858800 -9.652400
H -23.451200 -18.033300 -10.262500
C -23.174700 -17.000300 -10.369600
C -23.133800 -14.876800 -9.945400
N -22.083500 -16.517700 -10.897700
N -22.059400 -15.162100 -10.623200
44
Fragment
H -20.902500 -14.029600 -11.259200
O -20.382500 -13.173100 -11.407500
C -19.238100 -13.467800 -12.059500
H -19.229700 -15.681200 -11.736800
C -18.772300 -14.765600 -12.218800
H -18.669800 -11.331800 -12.253500
C -18.515900 -12.411100 -12.577900
C -17.587200 -14.990300 -12.886900
H -17.336900 -16.008600 -13.067700
C -17.333100 -12.649600 -13.250000
C -16.850700 -13.939300 -13.414400
H -16.612700 -11.741500 -13.609100
C -15.594500 -14.106100 -14.131900
H -15.117800 -13.191700 -14.522100
N -15.054400 -15.239500 -14.304300
N -13.836300 -15.227300 -15.013000
H -13.613900 -17.368700 -14.902800
H -13.415700 -13.194200 -15.512900
C -13.139200 -14.227200 -15.620000
C -13.098300 -16.350700 -15.195800
N -12.048000 -14.709800 -16.148100
N -12.024000 -16.065400 -15.873600
H -30.938000 -17.197900 -6.008800
O -30.418000 -18.054400 -6.157100
C -29.273600 -17.759700 -6.809100
H -29.265200 -15.546300 -6.486400
C -28.807800 -16.461900 -6.968400
H -28.705300 -19.895700 -7.003000
C -28.551400 -18.816400 -7.327500
C -27.622700 -16.237200 -7.636400
H -27.372400 -15.218900 -7.817300
C -27.368600 -18.577900 -7.999600
C -26.886200 -17.288200 -8.164000
H -26.648200 -19.486000 -8.358700
C -25.630000 -17.121400 -8.881400
H -25.153300 -18.035800 -9.271600
N -25.089900 -15.988000 -9.053800
N -23.871800 -16.000200 -9.762500
H -23.649400 -13.858800 -9.652400
H -23.451200 -18.033300 -10.262500
C -23.174700 -17.000300 -10.369600
C -23.133800 -14.876800 -9.945400
N -22.083500 -16.517700 -10.897700
N -22.059400 -15.162100 -10.623200
