22
Fragment
H -20.902500 -14.029600 -11.259200
O -20.382500 -13.173100 -11.407500
C -19.238100 -13.467800 -12.059500
H -19.229700 -15.681200 -11.736800
C -18.772300 -14.765600 -12.218800
H -18.669800 -11.331800 -12.253500
C -18.515900 -12.411100 -12.577900
C -17.587200 -14.990300 -12.886900
H -17.336900 -16.008600 -13.067700
C -17.333100 -12.649600 -13.250000
C -16.850700 -13.939300 -13.414400
H -16.612700 -11.741500 -13.609100
C -15.594500 -14.106100 -14.131900
H -15.117800 -13.191700 -14.522100
N -15.054400 -15.239500 -14.304300
N -13.836300 -15.227300 -15.013000
H -13.613900 -17.368700 -14.902800
H -13.415700 -13.194200 -15.512900
C -13.139200 -14.227200 -15.620000
C -13.098300 -16.350700 -15.195800
N -12.048000 -14.709800 -16.148100
N -12.024000 -16.065400 -15.873600
22
Fragment
N -19.634100 -15.162100 -15.629000
N -19.610100 -16.517700 -15.354500
C -18.559700 -14.876800 -16.306800
C -18.518800 -17.000300 -15.882600
H -18.242300 -18.033300 -15.989700
H -18.044100 -13.858800 -16.599800
N -17.821700 -16.000200 -16.489600
N -16.603700 -15.988000 -17.198300
H -16.540200 -18.035800 -16.980500
C -16.063500 -17.121400 -17.370700
H -15.045300 -19.486000 -17.893500
C -14.807300 -17.288200 -18.088200
C -14.324900 -18.577900 -18.252600
H -14.321100 -15.218900 -18.434900
C -14.070900 -16.237200 -18.615700
C -13.142200 -18.816400 -18.924700
H -12.988200 -19.895700 -19.249100
C -12.885700 -16.461900 -19.283800
H -12.428300 -15.546300 -19.765800
C -12.419900 -17.759700 -19.443100
O -11.275500 -18.054400 -20.095100
H -10.755500 -17.197900 -20.243400
44
Fragment
H -20.902500 -14.029600 -11.259200
O -20.382500 -13.173100 -11.407500
C -19.238100 -13.467800 -12.059500
H -19.229700 -15.681200 -11.736800
C -18.772300 -14.765600 -12.218800
H -18.669800 -11.331800 -12.253500
C -18.515900 -12.411100 -12.577900
C -17.587200 -14.990300 -12.886900
H -17.336900 -16.008600 -13.067700
C -17.333100 -12.649600 -13.250000
C -16.850700 -13.939300 -13.414400
H -16.612700 -11.741500 -13.609100
C -15.594500 -14.106100 -14.131900
H -15.117800 -13.191700 -14.522100
N -15.054400 -15.239500 -14.304300
N -13.836300 -15.227300 -15.013000
H -13.613900 -17.368700 -14.902800
H -13.415700 -13.194200 -15.512900
C -13.139200 -14.227200 -15.620000
C -13.098300 -16.350700 -15.195800
N -12.048000 -14.709800 -16.148100
N -12.024000 -16.065400 -15.873600
N -19.634100 -15.162100 -15.629000
N -19.610100 -16.517700 -15.354500
C -18.559700 -14.876800 -16.306800
C -18.518800 -17.000300 -15.882600
H -18.242300 -18.033300 -15.989700
H -18.044100 -13.858800 -16.599800
N -17.821700 -16.000200 -16.489600
N -16.603700 -15.988000 -17.198300
H -16.540200 -18.035800 -16.980500
C -16.063500 -17.121400 -17.370700
H -15.045300 -19.486000 -17.893500
C -14.807300 -17.288200 -18.088200
C -14.324900 -18.577900 -18.252600
H -14.321100 -15.218900 -18.434900
C -14.070900 -16.237200 -18.615700
C -13.142200 -18.816400 -18.924700
H -12.988200 -19.895700 -19.249100
C -12.885700 -16.461900 -19.283800
H -12.428300 -15.546300 -19.765800
C -12.419900 -17.759700 -19.443100
O -11.275500 -18.054400 -20.095100
H -10.755500 -17.197900 -20.243400
