22
Fragment
H -20.902500 -14.029600 -11.259200
O -20.382500 -13.173100 -11.407500
C -19.238100 -13.467800 -12.059500
H -19.229700 -15.681200 -11.736800
C -18.772300 -14.765600 -12.218800
H -18.669800 -11.331800 -12.253500
C -18.515900 -12.411100 -12.577900
C -17.587200 -14.990300 -12.886900
H -17.336900 -16.008600 -13.067700
C -17.333100 -12.649600 -13.250000
C -16.850700 -13.939300 -13.414400
H -16.612700 -11.741500 -13.609100
C -15.594500 -14.106100 -14.131900
H -15.117800 -13.191700 -14.522100
N -15.054400 -15.239500 -14.304300
N -13.836300 -15.227300 -15.013000
H -13.613900 -17.368700 -14.902800
H -13.415700 -13.194200 -15.512900
C -13.139200 -14.227200 -15.620000
C -13.098300 -16.350700 -15.195800
N -12.048000 -14.709800 -16.148100
N -12.024000 -16.065400 -15.873600
22
Fragment
N -22.602600 -22.310900 -10.378500
N -22.578500 -20.955300 -10.104000
C -21.528200 -22.596200 -11.056400
C -21.487300 -20.472700 -10.632100
H -21.210800 -19.439700 -10.739200
H -21.012600 -23.614200 -11.349300
N -20.790200 -21.472800 -11.239200
N -19.572200 -21.485000 -11.947900
H -19.508700 -19.437200 -11.730100
C -19.032000 -20.351600 -12.120300
H -18.013800 -17.987000 -12.643000
C -17.775800 -20.184800 -12.837700
C -17.293400 -18.895100 -13.002200
H -17.289600 -22.254100 -13.184500
C -17.039400 -21.235800 -13.365300
C -16.110600 -18.656600 -13.674200
H -15.956700 -17.577300 -13.998700
C -15.854200 -21.011100 -14.033400
H -15.396800 -21.926700 -14.515300
C -15.388400 -19.713300 -14.192700
O -14.244000 -19.418600 -14.844600
H -13.724000 -20.275100 -14.992900
44
Fragment
H -20.902500 -14.029600 -11.259200
O -20.382500 -13.173100 -11.407500
C -19.238100 -13.467800 -12.059500
H -19.229700 -15.681200 -11.736800
C -18.772300 -14.765600 -12.218800
H -18.669800 -11.331800 -12.253500
C -18.515900 -12.411100 -12.577900
C -17.587200 -14.990300 -12.886900
H -17.336900 -16.008600 -13.067700
C -17.333100 -12.649600 -13.250000
C -16.850700 -13.939300 -13.414400
H -16.612700 -11.741500 -13.609100
C -15.594500 -14.106100 -14.131900
H -15.117800 -13.191700 -14.522100
N -15.054400 -15.239500 -14.304300
N -13.836300 -15.227300 -15.013000
H -13.613900 -17.368700 -14.902800
H -13.415700 -13.194200 -15.512900
C -13.139200 -14.227200 -15.620000
C -13.098300 -16.350700 -15.195800
N -12.048000 -14.709800 -16.148100
N -12.024000 -16.065400 -15.873600
N -22.602600 -22.310900 -10.378500
N -22.578500 -20.955300 -10.104000
C -21.528200 -22.596200 -11.056400
C -21.487300 -20.472700 -10.632100
H -21.210800 -19.439700 -10.739200
H -21.012600 -23.614200 -11.349300
N -20.790200 -21.472800 -11.239200
N -19.572200 -21.485000 -11.947900
H -19.508700 -19.437200 -11.730100
C -19.032000 -20.351600 -12.120300
H -18.013800 -17.987000 -12.643000
C -17.775800 -20.184800 -12.837700
C -17.293400 -18.895100 -13.002200
H -17.289600 -22.254100 -13.184500
C -17.039400 -21.235800 -13.365300
C -16.110600 -18.656600 -13.674200
H -15.956700 -17.577300 -13.998700
C -15.854200 -21.011100 -14.033400
H -15.396800 -21.926700 -14.515300
C -15.388400 -19.713300 -14.192700
O -14.244000 -19.418600 -14.844600
H -13.724000 -20.275100 -14.992900
