22
Fragment
H -20.902500 -14.029600 -11.259200
O -20.382500 -13.173100 -11.407500
C -19.238100 -13.467800 -12.059500
H -19.229700 -15.681200 -11.736800
C -18.772300 -14.765600 -12.218800
H -18.669800 -11.331800 -12.253500
C -18.515900 -12.411100 -12.577900
C -17.587200 -14.990300 -12.886900
H -17.336900 -16.008600 -13.067700
C -17.333100 -12.649600 -13.250000
C -16.850700 -13.939300 -13.414400
H -16.612700 -11.741500 -13.609100
C -15.594500 -14.106100 -14.131900
H -15.117800 -13.191700 -14.522100
N -15.054400 -15.239500 -14.304300
N -13.836300 -15.227300 -15.013000
H -13.613900 -17.368700 -14.902800
H -13.415700 -13.194200 -15.512900
C -13.139200 -14.227200 -15.620000
C -13.098300 -16.350700 -15.195800
N -12.048000 -14.709800 -16.148100
N -12.024000 -16.065400 -15.873600
3
Fragment
H -21.166200 -17.365000 -12.318600
O -20.846800 -17.897100 -13.126100
H -20.527300 -17.365000 -13.933600
25
Fragment
H -20.902500 -14.029600 -11.259200
O -20.382500 -13.173100 -11.407500
C -19.238100 -13.467800 -12.059500
H -19.229700 -15.681200 -11.736800
C -18.772300 -14.765600 -12.218800
H -18.669800 -11.331800 -12.253500
C -18.515900 -12.411100 -12.577900
C -17.587200 -14.990300 -12.886900
H -17.336900 -16.008600 -13.067700
C -17.333100 -12.649600 -13.250000
C -16.850700 -13.939300 -13.414400
H -16.612700 -11.741500 -13.609100
C -15.594500 -14.106100 -14.131900
H -15.117800 -13.191700 -14.522100
N -15.054400 -15.239500 -14.304300
N -13.836300 -15.227300 -15.013000
H -13.613900 -17.368700 -14.902800
H -13.415700 -13.194200 -15.512900
C -13.139200 -14.227200 -15.620000
C -13.098300 -16.350700 -15.195800
N -12.048000 -14.709800 -16.148100
N -12.024000 -16.065400 -15.873600
H -21.166200 -17.365000 -12.318600
O -20.846800 -17.897100 -13.126100
H -20.527300 -17.365000 -13.933600
