22
Fragment
H -20.902500 -14.029600 -11.259200
O -20.382500 -13.173100 -11.407500
C -19.238100 -13.467800 -12.059500
H -19.229700 -15.681200 -11.736800
C -18.772300 -14.765600 -12.218800
H -18.669800 -11.331800 -12.253500
C -18.515900 -12.411100 -12.577900
C -17.587200 -14.990300 -12.886900
H -17.336900 -16.008600 -13.067700
C -17.333100 -12.649600 -13.250000
C -16.850700 -13.939300 -13.414400
H -16.612700 -11.741500 -13.609100
C -15.594500 -14.106100 -14.131900
H -15.117800 -13.191700 -14.522100
N -15.054400 -15.239500 -14.304300
N -13.836300 -15.227300 -15.013000
H -13.613900 -17.368700 -14.902800
H -13.415700 -13.194200 -15.512900
C -13.139200 -14.227200 -15.620000
C -13.098300 -16.350700 -15.195800
N -12.048000 -14.709800 -16.148100
N -12.024000 -16.065400 -15.873600
22
Fragment
N -25.571100 -15.162100 -5.128100
N -25.547000 -16.517700 -4.853600
C -24.496700 -14.876800 -5.805900
C -24.455800 -17.000300 -5.381700
H -24.179300 -18.033300 -5.488800
H -23.981100 -13.858800 -6.098900
N -23.758700 -16.000200 -5.988700
N -22.540600 -15.988000 -6.697500
H -22.477200 -18.035800 -6.479700
C -22.000500 -17.121400 -6.869900
H -20.982300 -19.486000 -7.392600
C -20.744300 -17.288200 -7.587300
C -20.261900 -18.577900 -7.751700
H -20.258100 -15.218900 -7.934000
C -20.007900 -16.237200 -8.114900
C -19.079100 -18.816400 -8.423800
H -18.925200 -19.895700 -8.748300
C -18.822700 -16.461900 -8.782900
H -18.365300 -15.546300 -9.264900
C -18.356900 -17.759700 -8.942200
O -17.212500 -18.054400 -9.594200
H -16.692500 -17.197900 -9.742500
44
Fragment
H -20.902500 -14.029600 -11.259200
O -20.382500 -13.173100 -11.407500
C -19.238100 -13.467800 -12.059500
H -19.229700 -15.681200 -11.736800
C -18.772300 -14.765600 -12.218800
H -18.669800 -11.331800 -12.253500
C -18.515900 -12.411100 -12.577900
C -17.587200 -14.990300 -12.886900
H -17.336900 -16.008600 -13.067700
C -17.333100 -12.649600 -13.250000
C -16.850700 -13.939300 -13.414400
H -16.612700 -11.741500 -13.609100
C -15.594500 -14.106100 -14.131900
H -15.117800 -13.191700 -14.522100
N -15.054400 -15.239500 -14.304300
N -13.836300 -15.227300 -15.013000
H -13.613900 -17.368700 -14.902800
H -13.415700 -13.194200 -15.512900
C -13.139200 -14.227200 -15.620000
C -13.098300 -16.350700 -15.195800
N -12.048000 -14.709800 -16.148100
N -12.024000 -16.065400 -15.873600
N -25.571100 -15.162100 -5.128100
N -25.547000 -16.517700 -4.853600
C -24.496700 -14.876800 -5.805900
C -24.455800 -17.000300 -5.381700
H -24.179300 -18.033300 -5.488800
H -23.981100 -13.858800 -6.098900
N -23.758700 -16.000200 -5.988700
N -22.540600 -15.988000 -6.697500
H -22.477200 -18.035800 -6.479700
C -22.000500 -17.121400 -6.869900
H -20.982300 -19.486000 -7.392600
C -20.744300 -17.288200 -7.587300
C -20.261900 -18.577900 -7.751700
H -20.258100 -15.218900 -7.934000
C -20.007900 -16.237200 -8.114900
C -19.079100 -18.816400 -8.423800
H -18.925200 -19.895700 -8.748300
C -18.822700 -16.461900 -8.782900
H -18.365300 -15.546300 -9.264900
C -18.356900 -17.759700 -8.942200
O -17.212500 -18.054400 -9.594200
H -16.692500 -17.197900 -9.742500
