13
Fragment
H -8.992300 -13.568600 -11.639600
H -8.844400 -11.196100 -11.725800
C -7.973100 -13.580800 -11.996900
N -7.878500 -11.191300 -12.034800
H -7.758900 -15.712100 -12.121800
H -7.390200 -10.322400 -12.240100
C -7.309400 -14.731400 -12.256400
C -7.264600 -12.356300 -12.225900
N -6.020500 -14.704500 -12.682000
N -5.978400 -12.346000 -12.623700
H -5.519700 -15.591700 -12.868000
C -5.346300 -13.520600 -12.838700
O -4.126500 -13.566600 -13.159600
13
Fragment
O -7.188700 -15.923400 -8.977000
C -5.969000 -15.969400 -9.297900
H -5.795500 -13.898300 -9.268600
N -5.336800 -17.144000 -9.512800
N -5.294700 -14.785500 -9.454600
C -4.050600 -17.133700 -9.910600
C -4.005900 -14.758600 -9.880100
H -3.925000 -19.167600 -9.896400
H -3.556300 -13.777900 -10.014700
N -3.436700 -18.298700 -10.101800
C -3.342200 -15.909200 -10.139600
H -2.470800 -18.293900 -10.410700
H -2.322900 -15.921400 -10.496900
26
Fragment
H -8.992300 -13.568600 -11.639600
H -8.844400 -11.196100 -11.725800
C -7.973100 -13.580800 -11.996900
N -7.878500 -11.191300 -12.034800
H -7.758900 -15.712100 -12.121800
H -7.390200 -10.322400 -12.240100
C -7.309400 -14.731400 -12.256400
C -7.264600 -12.356300 -12.225900
N -6.020500 -14.704500 -12.682000
N -5.978400 -12.346000 -12.623700
H -5.519700 -15.591700 -12.868000
C -5.346300 -13.520600 -12.838700
O -4.126500 -13.566600 -13.159600
O -7.188700 -15.923400 -8.977000
C -5.969000 -15.969400 -9.297900
H -5.795500 -13.898300 -9.268600
N -5.336800 -17.144000 -9.512800
N -5.294700 -14.785500 -9.454600
C -4.050600 -17.133700 -9.910600
C -4.005900 -14.758600 -9.880100
H -3.925000 -19.167600 -9.896400
H -3.556300 -13.777900 -10.014700
N -3.436700 -18.298700 -10.101800
C -3.342200 -15.909200 -10.139600
H -2.470800 -18.293900 -10.410700
H -2.322900 -15.921400 -10.496900
