13
Fragment
H -8.992300 -13.568600 -11.639600
H -8.844400 -11.196100 -11.725800
C -7.973100 -13.580800 -11.996900
N -7.878500 -11.191300 -12.034800
H -7.758900 -15.712100 -12.121800
H -7.390200 -10.322400 -12.240100
C -7.309400 -14.731400 -12.256400
C -7.264600 -12.356300 -12.225900
N -6.020500 -14.704500 -12.682000
N -5.978400 -12.346000 -12.623700
H -5.519700 -15.591700 -12.868000
C -5.346300 -13.520600 -12.838700
O -4.126500 -13.566600 -13.159600
13
Fragment
O -14.216600 -18.481600 -12.666400
C -12.996800 -18.435600 -12.987300
H -12.823400 -20.506700 -12.958000
N -12.364700 -17.261000 -13.202200
N -12.322600 -19.619500 -13.144000
C -11.078500 -17.271300 -13.600000
C -11.033700 -19.646400 -13.569600
H -10.952900 -15.237400 -13.585900
H -10.584200 -20.627100 -13.704100
N -10.464600 -16.106300 -13.791200
C -10.370000 -18.495800 -13.829100
H -9.498700 -16.111100 -14.100200
H -9.350800 -18.483600 -14.186400
26
Fragment
H -8.992300 -13.568600 -11.639600
H -8.844400 -11.196100 -11.725800
C -7.973100 -13.580800 -11.996900
N -7.878500 -11.191300 -12.034800
H -7.758900 -15.712100 -12.121800
H -7.390200 -10.322400 -12.240100
C -7.309400 -14.731400 -12.256400
C -7.264600 -12.356300 -12.225900
N -6.020500 -14.704500 -12.682000
N -5.978400 -12.346000 -12.623700
H -5.519700 -15.591700 -12.868000
C -5.346300 -13.520600 -12.838700
O -4.126500 -13.566600 -13.159600
O -14.216600 -18.481600 -12.666400
C -12.996800 -18.435600 -12.987300
H -12.823400 -20.506700 -12.958000
N -12.364700 -17.261000 -13.202200
N -12.322600 -19.619500 -13.144000
C -11.078500 -17.271300 -13.600000
C -11.033700 -19.646400 -13.569600
H -10.952900 -15.237400 -13.585900
H -10.584200 -20.627100 -13.704100
N -10.464600 -16.106300 -13.791200
C -10.370000 -18.495800 -13.829100
H -9.498700 -16.111100 -14.100200
H -9.350800 -18.483600 -14.186400
