13
Fragment
O -10.437300 -13.541100 -12.765600
C -9.220600 -13.499400 -13.083400
H -8.978900 -15.447100 -13.083300
N -8.583100 -12.325600 -13.299700
N -8.545300 -14.683300 -13.246400
C -7.297900 -12.342700 -13.700600
C -7.256700 -14.706700 -13.676800
H -7.117000 -10.463800 -13.707800
H -6.827800 -15.522800 -13.800700
N -6.683300 -11.180700 -13.890900
C -6.598000 -13.569400 -13.924000
H -5.845600 -11.217200 -14.191000
H -5.719400 -13.575800 -14.229600
13
Fragment
H -5.038500 -8.664200 -11.788400
H -4.912400 -6.305600 -11.827000
C -4.160000 -8.657800 -12.094000
N -4.074600 -6.269000 -12.127100
H -3.930100 -10.611100 -12.217300
H -3.640900 -5.552100 -12.310200
C -3.501300 -9.795000 -12.341200
C -3.460100 -7.431000 -12.317400
N -2.212700 -9.771600 -12.771600
N -2.174900 -7.413900 -12.718300
H -1.779100 -10.535500 -12.934700
C -1.537400 -8.587700 -12.934600
O -0.320600 -8.629500 -13.252500
26
Fragment
O -10.437300 -13.541100 -12.765600
C -9.220600 -13.499400 -13.083400
H -8.978900 -15.447100 -13.083300
N -8.583100 -12.325600 -13.299700
N -8.545300 -14.683300 -13.246400
C -7.297900 -12.342700 -13.700600
C -7.256700 -14.706700 -13.676800
H -7.117000 -10.463800 -13.707800
H -6.827800 -15.522800 -13.800700
N -6.683300 -11.180700 -13.890900
C -6.598000 -13.569400 -13.924000
H -5.845600 -11.217200 -14.191000
H -5.719400 -13.575800 -14.229600
H -5.038500 -8.664200 -11.788400
H -4.912400 -6.305600 -11.827000
C -4.160000 -8.657800 -12.094000
N -4.074600 -6.269000 -12.127100
H -3.930100 -10.611100 -12.217300
H -3.640900 -5.552100 -12.310200
C -3.501300 -9.795000 -12.341200
C -3.460100 -7.431000 -12.317400
N -2.212700 -9.771600 -12.771600
N -2.174900 -7.413900 -12.718300
H -1.779100 -10.535500 -12.934700
C -1.537400 -8.587700 -12.934600
O -0.320600 -8.629500 -13.252500
