13
Fragment
H -8.992300 -13.568600 -11.639600
H -8.844400 -11.196100 -11.725800
C -7.973100 -13.580800 -11.996900
N -7.878500 -11.191300 -12.034800
H -7.758900 -15.712100 -12.121800
H -7.390200 -10.322400 -12.240100
C -7.309400 -14.731400 -12.256400
C -7.264600 -12.356300 -12.225900
N -6.020500 -14.704500 -12.682000
N -5.978400 -12.346000 -12.623700
H -5.519700 -15.591700 -12.868000
C -5.346300 -13.520600 -12.838700
O -4.126500 -13.566600 -13.159600
13
Fragment
H -8.307200 -11.006400 -15.329000
H -8.159300 -13.378900 -15.415200
C -7.288000 -10.994200 -15.686300
N -7.193400 -13.383700 -15.724200
H -7.073800 -8.862900 -15.811300
H -6.705100 -14.252600 -15.929500
C -6.624300 -9.843600 -15.945800
C -6.579500 -12.218700 -15.915400
N -5.335400 -9.870500 -16.371400
N -5.293300 -12.229000 -16.313200
H -4.834600 -8.983300 -16.557400
C -4.661200 -11.054400 -16.528100
O -3.441400 -11.008400 -16.849000
26
Fragment
H -8.992300 -13.568600 -11.639600
H -8.844400 -11.196100 -11.725800
C -7.973100 -13.580800 -11.996900
N -7.878500 -11.191300 -12.034800
H -7.758900 -15.712100 -12.121800
H -7.390200 -10.322400 -12.240100
C -7.309400 -14.731400 -12.256400
C -7.264600 -12.356300 -12.225900
N -6.020500 -14.704500 -12.682000
N -5.978400 -12.346000 -12.623700
H -5.519700 -15.591700 -12.868000
C -5.346300 -13.520600 -12.838700
O -4.126500 -13.566600 -13.159600
H -8.307200 -11.006400 -15.329000
H -8.159300 -13.378900 -15.415200
C -7.288000 -10.994200 -15.686300
N -7.193400 -13.383700 -15.724200
H -7.073800 -8.862900 -15.811300
H -6.705100 -14.252600 -15.929500
C -6.624300 -9.843600 -15.945800
C -6.579500 -12.218700 -15.915400
N -5.335400 -9.870500 -16.371400
N -5.293300 -12.229000 -16.313200
H -4.834600 -8.983300 -16.557400
C -4.661200 -11.054400 -16.528100
O -3.441400 -11.008400 -16.849000
