13
Fragment
H -8.992300 -13.568600 -11.639600
H -8.844400 -11.196100 -11.725800
C -7.973100 -13.580800 -11.996900
N -7.878500 -11.191300 -12.034800
H -7.758900 -15.712100 -12.121800
H -7.390200 -10.322400 -12.240100
C -7.309400 -14.731400 -12.256400
C -7.264600 -12.356300 -12.225900
N -6.020500 -14.704500 -12.682000
N -5.978400 -12.346000 -12.623700
H -5.519700 -15.591700 -12.868000
C -5.346300 -13.520600 -12.838700
O -4.126500 -13.566600 -13.159600
13
Fragment
H -16.705300 -13.568600 -11.639600
H -16.557400 -11.196100 -11.725800
C -15.686100 -13.580800 -11.996900
N -15.591500 -11.191300 -12.034800
H -15.471900 -15.712100 -12.121800
H -15.103200 -10.322400 -12.240100
C -15.022400 -14.731400 -12.256400
C -14.977600 -12.356300 -12.225900
N -13.733500 -14.704500 -12.682000
N -13.691400 -12.346000 -12.623700
H -13.232700 -15.591700 -12.868000
C -13.059300 -13.520600 -12.838700
O -11.839500 -13.566600 -13.159600
26
Fragment
H -8.992300 -13.568600 -11.639600
H -8.844400 -11.196100 -11.725800
C -7.973100 -13.580800 -11.996900
N -7.878500 -11.191300 -12.034800
H -7.758900 -15.712100 -12.121800
H -7.390200 -10.322400 -12.240100
C -7.309400 -14.731400 -12.256400
C -7.264600 -12.356300 -12.225900
N -6.020500 -14.704500 -12.682000
N -5.978400 -12.346000 -12.623700
H -5.519700 -15.591700 -12.868000
C -5.346300 -13.520600 -12.838700
O -4.126500 -13.566600 -13.159600
H -16.705300 -13.568600 -11.639600
H -16.557400 -11.196100 -11.725800
C -15.686100 -13.580800 -11.996900
N -15.591500 -11.191300 -12.034800
H -15.471900 -15.712100 -12.121800
H -15.103200 -10.322400 -12.240100
C -15.022400 -14.731400 -12.256400
C -14.977600 -12.356300 -12.225900
N -13.733500 -14.704500 -12.682000
N -13.691400 -12.346000 -12.623700
H -13.232700 -15.591700 -12.868000
C -13.059300 -13.520600 -12.838700
O -11.839500 -13.566600 -13.159600
