13
Fragment
O -10.437300 -13.541100 -12.765600
C -9.220600 -13.499400 -13.083400
H -8.978900 -15.447100 -13.083300
N -8.583100 -12.325600 -13.299700
N -8.545300 -14.683300 -13.246400
C -7.297900 -12.342700 -13.700600
C -7.256700 -14.706700 -13.676800
H -7.117000 -10.463800 -13.707800
H -6.827800 -15.522800 -13.800700
N -6.683300 -11.180700 -13.890900
C -6.598000 -13.569400 -13.924000
H -5.845600 -11.217200 -14.191000
H -5.719400 -13.575800 -14.229600
13
Fragment
H -12.776000 -8.664200 -11.788400
H -12.649900 -6.305600 -11.827000
C -11.897500 -8.657800 -12.094000
N -11.812100 -6.269000 -12.127100
H -11.667600 -10.611100 -12.217300
H -11.378400 -5.552100 -12.310200
C -11.238800 -9.795000 -12.341200
C -11.197600 -7.431000 -12.317400
N -9.950200 -9.771600 -12.771600
N -9.912400 -7.413900 -12.718300
H -9.516600 -10.535500 -12.934700
C -9.274900 -8.587700 -12.934600
O -8.058100 -8.629500 -13.252500
26
Fragment
O -10.437300 -13.541100 -12.765600
C -9.220600 -13.499400 -13.083400
H -8.978900 -15.447100 -13.083300
N -8.583100 -12.325600 -13.299700
N -8.545300 -14.683300 -13.246400
C -7.297900 -12.342700 -13.700600
C -7.256700 -14.706700 -13.676800
H -7.117000 -10.463800 -13.707800
H -6.827800 -15.522800 -13.800700
N -6.683300 -11.180700 -13.890900
C -6.598000 -13.569400 -13.924000
H -5.845600 -11.217200 -14.191000
H -5.719400 -13.575800 -14.229600
H -12.776000 -8.664200 -11.788400
H -12.649900 -6.305600 -11.827000
C -11.897500 -8.657800 -12.094000
N -11.812100 -6.269000 -12.127100
H -11.667600 -10.611100 -12.217300
H -11.378400 -5.552100 -12.310200
C -11.238800 -9.795000 -12.341200
C -11.197600 -7.431000 -12.317400
N -9.950200 -9.771600 -12.771600
N -9.912400 -7.413900 -12.718300
H -9.516600 -10.535500 -12.934700
C -9.274900 -8.587700 -12.934600
O -8.058100 -8.629500 -13.252500
