52
Fragment
H -31.189100 -16.993800 -11.800900
H -30.229100 -19.018000 -12.175700
H -30.229100 -14.969500 -12.175700
C -30.207900 -16.993800 -11.906000
H -30.151200 -18.274400 -13.567800
H -30.151200 -15.713100 -13.567800
H -29.837700 -16.993800 -11.023400
C -29.821600 -18.282800 -12.618800
C -29.821600 -15.704700 -12.618800
N -28.383300 -18.529000 -12.686000
N -28.383300 -15.458500 -12.686000
O -28.156600 -19.256400 -10.538300
O -28.156600 -14.731100 -10.538300
H -27.965700 -18.368200 -13.440100
H -27.965700 -15.619300 -13.440100
C -27.684600 -19.019300 -11.653900
C -27.684600 -14.968200 -11.653900
C -26.231100 -19.300400 -11.959600
C -26.231100 -14.687100 -11.959600
H -25.822600 -18.364100 -15.360600
H -25.822600 -15.623400 -15.360600
H -25.799600 -20.141000 -10.121000
N -25.799600 -18.992200 -13.188200
N -25.799600 -14.995300 -13.188200
H -25.799600 -13.846500 -10.121000
H -25.702200 -18.270300 -17.538400
H -25.702200 -15.717200 -17.538400
C -25.418500 -19.892200 -10.995700
C -25.418500 -14.095300 -10.995700
N -25.031000 -18.512400 -15.710500
N -25.031000 -15.475100 -15.710500
C -24.790300 -18.280700 -17.126200
C -24.790300 -15.706800 -17.126200
C -24.517500 -19.258300 -13.488000
C -24.517500 -14.729200 -13.488000
H -24.281800 -19.039800 -17.469000
H -24.281800 -14.947700 -17.469000
C -24.089800 -20.155500 -11.313800
C -24.089800 -13.832000 -11.313800
C -24.069400 -18.966500 -14.893700
C -24.069400 -15.021000 -14.893700
C -24.027800 -16.993800 -17.429000
H -23.819500 -16.993800 -18.400100
C -23.625200 -19.831800 -12.583800
C -23.625200 -14.155700 -12.583800
H -23.509600 -20.567900 -10.649500
H -23.509600 -13.419600 -10.649500
H -23.185500 -16.993800 -16.956300
O -22.904400 -19.170000 -15.250300
O -22.904400 -14.817500 -15.250300
H -22.705500 -20.002300 -12.856000
H -22.705500 -13.985200 -12.856000
52
Fragment
H -40.044600 -16.993800 -11.338100
H -39.084600 -19.018000 -10.963300
H -39.084600 -14.969500 -10.963300
C -39.063400 -16.993800 -11.233000
H -39.006700 -18.274400 -9.571200
H -39.006700 -15.713100 -9.571200
H -38.693200 -16.993800 -12.115600
C -38.677100 -18.282800 -10.520200
C -38.677100 -15.704700 -10.520200
N -37.238800 -18.529000 -10.453000
N -37.238800 -15.458500 -10.453000
O -37.012100 -19.256400 -12.600700
O -37.012100 -14.731100 -12.600700
H -36.821200 -18.368200 -9.698900
H -36.821200 -15.619300 -9.698900
C -36.540100 -19.019300 -11.485100
C -36.540100 -14.968200 -11.485100
C -35.086600 -19.300400 -11.179400
C -35.086600 -14.687100 -11.179400
H -34.678100 -18.364100 -7.778400
H -34.678100 -15.623400 -7.778400
H -34.655100 -20.141000 -13.018000
N -34.655100 -18.992200 -9.950800
N -34.655100 -14.995300 -9.950800
H -34.655100 -13.846500 -13.018000
H -34.557700 -18.270300 -5.600600
H -34.557700 -15.717200 -5.600600
C -34.274000 -19.892200 -12.143300
C -34.274000 -14.095300 -12.143300
N -33.886500 -18.512400 -7.428500
N -33.886500 -15.475100 -7.428500
C -33.645800 -18.280700 -6.012800
C -33.645800 -15.706800 -6.012800
C -33.373000 -19.258300 -9.651000
C -33.373000 -14.729200 -9.651000
H -33.137300 -19.039800 -5.670000
H -33.137300 -14.947700 -5.670000
C -32.945300 -20.155500 -11.825200
C -32.945300 -13.832000 -11.825200
C -32.924900 -18.966500 -8.245300
C -32.924900 -15.021000 -8.245300
C -32.883300 -16.993800 -5.710000
H -32.675000 -16.993800 -4.738900
C -32.480700 -19.831800 -10.555200
C -32.480700 -14.155700 -10.555200
H -32.365100 -20.567900 -12.489500
H -32.365100 -13.419600 -12.489500
H -32.041000 -16.993800 -6.182700
O -31.759900 -19.170000 -7.888700
O -31.759900 -14.817500 -7.888700
H -31.561000 -20.002300 -10.283000
H -31.561000 -13.985200 -10.283000
104
Fragment
H -31.189100 -16.993800 -11.800900
H -30.229100 -19.018000 -12.175700
H -30.229100 -14.969500 -12.175700
C -30.207900 -16.993800 -11.906000
H -30.151200 -18.274400 -13.567800
H -30.151200 -15.713100 -13.567800
H -29.837700 -16.993800 -11.023400
C -29.821600 -18.282800 -12.618800
C -29.821600 -15.704700 -12.618800
N -28.383300 -18.529000 -12.686000
N -28.383300 -15.458500 -12.686000
O -28.156600 -19.256400 -10.538300
O -28.156600 -14.731100 -10.538300
H -27.965700 -18.368200 -13.440100
H -27.965700 -15.619300 -13.440100
C -27.684600 -19.019300 -11.653900
C -27.684600 -14.968200 -11.653900
C -26.231100 -19.300400 -11.959600
C -26.231100 -14.687100 -11.959600
H -25.822600 -18.364100 -15.360600
H -25.822600 -15.623400 -15.360600
H -25.799600 -20.141000 -10.121000
N -25.799600 -18.992200 -13.188200
N -25.799600 -14.995300 -13.188200
H -25.799600 -13.846500 -10.121000
H -25.702200 -18.270300 -17.538400
H -25.702200 -15.717200 -17.538400
C -25.418500 -19.892200 -10.995700
C -25.418500 -14.095300 -10.995700
N -25.031000 -18.512400 -15.710500
N -25.031000 -15.475100 -15.710500
C -24.790300 -18.280700 -17.126200
C -24.790300 -15.706800 -17.126200
C -24.517500 -19.258300 -13.488000
C -24.517500 -14.729200 -13.488000
H -24.281800 -19.039800 -17.469000
H -24.281800 -14.947700 -17.469000
C -24.089800 -20.155500 -11.313800
C -24.089800 -13.832000 -11.313800
C -24.069400 -18.966500 -14.893700
C -24.069400 -15.021000 -14.893700
C -24.027800 -16.993800 -17.429000
H -23.819500 -16.993800 -18.400100
C -23.625200 -19.831800 -12.583800
C -23.625200 -14.155700 -12.583800
H -23.509600 -20.567900 -10.649500
H -23.509600 -13.419600 -10.649500
H -23.185500 -16.993800 -16.956300
O -22.904400 -19.170000 -15.250300
O -22.904400 -14.817500 -15.250300
H -22.705500 -20.002300 -12.856000
H -22.705500 -13.985200 -12.856000
H -40.044600 -16.993800 -11.338100
H -39.084600 -19.018000 -10.963300
H -39.084600 -14.969500 -10.963300
C -39.063400 -16.993800 -11.233000
H -39.006700 -18.274400 -9.571200
H -39.006700 -15.713100 -9.571200
H -38.693200 -16.993800 -12.115600
C -38.677100 -18.282800 -10.520200
C -38.677100 -15.704700 -10.520200
N -37.238800 -18.529000 -10.453000
N -37.238800 -15.458500 -10.453000
O -37.012100 -19.256400 -12.600700
O -37.012100 -14.731100 -12.600700
H -36.821200 -18.368200 -9.698900
H -36.821200 -15.619300 -9.698900
C -36.540100 -19.019300 -11.485100
C -36.540100 -14.968200 -11.485100
C -35.086600 -19.300400 -11.179400
C -35.086600 -14.687100 -11.179400
H -34.678100 -18.364100 -7.778400
H -34.678100 -15.623400 -7.778400
H -34.655100 -20.141000 -13.018000
N -34.655100 -18.992200 -9.950800
N -34.655100 -14.995300 -9.950800
H -34.655100 -13.846500 -13.018000
H -34.557700 -18.270300 -5.600600
H -34.557700 -15.717200 -5.600600
C -34.274000 -19.892200 -12.143300
C -34.274000 -14.095300 -12.143300
N -33.886500 -18.512400 -7.428500
N -33.886500 -15.475100 -7.428500
C -33.645800 -18.280700 -6.012800
C -33.645800 -15.706800 -6.012800
C -33.373000 -19.258300 -9.651000
C -33.373000 -14.729200 -9.651000
H -33.137300 -19.039800 -5.670000
H -33.137300 -14.947700 -5.670000
C -32.945300 -20.155500 -11.825200
C -32.945300 -13.832000 -11.825200
C -32.924900 -18.966500 -8.245300
C -32.924900 -15.021000 -8.245300
C -32.883300 -16.993800 -5.710000
H -32.675000 -16.993800 -4.738900
C -32.480700 -19.831800 -10.555200
C -32.480700 -14.155700 -10.555200
H -32.365100 -20.567900 -12.489500
H -32.365100 -13.419600 -12.489500
H -32.041000 -16.993800 -6.182700
O -31.759900 -19.170000 -7.888700
O -31.759900 -14.817500 -7.888700
H -31.561000 -20.002300 -10.283000
H -31.561000 -13.985200 -10.283000
