52
Fragment
H -31.189100 -16.993800 -11.800900
H -30.229100 -19.018000 -12.175700
H -30.229100 -14.969500 -12.175700
C -30.207900 -16.993800 -11.906000
H -30.151200 -18.274400 -13.567800
H -30.151200 -15.713100 -13.567800
H -29.837700 -16.993800 -11.023400
C -29.821600 -18.282800 -12.618800
C -29.821600 -15.704700 -12.618800
N -28.383300 -18.529000 -12.686000
N -28.383300 -15.458500 -12.686000
O -28.156600 -19.256400 -10.538300
O -28.156600 -14.731100 -10.538300
H -27.965700 -18.368200 -13.440100
H -27.965700 -15.619300 -13.440100
C -27.684600 -19.019300 -11.653900
C -27.684600 -14.968200 -11.653900
C -26.231100 -19.300400 -11.959600
C -26.231100 -14.687100 -11.959600
H -25.822600 -18.364100 -15.360600
H -25.822600 -15.623400 -15.360600
H -25.799600 -20.141000 -10.121000
N -25.799600 -18.992200 -13.188200
N -25.799600 -14.995300 -13.188200
H -25.799600 -13.846500 -10.121000
H -25.702200 -18.270300 -17.538400
H -25.702200 -15.717200 -17.538400
C -25.418500 -19.892200 -10.995700
C -25.418500 -14.095300 -10.995700
N -25.031000 -18.512400 -15.710500
N -25.031000 -15.475100 -15.710500
C -24.790300 -18.280700 -17.126200
C -24.790300 -15.706800 -17.126200
C -24.517500 -19.258300 -13.488000
C -24.517500 -14.729200 -13.488000
H -24.281800 -19.039800 -17.469000
H -24.281800 -14.947700 -17.469000
C -24.089800 -20.155500 -11.313800
C -24.089800 -13.832000 -11.313800
C -24.069400 -18.966500 -14.893700
C -24.069400 -15.021000 -14.893700
C -24.027800 -16.993800 -17.429000
H -23.819500 -16.993800 -18.400100
C -23.625200 -19.831800 -12.583800
C -23.625200 -14.155700 -12.583800
H -23.509600 -20.567900 -10.649500
H -23.509600 -13.419600 -10.649500
H -23.185500 -16.993800 -16.956300
O -22.904400 -19.170000 -15.250300
O -22.904400 -14.817500 -15.250300
H -22.705500 -20.002300 -12.856000
H -22.705500 -13.985200 -12.856000
52
Fragment
H -21.572000 -13.204800 -8.228200
H -21.572000 -7.187700 -8.228200
O -21.373100 -12.372500 -10.622500
O -21.373100 -8.020000 -10.622500
H -21.092000 -10.196200 -12.328500
H -20.767900 -13.770400 -6.021700
H -20.767900 -6.622100 -6.021700
C -20.652300 -13.034300 -7.956000
C -20.652300 -7.358200 -7.956000
H -20.458000 -10.196200 -13.772300
C -20.249700 -10.196200 -12.801200
C -20.208100 -12.169000 -10.265900
C -20.208100 -8.223500 -10.265900
C -20.187700 -13.358000 -6.686000
C -20.187700 -7.034500 -6.686000
H -19.995700 -12.242300 -12.841200
H -19.995700 -8.150200 -12.841200
C -19.760000 -12.460800 -8.860200
C -19.760000 -7.931700 -8.860200
C -19.487200 -11.483200 -12.498400
C -19.487200 -8.909300 -12.498400
N -19.246500 -11.714900 -11.082700
N -19.246500 -8.677600 -11.082700
C -18.859000 -13.094700 -6.367900
C -18.859000 -7.297800 -6.367900
H -18.575300 -11.472800 -12.910600
H -18.575300 -8.919700 -12.910600
H -18.477900 -13.343500 -5.493200
N -18.477900 -12.194700 -8.560400
N -18.477900 -8.197800 -8.560400
H -18.477900 -7.049000 -5.493200
H -18.454900 -11.566600 -10.732800
H -18.454900 -8.825900 -10.732800
C -18.046400 -12.502900 -7.331800
C -18.046400 -7.889600 -7.331800
C -16.592900 -12.221800 -7.026100
C -16.592900 -8.170700 -7.026100
H -16.311800 -11.570700 -8.812300
H -16.311800 -8.821800 -8.812300
O -16.120900 -12.458900 -5.910500
O -16.120900 -7.933600 -5.910500
N -15.894200 -11.731500 -8.058200
N -15.894200 -8.661000 -8.058200
C -14.455900 -11.485300 -7.991000
C -14.455900 -8.907200 -7.991000
H -14.439800 -10.196200 -6.395600
H -14.126300 -11.476900 -8.940000
H -14.126300 -8.915600 -8.940000
C -14.069600 -10.196200 -7.278200
H -14.048400 -12.220500 -7.547900
H -14.048400 -8.172000 -7.547900
H -13.088400 -10.196200 -7.173100
104
Fragment
H -31.189100 -16.993800 -11.800900
H -30.229100 -19.018000 -12.175700
H -30.229100 -14.969500 -12.175700
C -30.207900 -16.993800 -11.906000
H -30.151200 -18.274400 -13.567800
H -30.151200 -15.713100 -13.567800
H -29.837700 -16.993800 -11.023400
C -29.821600 -18.282800 -12.618800
C -29.821600 -15.704700 -12.618800
N -28.383300 -18.529000 -12.686000
N -28.383300 -15.458500 -12.686000
O -28.156600 -19.256400 -10.538300
O -28.156600 -14.731100 -10.538300
H -27.965700 -18.368200 -13.440100
H -27.965700 -15.619300 -13.440100
C -27.684600 -19.019300 -11.653900
C -27.684600 -14.968200 -11.653900
C -26.231100 -19.300400 -11.959600
C -26.231100 -14.687100 -11.959600
H -25.822600 -18.364100 -15.360600
H -25.822600 -15.623400 -15.360600
H -25.799600 -20.141000 -10.121000
N -25.799600 -18.992200 -13.188200
N -25.799600 -14.995300 -13.188200
H -25.799600 -13.846500 -10.121000
H -25.702200 -18.270300 -17.538400
H -25.702200 -15.717200 -17.538400
C -25.418500 -19.892200 -10.995700
C -25.418500 -14.095300 -10.995700
N -25.031000 -18.512400 -15.710500
N -25.031000 -15.475100 -15.710500
C -24.790300 -18.280700 -17.126200
C -24.790300 -15.706800 -17.126200
C -24.517500 -19.258300 -13.488000
C -24.517500 -14.729200 -13.488000
H -24.281800 -19.039800 -17.469000
H -24.281800 -14.947700 -17.469000
C -24.089800 -20.155500 -11.313800
C -24.089800 -13.832000 -11.313800
C -24.069400 -18.966500 -14.893700
C -24.069400 -15.021000 -14.893700
C -24.027800 -16.993800 -17.429000
H -23.819500 -16.993800 -18.400100
C -23.625200 -19.831800 -12.583800
C -23.625200 -14.155700 -12.583800
H -23.509600 -20.567900 -10.649500
H -23.509600 -13.419600 -10.649500
H -23.185500 -16.993800 -16.956300
O -22.904400 -19.170000 -15.250300
O -22.904400 -14.817500 -15.250300
H -22.705500 -20.002300 -12.856000
H -22.705500 -13.985200 -12.856000
H -21.572000 -13.204800 -8.228200
H -21.572000 -7.187700 -8.228200
O -21.373100 -12.372500 -10.622500
O -21.373100 -8.020000 -10.622500
H -21.092000 -10.196200 -12.328500
H -20.767900 -13.770400 -6.021700
H -20.767900 -6.622100 -6.021700
C -20.652300 -13.034300 -7.956000
C -20.652300 -7.358200 -7.956000
H -20.458000 -10.196200 -13.772300
C -20.249700 -10.196200 -12.801200
C -20.208100 -12.169000 -10.265900
C -20.208100 -8.223500 -10.265900
C -20.187700 -13.358000 -6.686000
C -20.187700 -7.034500 -6.686000
H -19.995700 -12.242300 -12.841200
H -19.995700 -8.150200 -12.841200
C -19.760000 -12.460800 -8.860200
C -19.760000 -7.931700 -8.860200
C -19.487200 -11.483200 -12.498400
C -19.487200 -8.909300 -12.498400
N -19.246500 -11.714900 -11.082700
N -19.246500 -8.677600 -11.082700
C -18.859000 -13.094700 -6.367900
C -18.859000 -7.297800 -6.367900
H -18.575300 -11.472800 -12.910600
H -18.575300 -8.919700 -12.910600
H -18.477900 -13.343500 -5.493200
N -18.477900 -12.194700 -8.560400
N -18.477900 -8.197800 -8.560400
H -18.477900 -7.049000 -5.493200
H -18.454900 -11.566600 -10.732800
H -18.454900 -8.825900 -10.732800
C -18.046400 -12.502900 -7.331800
C -18.046400 -7.889600 -7.331800
C -16.592900 -12.221800 -7.026100
C -16.592900 -8.170700 -7.026100
H -16.311800 -11.570700 -8.812300
H -16.311800 -8.821800 -8.812300
O -16.120900 -12.458900 -5.910500
O -16.120900 -7.933600 -5.910500
N -15.894200 -11.731500 -8.058200
N -15.894200 -8.661000 -8.058200
C -14.455900 -11.485300 -7.991000
C -14.455900 -8.907200 -7.991000
H -14.439800 -10.196200 -6.395600
H -14.126300 -11.476900 -8.940000
H -14.126300 -8.915600 -8.940000
C -14.069600 -10.196200 -7.278200
H -14.048400 -12.220500 -7.547900
H -14.048400 -8.172000 -7.547900
H -13.088400 -10.196200 -7.173100
