52
Fragment
H -31.189100 -16.993800 -11.800900
H -30.229100 -19.018000 -12.175700
H -30.229100 -14.969500 -12.175700
C -30.207900 -16.993800 -11.906000
H -30.151200 -18.274400 -13.567800
H -30.151200 -15.713100 -13.567800
H -29.837700 -16.993800 -11.023400
C -29.821600 -18.282800 -12.618800
C -29.821600 -15.704700 -12.618800
N -28.383300 -18.529000 -12.686000
N -28.383300 -15.458500 -12.686000
O -28.156600 -19.256400 -10.538300
O -28.156600 -14.731100 -10.538300
H -27.965700 -18.368200 -13.440100
H -27.965700 -15.619300 -13.440100
C -27.684600 -19.019300 -11.653900
C -27.684600 -14.968200 -11.653900
C -26.231100 -19.300400 -11.959600
C -26.231100 -14.687100 -11.959600
H -25.822600 -18.364100 -15.360600
H -25.822600 -15.623400 -15.360600
H -25.799600 -20.141000 -10.121000
N -25.799600 -18.992200 -13.188200
N -25.799600 -14.995300 -13.188200
H -25.799600 -13.846500 -10.121000
H -25.702200 -18.270300 -17.538400
H -25.702200 -15.717200 -17.538400
C -25.418500 -19.892200 -10.995700
C -25.418500 -14.095300 -10.995700
N -25.031000 -18.512400 -15.710500
N -25.031000 -15.475100 -15.710500
C -24.790300 -18.280700 -17.126200
C -24.790300 -15.706800 -17.126200
C -24.517500 -19.258300 -13.488000
C -24.517500 -14.729200 -13.488000
H -24.281800 -19.039800 -17.469000
H -24.281800 -14.947700 -17.469000
C -24.089800 -20.155500 -11.313800
C -24.089800 -13.832000 -11.313800
C -24.069400 -18.966500 -14.893700
C -24.069400 -15.021000 -14.893700
C -24.027800 -16.993800 -17.429000
H -23.819500 -16.993800 -18.400100
C -23.625200 -19.831800 -12.583800
C -23.625200 -14.155700 -12.583800
H -23.509600 -20.567900 -10.649500
H -23.509600 -13.419600 -10.649500
H -23.185500 -16.993800 -16.956300
O -22.904400 -19.170000 -15.250300
O -22.904400 -14.817500 -15.250300
H -22.705500 -20.002300 -12.856000
H -22.705500 -13.985200 -12.856000
6
Fragment
N -25.256400 -23.791200 -12.364800
C -24.642600 -23.791200 -11.398800
H -24.113500 -24.577000 -9.690600
H -24.113500 -23.005500 -9.690600
C -23.884300 -23.791200 -10.163700
H -23.024300 -23.791200 -10.375500
58
Fragment
H -31.189100 -16.993800 -11.800900
H -30.229100 -19.018000 -12.175700
H -30.229100 -14.969500 -12.175700
C -30.207900 -16.993800 -11.906000
H -30.151200 -18.274400 -13.567800
H -30.151200 -15.713100 -13.567800
H -29.837700 -16.993800 -11.023400
C -29.821600 -18.282800 -12.618800
C -29.821600 -15.704700 -12.618800
N -28.383300 -18.529000 -12.686000
N -28.383300 -15.458500 -12.686000
O -28.156600 -19.256400 -10.538300
O -28.156600 -14.731100 -10.538300
H -27.965700 -18.368200 -13.440100
H -27.965700 -15.619300 -13.440100
C -27.684600 -19.019300 -11.653900
C -27.684600 -14.968200 -11.653900
C -26.231100 -19.300400 -11.959600
C -26.231100 -14.687100 -11.959600
H -25.822600 -18.364100 -15.360600
H -25.822600 -15.623400 -15.360600
H -25.799600 -20.141000 -10.121000
N -25.799600 -18.992200 -13.188200
N -25.799600 -14.995300 -13.188200
H -25.799600 -13.846500 -10.121000
H -25.702200 -18.270300 -17.538400
H -25.702200 -15.717200 -17.538400
C -25.418500 -19.892200 -10.995700
C -25.418500 -14.095300 -10.995700
N -25.031000 -18.512400 -15.710500
N -25.031000 -15.475100 -15.710500
C -24.790300 -18.280700 -17.126200
C -24.790300 -15.706800 -17.126200
C -24.517500 -19.258300 -13.488000
C -24.517500 -14.729200 -13.488000
H -24.281800 -19.039800 -17.469000
H -24.281800 -14.947700 -17.469000
C -24.089800 -20.155500 -11.313800
C -24.089800 -13.832000 -11.313800
C -24.069400 -18.966500 -14.893700
C -24.069400 -15.021000 -14.893700
C -24.027800 -16.993800 -17.429000
H -23.819500 -16.993800 -18.400100
C -23.625200 -19.831800 -12.583800
C -23.625200 -14.155700 -12.583800
H -23.509600 -20.567900 -10.649500
H -23.509600 -13.419600 -10.649500
H -23.185500 -16.993800 -16.956300
O -22.904400 -19.170000 -15.250300
O -22.904400 -14.817500 -15.250300
H -22.705500 -20.002300 -12.856000
H -22.705500 -13.985200 -12.856000
N -25.256400 -23.791200 -12.364800
C -24.642600 -23.791200 -11.398800
H -24.113500 -24.577000 -9.690600
H -24.113500 -23.005500 -9.690600
C -23.884300 -23.791200 -10.163700
H -23.024300 -23.791200 -10.375500
