52
Fragment
H -31.189100 -16.993800 -11.800900
H -30.229100 -19.018000 -12.175700
H -30.229100 -14.969500 -12.175700
C -30.207900 -16.993800 -11.906000
H -30.151200 -18.274400 -13.567800
H -30.151200 -15.713100 -13.567800
H -29.837700 -16.993800 -11.023400
C -29.821600 -18.282800 -12.618800
C -29.821600 -15.704700 -12.618800
N -28.383300 -18.529000 -12.686000
N -28.383300 -15.458500 -12.686000
O -28.156600 -19.256400 -10.538300
O -28.156600 -14.731100 -10.538300
H -27.965700 -18.368200 -13.440100
H -27.965700 -15.619300 -13.440100
C -27.684600 -19.019300 -11.653900
C -27.684600 -14.968200 -11.653900
C -26.231100 -19.300400 -11.959600
C -26.231100 -14.687100 -11.959600
H -25.822600 -18.364100 -15.360600
H -25.822600 -15.623400 -15.360600
H -25.799600 -20.141000 -10.121000
N -25.799600 -18.992200 -13.188200
N -25.799600 -14.995300 -13.188200
H -25.799600 -13.846500 -10.121000
H -25.702200 -18.270300 -17.538400
H -25.702200 -15.717200 -17.538400
C -25.418500 -19.892200 -10.995700
C -25.418500 -14.095300 -10.995700
N -25.031000 -18.512400 -15.710500
N -25.031000 -15.475100 -15.710500
C -24.790300 -18.280700 -17.126200
C -24.790300 -15.706800 -17.126200
C -24.517500 -19.258300 -13.488000
C -24.517500 -14.729200 -13.488000
H -24.281800 -19.039800 -17.469000
H -24.281800 -14.947700 -17.469000
C -24.089800 -20.155500 -11.313800
C -24.089800 -13.832000 -11.313800
C -24.069400 -18.966500 -14.893700
C -24.069400 -15.021000 -14.893700
C -24.027800 -16.993800 -17.429000
H -23.819500 -16.993800 -18.400100
C -23.625200 -19.831800 -12.583800
C -23.625200 -14.155700 -12.583800
H -23.509600 -20.567900 -10.649500
H -23.509600 -13.419600 -10.649500
H -23.185500 -16.993800 -16.956300
O -22.904400 -19.170000 -15.250300
O -22.904400 -14.817500 -15.250300
H -22.705500 -20.002300 -12.856000
H -22.705500 -13.985200 -12.856000
52
Fragment
H -30.427500 -26.799800 -5.655200
H -30.427500 -20.782700 -5.655200
O -30.228600 -25.967500 -3.260900
O -30.228600 -21.615000 -3.260900
H -29.947500 -23.791200 -1.554900
H -29.623400 -27.365400 -7.861700
H -29.623400 -20.217100 -7.861700
C -29.507800 -26.629300 -5.927400
C -29.507800 -20.953200 -5.927400
H -29.313500 -23.791200 -0.111100
C -29.105200 -23.791200 -1.082200
C -29.063600 -25.764000 -3.617500
C -29.063600 -21.818500 -3.617500
C -29.043200 -26.953000 -7.197400
C -29.043200 -20.629500 -7.197400
H -28.851200 -25.837300 -1.042200
H -28.851200 -21.745200 -1.042200
C -28.615500 -26.055800 -5.023200
C -28.615500 -21.526700 -5.023200
C -28.342700 -25.078200 -1.385000
C -28.342700 -22.504300 -1.385000
N -28.102000 -25.309900 -2.800700
N -28.102000 -22.272600 -2.800700
C -27.714500 -26.689700 -7.515500
C -27.714500 -20.892800 -7.515500
H -27.430800 -25.067800 -0.972800
H -27.430800 -22.514700 -0.972800
H -27.333400 -26.938500 -8.390200
N -27.333400 -25.789700 -5.323000
N -27.333400 -21.792800 -5.323000
H -27.333400 -20.644000 -8.390200
H -27.310400 -25.161600 -3.150600
H -27.310400 -22.420900 -3.150600
C -26.901900 -26.097900 -6.551600
C -26.901900 -21.484600 -6.551600
C -25.448400 -25.816800 -6.857300
C -25.448400 -21.765700 -6.857300
H -25.167300 -25.165700 -5.071100
H -25.167300 -22.416800 -5.071100
O -24.976400 -26.053900 -7.972900
O -24.976400 -21.528600 -7.972900
N -24.749700 -25.326500 -5.825200
N -24.749700 -22.256000 -5.825200
C -23.311400 -25.080300 -5.892400
C -23.311400 -22.502200 -5.892400
H -23.295300 -23.791200 -7.487800
H -22.981800 -25.071900 -4.943400
H -22.981800 -22.510600 -4.943400
C -22.925100 -23.791200 -6.605200
H -22.903900 -25.815500 -6.335500
H -22.903900 -21.767000 -6.335500
H -21.943900 -23.791200 -6.710300
104
Fragment
H -31.189100 -16.993800 -11.800900
H -30.229100 -19.018000 -12.175700
H -30.229100 -14.969500 -12.175700
C -30.207900 -16.993800 -11.906000
H -30.151200 -18.274400 -13.567800
H -30.151200 -15.713100 -13.567800
H -29.837700 -16.993800 -11.023400
C -29.821600 -18.282800 -12.618800
C -29.821600 -15.704700 -12.618800
N -28.383300 -18.529000 -12.686000
N -28.383300 -15.458500 -12.686000
O -28.156600 -19.256400 -10.538300
O -28.156600 -14.731100 -10.538300
H -27.965700 -18.368200 -13.440100
H -27.965700 -15.619300 -13.440100
C -27.684600 -19.019300 -11.653900
C -27.684600 -14.968200 -11.653900
C -26.231100 -19.300400 -11.959600
C -26.231100 -14.687100 -11.959600
H -25.822600 -18.364100 -15.360600
H -25.822600 -15.623400 -15.360600
H -25.799600 -20.141000 -10.121000
N -25.799600 -18.992200 -13.188200
N -25.799600 -14.995300 -13.188200
H -25.799600 -13.846500 -10.121000
H -25.702200 -18.270300 -17.538400
H -25.702200 -15.717200 -17.538400
C -25.418500 -19.892200 -10.995700
C -25.418500 -14.095300 -10.995700
N -25.031000 -18.512400 -15.710500
N -25.031000 -15.475100 -15.710500
C -24.790300 -18.280700 -17.126200
C -24.790300 -15.706800 -17.126200
C -24.517500 -19.258300 -13.488000
C -24.517500 -14.729200 -13.488000
H -24.281800 -19.039800 -17.469000
H -24.281800 -14.947700 -17.469000
C -24.089800 -20.155500 -11.313800
C -24.089800 -13.832000 -11.313800
C -24.069400 -18.966500 -14.893700
C -24.069400 -15.021000 -14.893700
C -24.027800 -16.993800 -17.429000
H -23.819500 -16.993800 -18.400100
C -23.625200 -19.831800 -12.583800
C -23.625200 -14.155700 -12.583800
H -23.509600 -20.567900 -10.649500
H -23.509600 -13.419600 -10.649500
H -23.185500 -16.993800 -16.956300
O -22.904400 -19.170000 -15.250300
O -22.904400 -14.817500 -15.250300
H -22.705500 -20.002300 -12.856000
H -22.705500 -13.985200 -12.856000
H -30.427500 -26.799800 -5.655200
H -30.427500 -20.782700 -5.655200
O -30.228600 -25.967500 -3.260900
O -30.228600 -21.615000 -3.260900
H -29.947500 -23.791200 -1.554900
H -29.623400 -27.365400 -7.861700
H -29.623400 -20.217100 -7.861700
C -29.507800 -26.629300 -5.927400
C -29.507800 -20.953200 -5.927400
H -29.313500 -23.791200 -0.111100
C -29.105200 -23.791200 -1.082200
C -29.063600 -25.764000 -3.617500
C -29.063600 -21.818500 -3.617500
C -29.043200 -26.953000 -7.197400
C -29.043200 -20.629500 -7.197400
H -28.851200 -25.837300 -1.042200
H -28.851200 -21.745200 -1.042200
C -28.615500 -26.055800 -5.023200
C -28.615500 -21.526700 -5.023200
C -28.342700 -25.078200 -1.385000
C -28.342700 -22.504300 -1.385000
N -28.102000 -25.309900 -2.800700
N -28.102000 -22.272600 -2.800700
C -27.714500 -26.689700 -7.515500
C -27.714500 -20.892800 -7.515500
H -27.430800 -25.067800 -0.972800
H -27.430800 -22.514700 -0.972800
H -27.333400 -26.938500 -8.390200
N -27.333400 -25.789700 -5.323000
N -27.333400 -21.792800 -5.323000
H -27.333400 -20.644000 -8.390200
H -27.310400 -25.161600 -3.150600
H -27.310400 -22.420900 -3.150600
C -26.901900 -26.097900 -6.551600
C -26.901900 -21.484600 -6.551600
C -25.448400 -25.816800 -6.857300
C -25.448400 -21.765700 -6.857300
H -25.167300 -25.165700 -5.071100
H -25.167300 -22.416800 -5.071100
O -24.976400 -26.053900 -7.972900
O -24.976400 -21.528600 -7.972900
N -24.749700 -25.326500 -5.825200
N -24.749700 -22.256000 -5.825200
C -23.311400 -25.080300 -5.892400
C -23.311400 -22.502200 -5.892400
H -23.295300 -23.791200 -7.487800
H -22.981800 -25.071900 -4.943400
H -22.981800 -22.510600 -4.943400
C -22.925100 -23.791200 -6.605200
H -22.903900 -25.815500 -6.335500
H -22.903900 -21.767000 -6.335500
H -21.943900 -23.791200 -6.710300
