52
Fragment
H -31.189100 -16.993800 -11.800900
H -30.229100 -19.018000 -12.175700
H -30.229100 -14.969500 -12.175700
C -30.207900 -16.993800 -11.906000
H -30.151200 -18.274400 -13.567800
H -30.151200 -15.713100 -13.567800
H -29.837700 -16.993800 -11.023400
C -29.821600 -18.282800 -12.618800
C -29.821600 -15.704700 -12.618800
N -28.383300 -18.529000 -12.686000
N -28.383300 -15.458500 -12.686000
O -28.156600 -19.256400 -10.538300
O -28.156600 -14.731100 -10.538300
H -27.965700 -18.368200 -13.440100
H -27.965700 -15.619300 -13.440100
C -27.684600 -19.019300 -11.653900
C -27.684600 -14.968200 -11.653900
C -26.231100 -19.300400 -11.959600
C -26.231100 -14.687100 -11.959600
H -25.822600 -18.364100 -15.360600
H -25.822600 -15.623400 -15.360600
H -25.799600 -20.141000 -10.121000
N -25.799600 -18.992200 -13.188200
N -25.799600 -14.995300 -13.188200
H -25.799600 -13.846500 -10.121000
H -25.702200 -18.270300 -17.538400
H -25.702200 -15.717200 -17.538400
C -25.418500 -19.892200 -10.995700
C -25.418500 -14.095300 -10.995700
N -25.031000 -18.512400 -15.710500
N -25.031000 -15.475100 -15.710500
C -24.790300 -18.280700 -17.126200
C -24.790300 -15.706800 -17.126200
C -24.517500 -19.258300 -13.488000
C -24.517500 -14.729200 -13.488000
H -24.281800 -19.039800 -17.469000
H -24.281800 -14.947700 -17.469000
C -24.089800 -20.155500 -11.313800
C -24.089800 -13.832000 -11.313800
C -24.069400 -18.966500 -14.893700
C -24.069400 -15.021000 -14.893700
C -24.027800 -16.993800 -17.429000
H -23.819500 -16.993800 -18.400100
C -23.625200 -19.831800 -12.583800
C -23.625200 -14.155700 -12.583800
H -23.509600 -20.567900 -10.649500
H -23.509600 -13.419600 -10.649500
H -23.185500 -16.993800 -16.956300
O -22.904400 -19.170000 -15.250300
O -22.904400 -14.817500 -15.250300
H -22.705500 -20.002300 -12.856000
H -22.705500 -13.985200 -12.856000
52
Fragment
H -22.333600 -16.993800 -20.593700
H -21.373600 -19.018000 -20.218900
H -21.373600 -14.969500 -20.218900
C -21.352400 -16.993800 -20.488600
H -21.295700 -18.274400 -18.826800
H -21.295700 -15.713100 -18.826800
H -20.982200 -16.993800 -21.371200
C -20.966100 -18.282800 -19.775800
C -20.966100 -15.704700 -19.775800
N -19.527800 -18.529000 -19.708600
N -19.527800 -15.458500 -19.708600
O -19.301100 -19.256400 -21.856300
O -19.301100 -14.731100 -21.856300
H -19.110200 -18.368200 -18.954500
H -19.110200 -15.619300 -18.954500
C -18.829100 -19.019300 -20.740700
C -18.829100 -14.968200 -20.740700
C -17.375600 -19.300400 -20.435000
C -17.375600 -14.687100 -20.435000
H -16.967100 -18.364100 -17.034000
H -16.967100 -15.623400 -17.034000
H -16.944100 -20.141000 -22.273600
N -16.944100 -18.992200 -19.206400
N -16.944100 -14.995300 -19.206400
H -16.944100 -13.846500 -22.273600
H -16.846700 -18.270300 -14.856200
H -16.846700 -15.717200 -14.856200
C -16.563000 -19.892200 -21.398900
C -16.563000 -14.095300 -21.398900
N -16.175500 -18.512400 -16.684100
N -16.175500 -15.475100 -16.684100
C -15.934800 -18.280700 -15.268400
C -15.934800 -15.706800 -15.268400
C -15.662000 -19.258300 -18.906600
C -15.662000 -14.729200 -18.906600
H -15.426300 -19.039800 -14.925600
H -15.426300 -14.947700 -14.925600
C -15.234300 -20.155500 -21.080800
C -15.234300 -13.832000 -21.080800
C -15.213900 -18.966500 -17.500900
C -15.213900 -15.021000 -17.500900
C -15.172300 -16.993800 -14.965600
H -14.964000 -16.993800 -13.994500
C -14.769700 -19.831800 -19.810800
C -14.769700 -14.155700 -19.810800
H -14.654100 -20.567900 -21.745100
H -14.654100 -13.419600 -21.745100
H -14.330000 -16.993800 -15.438300
O -14.048900 -19.170000 -17.144300
O -14.048900 -14.817500 -17.144300
H -13.850000 -20.002300 -19.538600
H -13.850000 -13.985200 -19.538600
104
Fragment
H -31.189100 -16.993800 -11.800900
H -30.229100 -19.018000 -12.175700
H -30.229100 -14.969500 -12.175700
C -30.207900 -16.993800 -11.906000
H -30.151200 -18.274400 -13.567800
H -30.151200 -15.713100 -13.567800
H -29.837700 -16.993800 -11.023400
C -29.821600 -18.282800 -12.618800
C -29.821600 -15.704700 -12.618800
N -28.383300 -18.529000 -12.686000
N -28.383300 -15.458500 -12.686000
O -28.156600 -19.256400 -10.538300
O -28.156600 -14.731100 -10.538300
H -27.965700 -18.368200 -13.440100
H -27.965700 -15.619300 -13.440100
C -27.684600 -19.019300 -11.653900
C -27.684600 -14.968200 -11.653900
C -26.231100 -19.300400 -11.959600
C -26.231100 -14.687100 -11.959600
H -25.822600 -18.364100 -15.360600
H -25.822600 -15.623400 -15.360600
H -25.799600 -20.141000 -10.121000
N -25.799600 -18.992200 -13.188200
N -25.799600 -14.995300 -13.188200
H -25.799600 -13.846500 -10.121000
H -25.702200 -18.270300 -17.538400
H -25.702200 -15.717200 -17.538400
C -25.418500 -19.892200 -10.995700
C -25.418500 -14.095300 -10.995700
N -25.031000 -18.512400 -15.710500
N -25.031000 -15.475100 -15.710500
C -24.790300 -18.280700 -17.126200
C -24.790300 -15.706800 -17.126200
C -24.517500 -19.258300 -13.488000
C -24.517500 -14.729200 -13.488000
H -24.281800 -19.039800 -17.469000
H -24.281800 -14.947700 -17.469000
C -24.089800 -20.155500 -11.313800
C -24.089800 -13.832000 -11.313800
C -24.069400 -18.966500 -14.893700
C -24.069400 -15.021000 -14.893700
C -24.027800 -16.993800 -17.429000
H -23.819500 -16.993800 -18.400100
C -23.625200 -19.831800 -12.583800
C -23.625200 -14.155700 -12.583800
H -23.509600 -20.567900 -10.649500
H -23.509600 -13.419600 -10.649500
H -23.185500 -16.993800 -16.956300
O -22.904400 -19.170000 -15.250300
O -22.904400 -14.817500 -15.250300
H -22.705500 -20.002300 -12.856000
H -22.705500 -13.985200 -12.856000
H -22.333600 -16.993800 -20.593700
H -21.373600 -19.018000 -20.218900
H -21.373600 -14.969500 -20.218900
C -21.352400 -16.993800 -20.488600
H -21.295700 -18.274400 -18.826800
H -21.295700 -15.713100 -18.826800
H -20.982200 -16.993800 -21.371200
C -20.966100 -18.282800 -19.775800
C -20.966100 -15.704700 -19.775800
N -19.527800 -18.529000 -19.708600
N -19.527800 -15.458500 -19.708600
O -19.301100 -19.256400 -21.856300
O -19.301100 -14.731100 -21.856300
H -19.110200 -18.368200 -18.954500
H -19.110200 -15.619300 -18.954500
C -18.829100 -19.019300 -20.740700
C -18.829100 -14.968200 -20.740700
C -17.375600 -19.300400 -20.435000
C -17.375600 -14.687100 -20.435000
H -16.967100 -18.364100 -17.034000
H -16.967100 -15.623400 -17.034000
H -16.944100 -20.141000 -22.273600
N -16.944100 -18.992200 -19.206400
N -16.944100 -14.995300 -19.206400
H -16.944100 -13.846500 -22.273600
H -16.846700 -18.270300 -14.856200
H -16.846700 -15.717200 -14.856200
C -16.563000 -19.892200 -21.398900
C -16.563000 -14.095300 -21.398900
N -16.175500 -18.512400 -16.684100
N -16.175500 -15.475100 -16.684100
C -15.934800 -18.280700 -15.268400
C -15.934800 -15.706800 -15.268400
C -15.662000 -19.258300 -18.906600
C -15.662000 -14.729200 -18.906600
H -15.426300 -19.039800 -14.925600
H -15.426300 -14.947700 -14.925600
C -15.234300 -20.155500 -21.080800
C -15.234300 -13.832000 -21.080800
C -15.213900 -18.966500 -17.500900
C -15.213900 -15.021000 -17.500900
C -15.172300 -16.993800 -14.965600
H -14.964000 -16.993800 -13.994500
C -14.769700 -19.831800 -19.810800
C -14.769700 -14.155700 -19.810800
H -14.654100 -20.567900 -21.745100
H -14.654100 -13.419600 -21.745100
H -14.330000 -16.993800 -15.438300
O -14.048900 -19.170000 -17.144300
O -14.048900 -14.817500 -17.144300
H -13.850000 -20.002300 -19.538600
H -13.850000 -13.985200 -19.538600
