18
Fragment
H -26.730800 -9.656100 -30.160200
O -26.176500 -10.285200 -30.107000
H -25.942400 -8.196900 -28.546100
C -25.383400 -10.098400 -29.020700
C -25.374900 -8.914800 -28.290500
H -24.557800 -11.968300 -29.119300
C -24.554400 -11.154200 -28.629400
H -24.541200 -7.964100 -26.699800
C -24.539900 -8.777700 -27.189900
C -23.728400 -11.011700 -27.527400
C -23.694300 -9.823500 -26.790300
H -23.531600 -8.125900 -24.538100
H -23.172800 -11.736900 -27.266400
C -22.782700 -9.697600 -25.622600
C -22.664400 -8.370400 -24.923600
H -22.388300 -7.685700 -25.567700
O -22.132700 -10.666500 -25.234800
H -21.996300 -8.435900 -24.209700
18
Fragment
H -28.432800 -15.210900 -37.642300
O -28.296300 -12.980300 -36.617200
H -28.040800 -15.961100 -36.284200
C -27.764600 -15.276400 -36.928300
C -27.646300 -13.949200 -36.229400
H -27.256200 -11.909900 -34.585500
H -26.897400 -15.520900 -37.313800
C -26.734700 -13.823300 -35.061600
C -26.700600 -12.635100 -34.324500
C -25.889100 -14.869100 -34.662000
H -25.887800 -15.682700 -35.152100
C -25.874600 -12.492600 -33.222500
H -25.871200 -11.678500 -32.732700
C -25.054100 -14.732000 -33.561500
C -25.045600 -13.548400 -32.831200
H -24.486600 -15.449900 -33.305800
O -24.252500 -13.361600 -31.744900
H -23.698200 -13.990700 -31.691700
36
Fragment
H -26.730800 -9.656100 -30.160200
O -26.176500 -10.285200 -30.107000
H -25.942400 -8.196900 -28.546100
C -25.383400 -10.098400 -29.020700
C -25.374900 -8.914800 -28.290500
H -24.557800 -11.968300 -29.119300
C -24.554400 -11.154200 -28.629400
H -24.541200 -7.964100 -26.699800
C -24.539900 -8.777700 -27.189900
C -23.728400 -11.011700 -27.527400
C -23.694300 -9.823500 -26.790300
H -23.531600 -8.125900 -24.538100
H -23.172800 -11.736900 -27.266400
C -22.782700 -9.697600 -25.622600
C -22.664400 -8.370400 -24.923600
H -22.388300 -7.685700 -25.567700
O -22.132700 -10.666500 -25.234800
H -21.996300 -8.435900 -24.209700
H -28.432800 -15.210900 -37.642300
O -28.296300 -12.980300 -36.617200
H -28.040800 -15.961100 -36.284200
C -27.764600 -15.276400 -36.928300
C -27.646300 -13.949200 -36.229400
H -27.256200 -11.909900 -34.585500
H -26.897400 -15.520900 -37.313800
C -26.734700 -13.823300 -35.061600
C -26.700600 -12.635100 -34.324500
C -25.889100 -14.869100 -34.662000
H -25.887800 -15.682700 -35.152100
C -25.874600 -12.492600 -33.222500
H -25.871200 -11.678500 -32.732700
C -25.054100 -14.732000 -33.561500
C -25.045600 -13.548400 -32.831200
H -24.486600 -15.449900 -33.305800
O -24.252500 -13.361600 -31.744900
H -23.698200 -13.990700 -31.691700
