18
Fragment
H -26.730800 -9.656100 -30.160200
O -26.176500 -10.285200 -30.107000
H -25.942400 -8.196900 -28.546100
C -25.383400 -10.098400 -29.020700
C -25.374900 -8.914800 -28.290500
H -24.557800 -11.968300 -29.119300
C -24.554400 -11.154200 -28.629400
H -24.541200 -7.964100 -26.699800
C -24.539900 -8.777700 -27.189900
C -23.728400 -11.011700 -27.527400
C -23.694300 -9.823500 -26.790300
H -23.531600 -8.125900 -24.538100
H -23.172800 -11.736900 -27.266400
C -22.782700 -9.697600 -25.622600
C -22.664400 -8.370400 -24.923600
H -22.388300 -7.685700 -25.567700
O -22.132700 -10.666500 -25.234800
H -21.996300 -8.435900 -24.209700
22
Fragment
H -22.989100 -10.947700 -30.779800
H -22.546900 -10.997700 -32.317400
H -22.469400 -8.997000 -29.437600
C -22.284100 -10.674800 -31.419100
N -22.191900 -9.189700 -31.441000
C -21.775000 -8.740400 -30.094900
H -21.702600 -7.753100 -30.090300
H -21.377000 -9.132600 -33.314100
H -21.304100 -11.072000 -29.042200
C -21.119600 -8.823200 -32.409600
H -21.028800 -7.838000 -32.438700
N -21.011700 -11.304400 -31.032600
C -20.621500 -10.801300 -29.706000
N -20.480900 -9.322800 -29.684600
H -20.219700 -11.203000 -32.899900
C -19.977700 -10.874000 -31.998100
N -19.825500 -9.419100 -32.043400
H -19.760900 -11.213100 -29.442300
C -19.460100 -8.949700 -30.703700
H -19.360400 -7.965000 -30.719600
H -19.111400 -11.283100 -31.748400
H -18.586900 -9.340200 -30.448700
40
Fragment
H -26.730800 -9.656100 -30.160200
O -26.176500 -10.285200 -30.107000
H -25.942400 -8.196900 -28.546100
C -25.383400 -10.098400 -29.020700
C -25.374900 -8.914800 -28.290500
H -24.557800 -11.968300 -29.119300
C -24.554400 -11.154200 -28.629400
H -24.541200 -7.964100 -26.699800
C -24.539900 -8.777700 -27.189900
C -23.728400 -11.011700 -27.527400
C -23.694300 -9.823500 -26.790300
H -23.531600 -8.125900 -24.538100
H -23.172800 -11.736900 -27.266400
C -22.782700 -9.697600 -25.622600
C -22.664400 -8.370400 -24.923600
H -22.388300 -7.685700 -25.567700
O -22.132700 -10.666500 -25.234800
H -21.996300 -8.435900 -24.209700
H -22.989100 -10.947700 -30.779800
H -22.546900 -10.997700 -32.317400
H -22.469400 -8.997000 -29.437600
C -22.284100 -10.674800 -31.419100
N -22.191900 -9.189700 -31.441000
C -21.775000 -8.740400 -30.094900
H -21.702600 -7.753100 -30.090300
H -21.377000 -9.132600 -33.314100
H -21.304100 -11.072000 -29.042200
C -21.119600 -8.823200 -32.409600
H -21.028800 -7.838000 -32.438700
N -21.011700 -11.304400 -31.032600
C -20.621500 -10.801300 -29.706000
N -20.480900 -9.322800 -29.684600
H -20.219700 -11.203000 -32.899900
C -19.977700 -10.874000 -31.998100
N -19.825500 -9.419100 -32.043400
H -19.760900 -11.213100 -29.442300
C -19.460100 -8.949700 -30.703700
H -19.360400 -7.965000 -30.719600
H -19.111400 -11.283100 -31.748400
H -18.586900 -9.340200 -30.448700
