18
Fragment
H -26.730800 -9.656100 -30.160200
O -26.176500 -10.285200 -30.107000
H -25.942400 -8.196900 -28.546100
C -25.383400 -10.098400 -29.020700
C -25.374900 -8.914800 -28.290500
H -24.557800 -11.968300 -29.119300
C -24.554400 -11.154200 -28.629400
H -24.541200 -7.964100 -26.699800
C -24.539900 -8.777700 -27.189900
C -23.728400 -11.011700 -27.527400
C -23.694300 -9.823500 -26.790300
H -23.531600 -8.125900 -24.538100
H -23.172800 -11.736900 -27.266400
C -22.782700 -9.697600 -25.622600
C -22.664400 -8.370400 -24.923600
H -22.388300 -7.685700 -25.567700
O -22.132700 -10.666500 -25.234800
H -21.996300 -8.435900 -24.209700
22
Fragment
H -23.052600 -3.831600 -20.471100
H -22.610400 -3.781500 -22.008800
H -22.532900 -5.782300 -19.128900
C -22.347600 -4.104500 -21.110500
N -22.255400 -5.589500 -21.132300
C -21.838600 -6.038800 -19.786200
H -21.766100 -7.026100 -19.781700
H -21.440500 -5.646700 -23.005400
H -21.367600 -3.707200 -18.733500
C -21.183100 -5.956000 -22.100900
H -21.092300 -6.941300 -22.130000
N -21.075200 -3.474900 -20.723900
C -20.685000 -3.978000 -19.397400
N -20.544400 -5.456500 -19.375900
H -20.283300 -3.576300 -22.591200
C -20.041200 -3.905300 -21.689400
N -19.889000 -5.360100 -21.734800
H -19.824400 -3.566200 -19.133700
C -19.523600 -5.829500 -20.395100
H -19.423900 -6.814200 -20.410900
H -19.174900 -3.496200 -21.439700
H -18.650400 -5.439000 -20.140000
40
Fragment
H -26.730800 -9.656100 -30.160200
O -26.176500 -10.285200 -30.107000
H -25.942400 -8.196900 -28.546100
C -25.383400 -10.098400 -29.020700
C -25.374900 -8.914800 -28.290500
H -24.557800 -11.968300 -29.119300
C -24.554400 -11.154200 -28.629400
H -24.541200 -7.964100 -26.699800
C -24.539900 -8.777700 -27.189900
C -23.728400 -11.011700 -27.527400
C -23.694300 -9.823500 -26.790300
H -23.531600 -8.125900 -24.538100
H -23.172800 -11.736900 -27.266400
C -22.782700 -9.697600 -25.622600
C -22.664400 -8.370400 -24.923600
H -22.388300 -7.685700 -25.567700
O -22.132700 -10.666500 -25.234800
H -21.996300 -8.435900 -24.209700
H -23.052600 -3.831600 -20.471100
H -22.610400 -3.781500 -22.008800
H -22.532900 -5.782300 -19.128900
C -22.347600 -4.104500 -21.110500
N -22.255400 -5.589500 -21.132300
C -21.838600 -6.038800 -19.786200
H -21.766100 -7.026100 -19.781700
H -21.440500 -5.646700 -23.005400
H -21.367600 -3.707200 -18.733500
C -21.183100 -5.956000 -22.100900
H -21.092300 -6.941300 -22.130000
N -21.075200 -3.474900 -20.723900
C -20.685000 -3.978000 -19.397400
N -20.544400 -5.456500 -19.375900
H -20.283300 -3.576300 -22.591200
C -20.041200 -3.905300 -21.689400
N -19.889000 -5.360100 -21.734800
H -19.824400 -3.566200 -19.133700
C -19.523600 -5.829500 -20.395100
H -19.423900 -6.814200 -20.410900
H -19.174900 -3.496200 -21.439700
H -18.650400 -5.439000 -20.140000
