18
Fragment
H -26.730800 -9.656100 -30.160200
O -26.176500 -10.285200 -30.107000
H -25.942400 -8.196900 -28.546100
C -25.383400 -10.098400 -29.020700
C -25.374900 -8.914800 -28.290500
H -24.557800 -11.968300 -29.119300
C -24.554400 -11.154200 -28.629400
H -24.541200 -7.964100 -26.699800
C -24.539900 -8.777700 -27.189900
C -23.728400 -11.011700 -27.527400
C -23.694300 -9.823500 -26.790300
H -23.531600 -8.125900 -24.538100
H -23.172800 -11.736900 -27.266400
C -22.782700 -9.697600 -25.622600
C -22.664400 -8.370400 -24.923600
H -22.388300 -7.685700 -25.567700
O -22.132700 -10.666500 -25.234800
H -21.996300 -8.435900 -24.209700
18
Fragment
H -28.496300 -5.480000 -27.333600
O -28.359800 -7.710600 -26.308500
H -28.104300 -4.729800 -25.975500
C -27.828100 -5.414500 -26.619600
C -27.709800 -6.741700 -25.920700
H -27.319700 -8.781100 -24.276900
H -26.961000 -5.170000 -27.005200
C -26.798200 -6.867600 -24.752900
C -26.764100 -8.055900 -24.015900
C -25.952600 -5.821800 -24.353400
H -25.951300 -5.008300 -24.843400
C -25.938100 -8.198300 -22.913900
H -25.934700 -9.012400 -22.424000
C -25.117700 -5.959000 -23.252800
C -25.109100 -7.142500 -22.522600
H -24.550200 -5.241000 -22.997200
O -24.316100 -7.329300 -21.436200
H -23.761700 -6.700300 -21.383000
36
Fragment
H -26.730800 -9.656100 -30.160200
O -26.176500 -10.285200 -30.107000
H -25.942400 -8.196900 -28.546100
C -25.383400 -10.098400 -29.020700
C -25.374900 -8.914800 -28.290500
H -24.557800 -11.968300 -29.119300
C -24.554400 -11.154200 -28.629400
H -24.541200 -7.964100 -26.699800
C -24.539900 -8.777700 -27.189900
C -23.728400 -11.011700 -27.527400
C -23.694300 -9.823500 -26.790300
H -23.531600 -8.125900 -24.538100
H -23.172800 -11.736900 -27.266400
C -22.782700 -9.697600 -25.622600
C -22.664400 -8.370400 -24.923600
H -22.388300 -7.685700 -25.567700
O -22.132700 -10.666500 -25.234800
H -21.996300 -8.435900 -24.209700
H -28.496300 -5.480000 -27.333600
O -28.359800 -7.710600 -26.308500
H -28.104300 -4.729800 -25.975500
C -27.828100 -5.414500 -26.619600
C -27.709800 -6.741700 -25.920700
H -27.319700 -8.781100 -24.276900
H -26.961000 -5.170000 -27.005200
C -26.798200 -6.867600 -24.752900
C -26.764100 -8.055900 -24.015900
C -25.952600 -5.821800 -24.353400
H -25.951300 -5.008300 -24.843400
C -25.938100 -8.198300 -22.913900
H -25.934700 -9.012400 -22.424000
C -25.117700 -5.959000 -23.252800
C -25.109100 -7.142500 -22.522600
H -24.550200 -5.241000 -22.997200
O -24.316100 -7.329300 -21.436200
H -23.761700 -6.700300 -21.383000
