37
Fragment
H -18.518300 -23.385900 -16.272600
N -18.145900 -20.726300 -16.487700
O -17.629900 -24.142700 -13.089400
O -17.623500 -18.443300 -20.280400
C -17.564700 -23.167600 -16.221800
N -17.455200 -20.079000 -17.312100
O -17.370300 -20.590800 -20.081900
H -17.294200 -21.615700 -14.826000
C -17.258800 -21.719100 -15.800600
H -17.156200 -22.629100 -18.220500
N -16.993200 -19.427200 -19.938100
H -16.959000 -25.062600 -15.593200
C -16.815500 -23.251000 -17.558900
H -16.796700 -24.150600 -17.922800
C -16.732500 -24.134000 -15.377000
C -16.726200 -23.924900 -13.878200
N -16.156400 -20.445900 -17.336300
C -15.856800 -21.476200 -16.332400
C -15.662100 -19.204000 -19.402500
N -15.500900 -23.387800 -13.538500
C -15.461100 -22.816400 -16.975000
H -15.321600 -23.102300 -12.747100
C -15.307200 -23.819000 -15.803200
C -15.254100 -19.783100 -18.191300
H -15.227000 -21.174800 -15.644100
H -15.084400 -18.074400 -20.956000
H -14.878500 -24.636900 -16.130200
C -14.786600 -18.481700 -20.173500
H -14.714200 -22.782100 -17.608600
C -14.595800 -23.346200 -14.565200
C -13.936900 -19.634000 -17.832500
H -13.632800 -20.007400 -17.037300
C -13.485900 -18.359500 -19.799400
O -13.456900 -22.940200 -14.469800
C -13.062600 -18.940200 -18.635300
H -12.888000 -17.884200 -20.330000
H -12.170500 -18.865500 -18.384700
15
Fragment
H -14.555900 -19.656100 -24.309700
N -14.422300 -17.844800 -23.490400
C -14.388000 -18.744100 -24.388600
C -14.136400 -16.588800 -23.928000
O -14.116000 -15.569000 -23.276600
C -14.027400 -17.997400 -25.545100
H -13.924600 -19.420200 -27.000600
C -13.878000 -16.654300 -25.279200
C -13.828700 -18.517800 -26.800900
C -13.536600 -15.710400 -26.237300
C -13.474100 -17.572500 -27.730900
H -13.436300 -14.805800 -26.042600
C -13.359000 -16.224000 -27.489200
H -13.297600 -17.868900 -28.594800
H -13.157400 -15.649900 -28.192800
52
Fragment
H -18.518300 -23.385900 -16.272600
N -18.145900 -20.726300 -16.487700
O -17.629900 -24.142700 -13.089400
O -17.623500 -18.443300 -20.280400
C -17.564700 -23.167600 -16.221800
N -17.455200 -20.079000 -17.312100
O -17.370300 -20.590800 -20.081900
H -17.294200 -21.615700 -14.826000
C -17.258800 -21.719100 -15.800600
H -17.156200 -22.629100 -18.220500
N -16.993200 -19.427200 -19.938100
H -16.959000 -25.062600 -15.593200
C -16.815500 -23.251000 -17.558900
H -16.796700 -24.150600 -17.922800
C -16.732500 -24.134000 -15.377000
C -16.726200 -23.924900 -13.878200
N -16.156400 -20.445900 -17.336300
C -15.856800 -21.476200 -16.332400
C -15.662100 -19.204000 -19.402500
N -15.500900 -23.387800 -13.538500
C -15.461100 -22.816400 -16.975000
H -15.321600 -23.102300 -12.747100
C -15.307200 -23.819000 -15.803200
C -15.254100 -19.783100 -18.191300
H -15.227000 -21.174800 -15.644100
H -15.084400 -18.074400 -20.956000
H -14.878500 -24.636900 -16.130200
C -14.786600 -18.481700 -20.173500
H -14.714200 -22.782100 -17.608600
C -14.595800 -23.346200 -14.565200
C -13.936900 -19.634000 -17.832500
H -13.632800 -20.007400 -17.037300
C -13.485900 -18.359500 -19.799400
O -13.456900 -22.940200 -14.469800
C -13.062600 -18.940200 -18.635300
H -12.888000 -17.884200 -20.330000
H -12.170500 -18.865500 -18.384700
H -14.555900 -19.656100 -24.309700
N -14.422300 -17.844800 -23.490400
C -14.388000 -18.744100 -24.388600
C -14.136400 -16.588800 -23.928000
O -14.116000 -15.569000 -23.276600
C -14.027400 -17.997400 -25.545100
H -13.924600 -19.420200 -27.000600
C -13.878000 -16.654300 -25.279200
C -13.828700 -18.517800 -26.800900
C -13.536600 -15.710400 -26.237300
C -13.474100 -17.572500 -27.730900
H -13.436300 -14.805800 -26.042600
C -13.359000 -16.224000 -27.489200
H -13.297600 -17.868900 -28.594800
H -13.157400 -15.649900 -28.192800
