37
Fragment
H -18.518300 -23.385900 -16.272600
N -18.145900 -20.726300 -16.487700
O -17.629900 -24.142700 -13.089400
O -17.623500 -18.443300 -20.280400
C -17.564700 -23.167600 -16.221800
N -17.455200 -20.079000 -17.312100
O -17.370300 -20.590800 -20.081900
H -17.294200 -21.615700 -14.826000
C -17.258800 -21.719100 -15.800600
H -17.156200 -22.629100 -18.220500
N -16.993200 -19.427200 -19.938100
H -16.959000 -25.062600 -15.593200
C -16.815500 -23.251000 -17.558900
H -16.796700 -24.150600 -17.922800
C -16.732500 -24.134000 -15.377000
C -16.726200 -23.924900 -13.878200
N -16.156400 -20.445900 -17.336300
C -15.856800 -21.476200 -16.332400
C -15.662100 -19.204000 -19.402500
N -15.500900 -23.387800 -13.538500
C -15.461100 -22.816400 -16.975000
H -15.321600 -23.102300 -12.747100
C -15.307200 -23.819000 -15.803200
C -15.254100 -19.783100 -18.191300
H -15.227000 -21.174800 -15.644100
H -15.084400 -18.074400 -20.956000
H -14.878500 -24.636900 -16.130200
C -14.786600 -18.481700 -20.173500
H -14.714200 -22.782100 -17.608600
C -14.595800 -23.346200 -14.565200
C -13.936900 -19.634000 -17.832500
H -13.632800 -20.007400 -17.037300
C -13.485900 -18.359500 -19.799400
O -13.456900 -22.940200 -14.469800
C -13.062600 -18.940200 -18.635300
H -12.888000 -17.884200 -20.330000
H -12.170500 -18.865500 -18.384700
37
Fragment
H -15.776900 -26.523900 -7.061200
H -15.059400 -27.505200 -5.115900
C -14.884800 -26.449200 -6.810600
O -14.490500 -22.449200 -10.976100
C -14.461500 -27.029900 -5.646400
H -14.314600 -25.382000 -8.408600
C -14.010500 -25.755400 -7.613400
C -13.351600 -22.043200 -10.880700
H -13.233200 -22.607300 -7.837300
C -13.160800 -26.907700 -5.272400
H -13.068900 -20.752500 -9.315700
H -12.863000 -27.315000 -4.489900
H -12.720400 -24.214600 -9.801800
C -12.693300 -25.606300 -7.254600
C -12.640200 -21.570400 -9.642700
H -12.625800 -22.287100 -12.698800
C -12.486300 -22.573000 -8.470900
N -12.446500 -22.001600 -11.907400
C -12.285300 -26.185400 -6.043400
C -12.090600 -23.913200 -9.113400
N -11.791000 -24.943500 -8.109600
C -11.221200 -21.464500 -11.567700
C -11.214800 -21.255400 -10.068900
H -11.150700 -21.238800 -7.523100
C -11.131900 -22.138400 -7.887000
H -10.988400 -20.326800 -9.852600
N -10.954200 -25.962200 -5.507800
H -10.791100 -22.760300 -7.225400
C -10.688600 -23.670300 -9.645300
H -10.653200 -23.773700 -10.619800
O -10.577000 -24.798600 -5.364000
N -10.492200 -25.310400 -8.133800
C -10.382700 -22.221800 -9.224100
O -10.323900 -26.946100 -5.165500
O -10.317500 -21.246700 -12.356500
N -9.801500 -24.663100 -8.958200
H -9.429100 -22.003500 -9.173200
74
Fragment
H -18.518300 -23.385900 -16.272600
N -18.145900 -20.726300 -16.487700
O -17.629900 -24.142700 -13.089400
O -17.623500 -18.443300 -20.280400
C -17.564700 -23.167600 -16.221800
N -17.455200 -20.079000 -17.312100
O -17.370300 -20.590800 -20.081900
H -17.294200 -21.615700 -14.826000
C -17.258800 -21.719100 -15.800600
H -17.156200 -22.629100 -18.220500
N -16.993200 -19.427200 -19.938100
H -16.959000 -25.062600 -15.593200
C -16.815500 -23.251000 -17.558900
H -16.796700 -24.150600 -17.922800
C -16.732500 -24.134000 -15.377000
C -16.726200 -23.924900 -13.878200
N -16.156400 -20.445900 -17.336300
C -15.856800 -21.476200 -16.332400
C -15.662100 -19.204000 -19.402500
N -15.500900 -23.387800 -13.538500
C -15.461100 -22.816400 -16.975000
H -15.321600 -23.102300 -12.747100
C -15.307200 -23.819000 -15.803200
C -15.254100 -19.783100 -18.191300
H -15.227000 -21.174800 -15.644100
H -15.084400 -18.074400 -20.956000
H -14.878500 -24.636900 -16.130200
C -14.786600 -18.481700 -20.173500
H -14.714200 -22.782100 -17.608600
C -14.595800 -23.346200 -14.565200
C -13.936900 -19.634000 -17.832500
H -13.632800 -20.007400 -17.037300
C -13.485900 -18.359500 -19.799400
O -13.456900 -22.940200 -14.469800
C -13.062600 -18.940200 -18.635300
H -12.888000 -17.884200 -20.330000
H -12.170500 -18.865500 -18.384700
H -15.776900 -26.523900 -7.061200
H -15.059400 -27.505200 -5.115900
C -14.884800 -26.449200 -6.810600
O -14.490500 -22.449200 -10.976100
C -14.461500 -27.029900 -5.646400
H -14.314600 -25.382000 -8.408600
C -14.010500 -25.755400 -7.613400
C -13.351600 -22.043200 -10.880700
H -13.233200 -22.607300 -7.837300
C -13.160800 -26.907700 -5.272400
H -13.068900 -20.752500 -9.315700
H -12.863000 -27.315000 -4.489900
H -12.720400 -24.214600 -9.801800
C -12.693300 -25.606300 -7.254600
C -12.640200 -21.570400 -9.642700
H -12.625800 -22.287100 -12.698800
C -12.486300 -22.573000 -8.470900
N -12.446500 -22.001600 -11.907400
C -12.285300 -26.185400 -6.043400
C -12.090600 -23.913200 -9.113400
N -11.791000 -24.943500 -8.109600
C -11.221200 -21.464500 -11.567700
C -11.214800 -21.255400 -10.068900
H -11.150700 -21.238800 -7.523100
C -11.131900 -22.138400 -7.887000
H -10.988400 -20.326800 -9.852600
N -10.954200 -25.962200 -5.507800
H -10.791100 -22.760300 -7.225400
C -10.688600 -23.670300 -9.645300
H -10.653200 -23.773700 -10.619800
O -10.577000 -24.798600 -5.364000
N -10.492200 -25.310400 -8.133800
C -10.382700 -22.221800 -9.224100
O -10.323900 -26.946100 -5.165500
O -10.317500 -21.246700 -12.356500
N -9.801500 -24.663100 -8.958200
H -9.429100 -22.003500 -9.173200
