30
Fragment
N -11.896200 -9.055300 -23.998000
N -11.860300 -7.198200 -27.890000
C -11.601700 -9.183000 -25.103000
C -11.561300 -8.141900 -27.299100
C -11.242400 -9.306300 -26.504100
C -10.745400 -10.466700 -26.981200
H -10.704400 -12.798300 -28.072300
H -10.652200 -11.209100 -26.328200
C -10.421200 -12.137800 -28.731800
C -10.393400 -10.788200 -28.368600
N -10.284400 -17.320800 -31.059400
C -10.227200 -16.329300 -30.493300
H -10.214700 -14.029100 -31.512700
C -10.190300 -13.918200 -30.518600
C -10.159900 -15.060300 -29.802400
C -10.143300 -12.531500 -30.048700
C -10.017800 -9.830300 -29.327800
C -10.006500 -15.137500 -28.372900
H -9.923200 -8.894000 -29.047000
N -9.856000 -15.193100 -27.235800
C -9.829000 -11.556300 -31.003900
C -9.734200 -10.201200 -30.641000
H -9.666000 -11.835500 -31.914600
N -9.416000 -11.058200 -34.536300
C -9.317400 -9.122100 -31.542300
C -9.292400 -10.206900 -33.777400
H -9.174800 -8.234700 -31.124600
C -9.119300 -9.107900 -32.874700
C -8.664900 -7.877300 -33.488900
N -8.289200 -6.889200 -33.941000
30
Fragment
H -14.761800 -12.170300 -25.309000
H -14.666300 -9.854300 -25.892100
C -14.519200 -11.888300 -26.230500
C -14.471700 -10.547700 -26.595800
H -14.361200 -13.847300 -26.913000
C -14.267900 -12.865300 -27.169800
C -14.144600 -10.188800 -27.887300
H -14.120400 -9.206900 -28.152700
C -13.925500 -12.534200 -28.506100
H -13.887200 -15.214900 -28.238200
C -13.846300 -11.169200 -28.863300
C -13.756100 -14.946200 -29.197300
C -13.711400 -13.570100 -29.517400
H -13.649000 -16.859500 -29.931000
C -13.643700 -15.918000 -30.161700
C -13.486500 -13.195600 -30.867600
C -13.486400 -15.553600 -31.500900
C -13.455200 -10.780800 -30.229100
H -13.455100 -16.231600 -32.213800
C -13.396600 -14.218000 -31.842100
C -13.307900 -11.779700 -31.216400
H -13.260300 -13.939300 -32.783200
H -13.234600 -8.774600 -29.888300
C -13.202600 -9.439000 -30.575900
C -12.927600 -11.379100 -32.525000
C -12.834200 -9.075100 -31.853400
H -12.772900 -12.057500 -33.234700
C -12.702300 -10.055000 -32.833500
H -12.597300 -8.149300 -32.053100
H -12.416400 -9.759100 -33.761300
60
Fragment
N -11.896200 -9.055300 -23.998000
N -11.860300 -7.198200 -27.890000
C -11.601700 -9.183000 -25.103000
C -11.561300 -8.141900 -27.299100
C -11.242400 -9.306300 -26.504100
C -10.745400 -10.466700 -26.981200
H -10.704400 -12.798300 -28.072300
H -10.652200 -11.209100 -26.328200
C -10.421200 -12.137800 -28.731800
C -10.393400 -10.788200 -28.368600
N -10.284400 -17.320800 -31.059400
C -10.227200 -16.329300 -30.493300
H -10.214700 -14.029100 -31.512700
C -10.190300 -13.918200 -30.518600
C -10.159900 -15.060300 -29.802400
C -10.143300 -12.531500 -30.048700
C -10.017800 -9.830300 -29.327800
C -10.006500 -15.137500 -28.372900
H -9.923200 -8.894000 -29.047000
N -9.856000 -15.193100 -27.235800
C -9.829000 -11.556300 -31.003900
C -9.734200 -10.201200 -30.641000
H -9.666000 -11.835500 -31.914600
N -9.416000 -11.058200 -34.536300
C -9.317400 -9.122100 -31.542300
C -9.292400 -10.206900 -33.777400
H -9.174800 -8.234700 -31.124600
C -9.119300 -9.107900 -32.874700
C -8.664900 -7.877300 -33.488900
N -8.289200 -6.889200 -33.941000
H -14.761800 -12.170300 -25.309000
H -14.666300 -9.854300 -25.892100
C -14.519200 -11.888300 -26.230500
C -14.471700 -10.547700 -26.595800
H -14.361200 -13.847300 -26.913000
C -14.267900 -12.865300 -27.169800
C -14.144600 -10.188800 -27.887300
H -14.120400 -9.206900 -28.152700
C -13.925500 -12.534200 -28.506100
H -13.887200 -15.214900 -28.238200
C -13.846300 -11.169200 -28.863300
C -13.756100 -14.946200 -29.197300
C -13.711400 -13.570100 -29.517400
H -13.649000 -16.859500 -29.931000
C -13.643700 -15.918000 -30.161700
C -13.486500 -13.195600 -30.867600
C -13.486400 -15.553600 -31.500900
C -13.455200 -10.780800 -30.229100
H -13.455100 -16.231600 -32.213800
C -13.396600 -14.218000 -31.842100
C -13.307900 -11.779700 -31.216400
H -13.260300 -13.939300 -32.783200
H -13.234600 -8.774600 -29.888300
C -13.202600 -9.439000 -30.575900
C -12.927600 -11.379100 -32.525000
C -12.834200 -9.075100 -31.853400
H -12.772900 -12.057500 -33.234700
C -12.702300 -10.055000 -32.833500
H -12.597300 -8.149300 -32.053100
H -12.416400 -9.759100 -33.761300
