30
Fragment
N -11.896200 -9.055300 -23.998000
N -11.860300 -7.198200 -27.890000
C -11.601700 -9.183000 -25.103000
C -11.561300 -8.141900 -27.299100
C -11.242400 -9.306300 -26.504100
C -10.745400 -10.466700 -26.981200
H -10.704400 -12.798300 -28.072300
H -10.652200 -11.209100 -26.328200
C -10.421200 -12.137800 -28.731800
C -10.393400 -10.788200 -28.368600
N -10.284400 -17.320800 -31.059400
C -10.227200 -16.329300 -30.493300
H -10.214700 -14.029100 -31.512700
C -10.190300 -13.918200 -30.518600
C -10.159900 -15.060300 -29.802400
C -10.143300 -12.531500 -30.048700
C -10.017800 -9.830300 -29.327800
C -10.006500 -15.137500 -28.372900
H -9.923200 -8.894000 -29.047000
N -9.856000 -15.193100 -27.235800
C -9.829000 -11.556300 -31.003900
C -9.734200 -10.201200 -30.641000
H -9.666000 -11.835500 -31.914600
N -9.416000 -11.058200 -34.536300
C -9.317400 -9.122100 -31.542300
C -9.292400 -10.206900 -33.777400
H -9.174800 -8.234700 -31.124600
C -9.119300 -9.107900 -32.874700
C -8.664900 -7.877300 -33.488900
N -8.289200 -6.889200 -33.941000
30
Fragment
H -14.567400 -17.368200 -17.537300
H -14.386500 -18.978100 -19.245500
C -14.281500 -17.072400 -18.465100
H -14.210900 -15.069900 -18.064000
C -14.149600 -18.052300 -19.445300
C -14.056200 -15.748200 -18.773600
C -13.781200 -17.688400 -20.722800
H -13.749100 -18.352800 -21.410300
H -13.723500 -13.188000 -18.515400
C -13.675800 -15.347700 -20.082200
C -13.587200 -12.909400 -19.456500
H -13.528700 -10.895800 -19.084800
C -13.528600 -16.346600 -21.069500
C -13.497400 -11.573700 -19.797700
C -13.497200 -13.931800 -20.431000
C -13.340100 -11.209300 -21.136900
H -13.334800 -10.267800 -21.367600
C -13.272400 -13.557300 -21.781200
C -13.227700 -12.181100 -22.101300
C -13.137500 -15.958200 -22.435300
H -13.096600 -11.912500 -23.060400
C -13.058300 -14.593100 -22.792500
H -12.863400 -17.920400 -23.145900
C -12.839200 -16.938500 -23.411300
C -12.715900 -14.262100 -24.128800
H -12.622600 -13.280100 -24.385600
C -12.512100 -16.579600 -24.702800
C -12.464600 -15.239000 -25.068100
H -12.317500 -17.273000 -25.406500
H -12.222000 -14.957100 -25.989600
60
Fragment
N -11.896200 -9.055300 -23.998000
N -11.860300 -7.198200 -27.890000
C -11.601700 -9.183000 -25.103000
C -11.561300 -8.141900 -27.299100
C -11.242400 -9.306300 -26.504100
C -10.745400 -10.466700 -26.981200
H -10.704400 -12.798300 -28.072300
H -10.652200 -11.209100 -26.328200
C -10.421200 -12.137800 -28.731800
C -10.393400 -10.788200 -28.368600
N -10.284400 -17.320800 -31.059400
C -10.227200 -16.329300 -30.493300
H -10.214700 -14.029100 -31.512700
C -10.190300 -13.918200 -30.518600
C -10.159900 -15.060300 -29.802400
C -10.143300 -12.531500 -30.048700
C -10.017800 -9.830300 -29.327800
C -10.006500 -15.137500 -28.372900
H -9.923200 -8.894000 -29.047000
N -9.856000 -15.193100 -27.235800
C -9.829000 -11.556300 -31.003900
C -9.734200 -10.201200 -30.641000
H -9.666000 -11.835500 -31.914600
N -9.416000 -11.058200 -34.536300
C -9.317400 -9.122100 -31.542300
C -9.292400 -10.206900 -33.777400
H -9.174800 -8.234700 -31.124600
C -9.119300 -9.107900 -32.874700
C -8.664900 -7.877300 -33.488900
N -8.289200 -6.889200 -33.941000
H -14.567400 -17.368200 -17.537300
H -14.386500 -18.978100 -19.245500
C -14.281500 -17.072400 -18.465100
H -14.210900 -15.069900 -18.064000
C -14.149600 -18.052300 -19.445300
C -14.056200 -15.748200 -18.773600
C -13.781200 -17.688400 -20.722800
H -13.749100 -18.352800 -21.410300
H -13.723500 -13.188000 -18.515400
C -13.675800 -15.347700 -20.082200
C -13.587200 -12.909400 -19.456500
H -13.528700 -10.895800 -19.084800
C -13.528600 -16.346600 -21.069500
C -13.497400 -11.573700 -19.797700
C -13.497200 -13.931800 -20.431000
C -13.340100 -11.209300 -21.136900
H -13.334800 -10.267800 -21.367600
C -13.272400 -13.557300 -21.781200
C -13.227700 -12.181100 -22.101300
C -13.137500 -15.958200 -22.435300
H -13.096600 -11.912500 -23.060400
C -13.058300 -14.593100 -22.792500
H -12.863400 -17.920400 -23.145900
C -12.839200 -16.938500 -23.411300
C -12.715900 -14.262100 -24.128800
H -12.622600 -13.280100 -24.385600
C -12.512100 -16.579600 -24.702800
C -12.464600 -15.239000 -25.068100
H -12.317500 -17.273000 -25.406500
H -12.222000 -14.957100 -25.989600
