30
Fragment
N -11.896200 -9.055300 -23.998000
N -11.860300 -7.198200 -27.890000
C -11.601700 -9.183000 -25.103000
C -11.561300 -8.141900 -27.299100
C -11.242400 -9.306300 -26.504100
C -10.745400 -10.466700 -26.981200
H -10.704400 -12.798300 -28.072300
H -10.652200 -11.209100 -26.328200
C -10.421200 -12.137800 -28.731800
C -10.393400 -10.788200 -28.368600
N -10.284400 -17.320800 -31.059400
C -10.227200 -16.329300 -30.493300
H -10.214700 -14.029100 -31.512700
C -10.190300 -13.918200 -30.518600
C -10.159900 -15.060300 -29.802400
C -10.143300 -12.531500 -30.048700
C -10.017800 -9.830300 -29.327800
C -10.006500 -15.137500 -28.372900
H -9.923200 -8.894000 -29.047000
N -9.856000 -15.193100 -27.235800
C -9.829000 -11.556300 -31.003900
C -9.734200 -10.201200 -30.641000
H -9.666000 -11.835500 -31.914600
N -9.416000 -11.058200 -34.536300
C -9.317400 -9.122100 -31.542300
C -9.292400 -10.206900 -33.777400
H -9.174800 -8.234700 -31.124600
C -9.119300 -9.107900 -32.874700
C -8.664900 -7.877300 -33.488900
N -8.289200 -6.889200 -33.941000
30
Fragment
H -14.452000 -23.191900 -25.309000
H -14.356500 -20.876000 -25.892100
C -14.209400 -22.910000 -26.230500
C -14.161900 -21.569400 -26.595800
H -14.051400 -24.868900 -26.913000
C -13.958100 -23.886900 -27.169800
C -13.834800 -21.210500 -27.887300
H -13.810600 -20.228600 -28.152700
C -13.615700 -23.555900 -28.506100
H -13.577400 -26.236500 -28.238200
C -13.536500 -22.190800 -28.863300
C -13.446300 -25.967900 -29.197300
C -13.401600 -24.591700 -29.517400
H -13.339200 -27.881200 -29.931000
C -13.333900 -26.939700 -30.161700
C -13.176800 -24.217200 -30.867600
C -13.176600 -26.575300 -31.500900
C -13.145400 -21.802400 -30.229100
H -13.145300 -27.253200 -32.213800
C -13.086800 -25.239600 -31.842100
C -12.998200 -22.801300 -31.216400
H -12.950500 -24.961000 -32.783200
H -12.924900 -19.796200 -29.888300
C -12.892800 -20.460600 -30.575900
C -12.617800 -22.400800 -32.525000
C -12.524400 -20.096700 -31.853400
H -12.463100 -23.079100 -33.234700
C -12.392500 -21.076600 -32.833500
H -12.287500 -19.170900 -32.053100
H -12.106600 -20.780800 -33.761300
60
Fragment
N -11.896200 -9.055300 -23.998000
N -11.860300 -7.198200 -27.890000
C -11.601700 -9.183000 -25.103000
C -11.561300 -8.141900 -27.299100
C -11.242400 -9.306300 -26.504100
C -10.745400 -10.466700 -26.981200
H -10.704400 -12.798300 -28.072300
H -10.652200 -11.209100 -26.328200
C -10.421200 -12.137800 -28.731800
C -10.393400 -10.788200 -28.368600
N -10.284400 -17.320800 -31.059400
C -10.227200 -16.329300 -30.493300
H -10.214700 -14.029100 -31.512700
C -10.190300 -13.918200 -30.518600
C -10.159900 -15.060300 -29.802400
C -10.143300 -12.531500 -30.048700
C -10.017800 -9.830300 -29.327800
C -10.006500 -15.137500 -28.372900
H -9.923200 -8.894000 -29.047000
N -9.856000 -15.193100 -27.235800
C -9.829000 -11.556300 -31.003900
C -9.734200 -10.201200 -30.641000
H -9.666000 -11.835500 -31.914600
N -9.416000 -11.058200 -34.536300
C -9.317400 -9.122100 -31.542300
C -9.292400 -10.206900 -33.777400
H -9.174800 -8.234700 -31.124600
C -9.119300 -9.107900 -32.874700
C -8.664900 -7.877300 -33.488900
N -8.289200 -6.889200 -33.941000
H -14.452000 -23.191900 -25.309000
H -14.356500 -20.876000 -25.892100
C -14.209400 -22.910000 -26.230500
C -14.161900 -21.569400 -26.595800
H -14.051400 -24.868900 -26.913000
C -13.958100 -23.886900 -27.169800
C -13.834800 -21.210500 -27.887300
H -13.810600 -20.228600 -28.152700
C -13.615700 -23.555900 -28.506100
H -13.577400 -26.236500 -28.238200
C -13.536500 -22.190800 -28.863300
C -13.446300 -25.967900 -29.197300
C -13.401600 -24.591700 -29.517400
H -13.339200 -27.881200 -29.931000
C -13.333900 -26.939700 -30.161700
C -13.176800 -24.217200 -30.867600
C -13.176600 -26.575300 -31.500900
C -13.145400 -21.802400 -30.229100
H -13.145300 -27.253200 -32.213800
C -13.086800 -25.239600 -31.842100
C -12.998200 -22.801300 -31.216400
H -12.950500 -24.961000 -32.783200
H -12.924900 -19.796200 -29.888300
C -12.892800 -20.460600 -30.575900
C -12.617800 -22.400800 -32.525000
C -12.524400 -20.096700 -31.853400
H -12.463100 -23.079100 -33.234700
C -12.392500 -21.076600 -32.833500
H -12.287500 -19.170900 -32.053100
H -12.106600 -20.780800 -33.761300
