30
Fragment
N -11.896200 -9.055300 -23.998000
N -11.860300 -7.198200 -27.890000
C -11.601700 -9.183000 -25.103000
C -11.561300 -8.141900 -27.299100
C -11.242400 -9.306300 -26.504100
C -10.745400 -10.466700 -26.981200
H -10.704400 -12.798300 -28.072300
H -10.652200 -11.209100 -26.328200
C -10.421200 -12.137800 -28.731800
C -10.393400 -10.788200 -28.368600
N -10.284400 -17.320800 -31.059400
C -10.227200 -16.329300 -30.493300
H -10.214700 -14.029100 -31.512700
C -10.190300 -13.918200 -30.518600
C -10.159900 -15.060300 -29.802400
C -10.143300 -12.531500 -30.048700
C -10.017800 -9.830300 -29.327800
C -10.006500 -15.137500 -28.372900
H -9.923200 -8.894000 -29.047000
N -9.856000 -15.193100 -27.235800
C -9.829000 -11.556300 -31.003900
C -9.734200 -10.201200 -30.641000
H -9.666000 -11.835500 -31.914600
N -9.416000 -11.058200 -34.536300
C -9.317400 -9.122100 -31.542300
C -9.292400 -10.206900 -33.777400
H -9.174800 -8.234700 -31.124600
C -9.119300 -9.107900 -32.874700
C -8.664900 -7.877300 -33.488900
N -8.289200 -6.889200 -33.941000
30
Fragment
H -15.071500 -1.148600 -25.309000
H -14.976000 1.167300 -25.892100
C -14.829000 -0.866700 -26.230500
C -14.781500 0.473900 -26.595800
H -14.671000 -2.825600 -26.913000
C -14.577700 -1.843600 -27.169800
C -14.454400 0.832800 -27.887300
H -14.430200 1.814700 -28.152700
C -14.235300 -1.512600 -28.506100
H -14.197000 -4.193200 -28.238200
C -14.156100 -0.147500 -28.863300
C -14.065900 -3.924600 -29.197300
C -14.021200 -2.548400 -29.517400
H -13.958800 -5.837900 -29.931000
C -13.953500 -4.896400 -30.161700
C -13.796300 -2.173900 -30.867600
C -13.796200 -4.532000 -31.500900
C -13.765000 0.240900 -30.229100
H -13.764900 -5.210000 -32.213800
C -13.706400 -3.196300 -31.842100
C -13.617700 -0.758000 -31.216400
H -13.570100 -2.917700 -32.783200
H -13.544400 2.247100 -29.888300
C -13.512400 1.582700 -30.575900
C -13.237400 -0.357500 -32.525000
C -13.143900 1.946600 -31.853400
H -13.082600 -1.035800 -33.234700
C -13.012100 0.966700 -32.833500
H -12.907100 2.872400 -32.053100
H -12.726100 1.262500 -33.761300
60
Fragment
N -11.896200 -9.055300 -23.998000
N -11.860300 -7.198200 -27.890000
C -11.601700 -9.183000 -25.103000
C -11.561300 -8.141900 -27.299100
C -11.242400 -9.306300 -26.504100
C -10.745400 -10.466700 -26.981200
H -10.704400 -12.798300 -28.072300
H -10.652200 -11.209100 -26.328200
C -10.421200 -12.137800 -28.731800
C -10.393400 -10.788200 -28.368600
N -10.284400 -17.320800 -31.059400
C -10.227200 -16.329300 -30.493300
H -10.214700 -14.029100 -31.512700
C -10.190300 -13.918200 -30.518600
C -10.159900 -15.060300 -29.802400
C -10.143300 -12.531500 -30.048700
C -10.017800 -9.830300 -29.327800
C -10.006500 -15.137500 -28.372900
H -9.923200 -8.894000 -29.047000
N -9.856000 -15.193100 -27.235800
C -9.829000 -11.556300 -31.003900
C -9.734200 -10.201200 -30.641000
H -9.666000 -11.835500 -31.914600
N -9.416000 -11.058200 -34.536300
C -9.317400 -9.122100 -31.542300
C -9.292400 -10.206900 -33.777400
H -9.174800 -8.234700 -31.124600
C -9.119300 -9.107900 -32.874700
C -8.664900 -7.877300 -33.488900
N -8.289200 -6.889200 -33.941000
H -15.071500 -1.148600 -25.309000
H -14.976000 1.167300 -25.892100
C -14.829000 -0.866700 -26.230500
C -14.781500 0.473900 -26.595800
H -14.671000 -2.825600 -26.913000
C -14.577700 -1.843600 -27.169800
C -14.454400 0.832800 -27.887300
H -14.430200 1.814700 -28.152700
C -14.235300 -1.512600 -28.506100
H -14.197000 -4.193200 -28.238200
C -14.156100 -0.147500 -28.863300
C -14.065900 -3.924600 -29.197300
C -14.021200 -2.548400 -29.517400
H -13.958800 -5.837900 -29.931000
C -13.953500 -4.896400 -30.161700
C -13.796300 -2.173900 -30.867600
C -13.796200 -4.532000 -31.500900
C -13.765000 0.240900 -30.229100
H -13.764900 -5.210000 -32.213800
C -13.706400 -3.196300 -31.842100
C -13.617700 -0.758000 -31.216400
H -13.570100 -2.917700 -32.783200
H -13.544400 2.247100 -29.888300
C -13.512400 1.582700 -30.575900
C -13.237400 -0.357500 -32.525000
C -13.143900 1.946600 -31.853400
H -13.082600 -1.035800 -33.234700
C -13.012100 0.966700 -32.833500
H -12.907100 2.872400 -32.053100
H -12.726100 1.262500 -33.761300
