30
Fragment
N -11.896200 -9.055300 -23.998000
N -11.860300 -7.198200 -27.890000
C -11.601700 -9.183000 -25.103000
C -11.561300 -8.141900 -27.299100
C -11.242400 -9.306300 -26.504100
C -10.745400 -10.466700 -26.981200
H -10.704400 -12.798300 -28.072300
H -10.652200 -11.209100 -26.328200
C -10.421200 -12.137800 -28.731800
C -10.393400 -10.788200 -28.368600
N -10.284400 -17.320800 -31.059400
C -10.227200 -16.329300 -30.493300
H -10.214700 -14.029100 -31.512700
C -10.190300 -13.918200 -30.518600
C -10.159900 -15.060300 -29.802400
C -10.143300 -12.531500 -30.048700
C -10.017800 -9.830300 -29.327800
C -10.006500 -15.137500 -28.372900
H -9.923200 -8.894000 -29.047000
N -9.856000 -15.193100 -27.235800
C -9.829000 -11.556300 -31.003900
C -9.734200 -10.201200 -30.641000
H -9.666000 -11.835500 -31.914600
N -9.416000 -11.058200 -34.536300
C -9.317400 -9.122100 -31.542300
C -9.292400 -10.206900 -33.777400
H -9.174800 -8.234700 -31.124600
C -9.119300 -9.107900 -32.874700
C -8.664900 -7.877300 -33.488900
N -8.289200 -6.889200 -33.941000
30
Fragment
H -7.410400 -15.389000 -34.636800
H -7.229400 -16.998900 -36.345100
C -7.124400 -15.093200 -35.564600
H -7.053900 -13.090700 -35.163500
C -6.992600 -16.073100 -36.544800
C -6.899200 -13.769000 -35.873100
C -6.624200 -15.709200 -37.822300
H -6.592100 -16.373600 -38.509900
H -6.566400 -11.208800 -35.614900
C -6.518800 -13.368500 -37.181700
C -6.430100 -10.930200 -36.556100
H -6.371600 -8.916600 -36.184300
C -6.371500 -14.367400 -38.169100
C -6.340400 -9.594500 -36.897200
C -6.340200 -11.952600 -37.530600
C -6.183000 -9.230100 -38.236400
H -6.177700 -8.288600 -38.467100
C -6.115300 -11.578100 -38.880800
C -6.070600 -10.201900 -39.200900
C -5.980400 -13.979000 -39.534800
H -5.939500 -9.933300 -40.160000
C -5.901200 -12.613900 -39.892000
H -5.706400 -15.941200 -40.245500
C -5.682100 -14.959300 -40.510900
C -5.558800 -12.282900 -41.228400
H -5.465600 -11.300900 -41.485200
C -5.355100 -14.600400 -41.802400
C -5.307500 -13.259800 -42.167600
H -5.160500 -15.293800 -42.506000
H -5.065000 -12.977900 -43.089100
60
Fragment
N -11.896200 -9.055300 -23.998000
N -11.860300 -7.198200 -27.890000
C -11.601700 -9.183000 -25.103000
C -11.561300 -8.141900 -27.299100
C -11.242400 -9.306300 -26.504100
C -10.745400 -10.466700 -26.981200
H -10.704400 -12.798300 -28.072300
H -10.652200 -11.209100 -26.328200
C -10.421200 -12.137800 -28.731800
C -10.393400 -10.788200 -28.368600
N -10.284400 -17.320800 -31.059400
C -10.227200 -16.329300 -30.493300
H -10.214700 -14.029100 -31.512700
C -10.190300 -13.918200 -30.518600
C -10.159900 -15.060300 -29.802400
C -10.143300 -12.531500 -30.048700
C -10.017800 -9.830300 -29.327800
C -10.006500 -15.137500 -28.372900
H -9.923200 -8.894000 -29.047000
N -9.856000 -15.193100 -27.235800
C -9.829000 -11.556300 -31.003900
C -9.734200 -10.201200 -30.641000
H -9.666000 -11.835500 -31.914600
N -9.416000 -11.058200 -34.536300
C -9.317400 -9.122100 -31.542300
C -9.292400 -10.206900 -33.777400
H -9.174800 -8.234700 -31.124600
C -9.119300 -9.107900 -32.874700
C -8.664900 -7.877300 -33.488900
N -8.289200 -6.889200 -33.941000
H -7.410400 -15.389000 -34.636800
H -7.229400 -16.998900 -36.345100
C -7.124400 -15.093200 -35.564600
H -7.053900 -13.090700 -35.163500
C -6.992600 -16.073100 -36.544800
C -6.899200 -13.769000 -35.873100
C -6.624200 -15.709200 -37.822300
H -6.592100 -16.373600 -38.509900
H -6.566400 -11.208800 -35.614900
C -6.518800 -13.368500 -37.181700
C -6.430100 -10.930200 -36.556100
H -6.371600 -8.916600 -36.184300
C -6.371500 -14.367400 -38.169100
C -6.340400 -9.594500 -36.897200
C -6.340200 -11.952600 -37.530600
C -6.183000 -9.230100 -38.236400
H -6.177700 -8.288600 -38.467100
C -6.115300 -11.578100 -38.880800
C -6.070600 -10.201900 -39.200900
C -5.980400 -13.979000 -39.534800
H -5.939500 -9.933300 -40.160000
C -5.901200 -12.613900 -39.892000
H -5.706400 -15.941200 -40.245500
C -5.682100 -14.959300 -40.510900
C -5.558800 -12.282900 -41.228400
H -5.465600 -11.300900 -41.485200
C -5.355100 -14.600400 -41.802400
C -5.307500 -13.259800 -42.167600
H -5.160500 -15.293800 -42.506000
H -5.065000 -12.977900 -43.089100
