30
Fragment
N -11.896200 -9.055300 -23.998000
N -11.860300 -7.198200 -27.890000
C -11.601700 -9.183000 -25.103000
C -11.561300 -8.141900 -27.299100
C -11.242400 -9.306300 -26.504100
C -10.745400 -10.466700 -26.981200
H -10.704400 -12.798300 -28.072300
H -10.652200 -11.209100 -26.328200
C -10.421200 -12.137800 -28.731800
C -10.393400 -10.788200 -28.368600
N -10.284400 -17.320800 -31.059400
C -10.227200 -16.329300 -30.493300
H -10.214700 -14.029100 -31.512700
C -10.190300 -13.918200 -30.518600
C -10.159900 -15.060300 -29.802400
C -10.143300 -12.531500 -30.048700
C -10.017800 -9.830300 -29.327800
C -10.006500 -15.137500 -28.372900
H -9.923200 -8.894000 -29.047000
N -9.856000 -15.193100 -27.235800
C -9.829000 -11.556300 -31.003900
C -9.734200 -10.201200 -30.641000
H -9.666000 -11.835500 -31.914600
N -9.416000 -11.058200 -34.536300
C -9.317400 -9.122100 -31.542300
C -9.292400 -10.206900 -33.777400
H -9.174800 -8.234700 -31.124600
C -9.119300 -9.107900 -32.874700
C -8.664900 -7.877300 -33.488900
N -8.289200 -6.889200 -33.941000
30
Fragment
N -11.847300 -7.237300 -34.457100
C -11.471600 -6.249200 -34.909200
C -11.017200 -5.018700 -35.523400
H -10.961700 -5.891800 -37.273600
C -10.844100 -3.919600 -34.620700
C -10.819100 -5.004400 -36.855800
N -10.720500 -3.068400 -33.861900
H -10.470600 -2.291000 -36.483600
C -10.402300 -3.925300 -37.757100
C -10.307600 -2.570200 -37.394300
N -10.280500 1.066600 -41.162300
H -10.213300 -5.232500 -39.351200
C -10.130000 1.011000 -40.025200
C -10.118700 -4.296200 -39.070400
C -9.993200 -1.595000 -38.349500
C -9.976600 0.933700 -38.595700
C -9.946200 -0.208300 -37.879600
H -9.921800 -0.097500 -36.885400
C -9.909300 2.202800 -37.904900
N -9.852100 3.194300 -37.338700
C -9.743100 -3.338300 -40.029500
C -9.715300 -1.988700 -39.666300
H -9.484300 -2.917400 -42.070000
H -9.432200 -1.328200 -40.325800
C -9.391100 -3.659800 -41.417000
C -8.894100 -4.820200 -41.894000
C -8.575300 -5.984700 -41.099100
C -8.534900 -4.943500 -43.295200
N -8.276200 -6.928300 -40.508100
N -8.240300 -5.071200 -44.400100
60
Fragment
N -11.896200 -9.055300 -23.998000
N -11.860300 -7.198200 -27.890000
C -11.601700 -9.183000 -25.103000
C -11.561300 -8.141900 -27.299100
C -11.242400 -9.306300 -26.504100
C -10.745400 -10.466700 -26.981200
H -10.704400 -12.798300 -28.072300
H -10.652200 -11.209100 -26.328200
C -10.421200 -12.137800 -28.731800
C -10.393400 -10.788200 -28.368600
N -10.284400 -17.320800 -31.059400
C -10.227200 -16.329300 -30.493300
H -10.214700 -14.029100 -31.512700
C -10.190300 -13.918200 -30.518600
C -10.159900 -15.060300 -29.802400
C -10.143300 -12.531500 -30.048700
C -10.017800 -9.830300 -29.327800
C -10.006500 -15.137500 -28.372900
H -9.923200 -8.894000 -29.047000
N -9.856000 -15.193100 -27.235800
C -9.829000 -11.556300 -31.003900
C -9.734200 -10.201200 -30.641000
H -9.666000 -11.835500 -31.914600
N -9.416000 -11.058200 -34.536300
C -9.317400 -9.122100 -31.542300
C -9.292400 -10.206900 -33.777400
H -9.174800 -8.234700 -31.124600
C -9.119300 -9.107900 -32.874700
C -8.664900 -7.877300 -33.488900
N -8.289200 -6.889200 -33.941000
N -11.847300 -7.237300 -34.457100
C -11.471600 -6.249200 -34.909200
C -11.017200 -5.018700 -35.523400
H -10.961700 -5.891800 -37.273600
C -10.844100 -3.919600 -34.620700
C -10.819100 -5.004400 -36.855800
N -10.720500 -3.068400 -33.861900
H -10.470600 -2.291000 -36.483600
C -10.402300 -3.925300 -37.757100
C -10.307600 -2.570200 -37.394300
N -10.280500 1.066600 -41.162300
H -10.213300 -5.232500 -39.351200
C -10.130000 1.011000 -40.025200
C -10.118700 -4.296200 -39.070400
C -9.993200 -1.595000 -38.349500
C -9.976600 0.933700 -38.595700
C -9.946200 -0.208300 -37.879600
H -9.921800 -0.097500 -36.885400
C -9.909300 2.202800 -37.904900
N -9.852100 3.194300 -37.338700
C -9.743100 -3.338300 -40.029500
C -9.715300 -1.988700 -39.666300
H -9.484300 -2.917400 -42.070000
H -9.432200 -1.328200 -40.325800
C -9.391100 -3.659800 -41.417000
C -8.894100 -4.820200 -41.894000
C -8.575300 -5.984700 -41.099100
C -8.534900 -4.943500 -43.295200
N -8.276200 -6.928300 -40.508100
N -8.240300 -5.071200 -44.400100
