20
Fragment
N -24.903600 -14.879300 -18.211200
C -24.054500 -14.196300 -18.573400
N -23.949900 -10.784800 -18.576600
C -23.580600 -11.843700 -18.746400
C -23.090500 -13.195200 -18.967900
Cl -22.028900 -16.136600 -19.324500
C -21.881300 -13.387400 -19.543400
H -21.423700 -11.291900 -19.643700
C -21.259900 -14.690200 -19.829600
C -21.125500 -12.232000 -19.978300
C -20.054400 -14.782100 -20.440700
C -19.920000 -12.323800 -20.589500
H -19.756200 -15.722200 -20.775400
C -19.298600 -13.626700 -20.875600
Cl -19.151000 -10.877500 -21.094500
C -18.089400 -13.818800 -21.451200
C -17.599300 -15.170300 -21.672700
N -17.230000 -16.229300 -21.842500
C -17.125400 -12.817800 -21.845700
N -16.276400 -12.134700 -22.207800
20
Fragment
N -18.057600 -8.275600 -18.211200
C -17.208500 -8.958600 -18.573400
N -17.103900 -12.370100 -18.576600
C -16.734600 -11.311200 -18.746400
C -16.244500 -9.959700 -18.967900
Cl -15.182900 -7.018300 -19.324500
C -15.035300 -9.767500 -19.543400
H -14.577700 -11.863000 -19.643700
C -14.413900 -8.464700 -19.829600
C -14.279500 -10.922900 -19.978300
C -13.208400 -8.372800 -20.440700
C -13.074000 -10.831100 -20.589500
H -12.910200 -7.432700 -20.775400
C -12.452600 -9.528200 -20.875600
Cl -12.305000 -12.277400 -21.094500
C -11.243400 -9.336100 -21.451200
C -10.753300 -7.984600 -21.672700
N -10.384000 -6.925600 -21.842500
C -10.279400 -10.337100 -21.845700
N -9.430400 -11.020200 -22.207800
40
Fragment
N -24.903600 -14.879300 -18.211200
C -24.054500 -14.196300 -18.573400
N -23.949900 -10.784800 -18.576600
C -23.580600 -11.843700 -18.746400
C -23.090500 -13.195200 -18.967900
Cl -22.028900 -16.136600 -19.324500
C -21.881300 -13.387400 -19.543400
H -21.423700 -11.291900 -19.643700
C -21.259900 -14.690200 -19.829600
C -21.125500 -12.232000 -19.978300
C -20.054400 -14.782100 -20.440700
C -19.920000 -12.323800 -20.589500
H -19.756200 -15.722200 -20.775400
C -19.298600 -13.626700 -20.875600
Cl -19.151000 -10.877500 -21.094500
C -18.089400 -13.818800 -21.451200
C -17.599300 -15.170300 -21.672700
N -17.230000 -16.229300 -21.842500
C -17.125400 -12.817800 -21.845700
N -16.276400 -12.134700 -22.207800
N -18.057600 -8.275600 -18.211200
C -17.208500 -8.958600 -18.573400
N -17.103900 -12.370100 -18.576600
C -16.734600 -11.311200 -18.746400
C -16.244500 -9.959700 -18.967900
Cl -15.182900 -7.018300 -19.324500
C -15.035300 -9.767500 -19.543400
H -14.577700 -11.863000 -19.643700
C -14.413900 -8.464700 -19.829600
C -14.279500 -10.922900 -19.978300
C -13.208400 -8.372800 -20.440700
C -13.074000 -10.831100 -20.589500
H -12.910200 -7.432700 -20.775400
C -12.452600 -9.528200 -20.875600
Cl -12.305000 -12.277400 -21.094500
C -11.243400 -9.336100 -21.451200
C -10.753300 -7.984600 -21.672700
N -10.384000 -6.925600 -21.842500
C -10.279400 -10.337100 -21.845700
N -9.430400 -11.020200 -22.207800
