20
Fragment
N -24.903600 -14.879300 -18.211200
C -24.054500 -14.196300 -18.573400
N -23.949900 -10.784800 -18.576600
C -23.580600 -11.843700 -18.746400
C -23.090500 -13.195200 -18.967900
Cl -22.028900 -16.136600 -19.324500
C -21.881300 -13.387400 -19.543400
H -21.423700 -11.291900 -19.643700
C -21.259900 -14.690200 -19.829600
C -21.125500 -12.232000 -19.978300
C -20.054400 -14.782100 -20.440700
C -19.920000 -12.323800 -20.589500
H -19.756200 -15.722200 -20.775400
C -19.298600 -13.626700 -20.875600
Cl -19.151000 -10.877500 -21.094500
C -18.089400 -13.818800 -21.451200
C -17.599300 -15.170300 -21.672700
N -17.230000 -16.229300 -21.842500
C -17.125400 -12.817800 -21.845700
N -16.276400 -12.134700 -22.207800
12
Fragment
H -22.024300 -5.997100 -23.184400
Cl -21.301000 -8.714000 -23.487000
C -21.165600 -6.019500 -23.645100
H -20.952000 -3.913200 -23.620900
C -20.544500 -4.826300 -23.953900
C -20.533000 -7.224300 -23.941000
C -19.298500 -7.224300 -24.561900
C -19.287000 -4.826300 -24.548900
H -18.879500 -3.913200 -24.882000
C -18.665900 -6.019500 -24.857700
Cl -18.530500 -8.714000 -25.015800
H -17.807200 -5.997100 -25.318500
32
Fragment
N -24.903600 -14.879300 -18.211200
C -24.054500 -14.196300 -18.573400
N -23.949900 -10.784800 -18.576600
C -23.580600 -11.843700 -18.746400
C -23.090500 -13.195200 -18.967900
Cl -22.028900 -16.136600 -19.324500
C -21.881300 -13.387400 -19.543400
H -21.423700 -11.291900 -19.643700
C -21.259900 -14.690200 -19.829600
C -21.125500 -12.232000 -19.978300
C -20.054400 -14.782100 -20.440700
C -19.920000 -12.323800 -20.589500
H -19.756200 -15.722200 -20.775400
C -19.298600 -13.626700 -20.875600
Cl -19.151000 -10.877500 -21.094500
C -18.089400 -13.818800 -21.451200
C -17.599300 -15.170300 -21.672700
N -17.230000 -16.229300 -21.842500
C -17.125400 -12.817800 -21.845700
N -16.276400 -12.134700 -22.207800
H -22.024300 -5.997100 -23.184400
Cl -21.301000 -8.714000 -23.487000
C -21.165600 -6.019500 -23.645100
H -20.952000 -3.913200 -23.620900
C -20.544500 -4.826300 -23.953900
C -20.533000 -7.224300 -23.941000
C -19.298500 -7.224300 -24.561900
C -19.287000 -4.826300 -24.548900
H -18.879500 -3.913200 -24.882000
C -18.665900 -6.019500 -24.857700
Cl -18.530500 -8.714000 -25.015800
H -17.807200 -5.997100 -25.318500
