20
Fragment
N -24.903600 -14.879300 -18.211200
C -24.054500 -14.196300 -18.573400
N -23.949900 -10.784800 -18.576600
C -23.580600 -11.843700 -18.746400
C -23.090500 -13.195200 -18.967900
Cl -22.028900 -16.136600 -19.324500
C -21.881300 -13.387400 -19.543400
H -21.423700 -11.291900 -19.643700
C -21.259900 -14.690200 -19.829600
C -21.125500 -12.232000 -19.978300
C -20.054400 -14.782100 -20.440700
C -19.920000 -12.323800 -20.589500
H -19.756200 -15.722200 -20.775400
C -19.298600 -13.626700 -20.875600
Cl -19.151000 -10.877500 -21.094500
C -18.089400 -13.818800 -21.451200
C -17.599300 -15.170300 -21.672700
N -17.230000 -16.229300 -21.842500
C -17.125400 -12.817800 -21.845700
N -16.276400 -12.134700 -22.207800
12
Fragment
H -23.372700 -21.016900 -15.100600
Cl -22.649400 -18.300100 -15.403200
C -22.514100 -20.994500 -15.561300
H -22.300400 -23.100900 -15.537100
C -21.893000 -22.187800 -15.870100
C -21.881400 -19.789700 -15.857200
C -20.646900 -19.789700 -16.478000
C -20.635400 -22.187800 -16.465100
H -20.227900 -23.100900 -16.798200
C -20.014300 -20.994500 -16.773900
Cl -19.878900 -18.300100 -16.932000
H -19.155600 -21.016900 -17.234700
32
Fragment
N -24.903600 -14.879300 -18.211200
C -24.054500 -14.196300 -18.573400
N -23.949900 -10.784800 -18.576600
C -23.580600 -11.843700 -18.746400
C -23.090500 -13.195200 -18.967900
Cl -22.028900 -16.136600 -19.324500
C -21.881300 -13.387400 -19.543400
H -21.423700 -11.291900 -19.643700
C -21.259900 -14.690200 -19.829600
C -21.125500 -12.232000 -19.978300
C -20.054400 -14.782100 -20.440700
C -19.920000 -12.323800 -20.589500
H -19.756200 -15.722200 -20.775400
C -19.298600 -13.626700 -20.875600
Cl -19.151000 -10.877500 -21.094500
C -18.089400 -13.818800 -21.451200
C -17.599300 -15.170300 -21.672700
N -17.230000 -16.229300 -21.842500
C -17.125400 -12.817800 -21.845700
N -16.276400 -12.134700 -22.207800
H -23.372700 -21.016900 -15.100600
Cl -22.649400 -18.300100 -15.403200
C -22.514100 -20.994500 -15.561300
H -22.300400 -23.100900 -15.537100
C -21.893000 -22.187800 -15.870100
C -21.881400 -19.789700 -15.857200
C -20.646900 -19.789700 -16.478000
C -20.635400 -22.187800 -16.465100
H -20.227900 -23.100900 -16.798200
C -20.014300 -20.994500 -16.773900
Cl -19.878900 -18.300100 -16.932000
H -19.155600 -21.016900 -17.234700
