35
Fragment
O -7.692400 -14.774600 -22.951700
N -7.574900 -15.781700 -23.901800
N -6.945900 -13.646100 -23.278600
C -6.774000 -15.271800 -24.794000
N -6.396300 -15.849400 -25.972000
C -6.380900 -13.973800 -24.418600
H -5.679400 -13.966300 -29.068900
C -5.577700 -15.125000 -26.675300
N -5.481600 -13.233800 -25.113400
C -5.459600 -14.865600 -29.158700
H -5.421400 -14.882100 -31.164200
C -5.300300 -15.410400 -30.408900
C -5.293800 -15.654100 -28.025900
C -5.008100 -13.832900 -26.194900
C -4.960600 -16.740600 -30.546400
C -4.946600 -16.991600 -28.179000
H -4.854400 -17.105800 -31.395100
H -4.826000 -17.528000 -27.428600
C -4.780900 -17.523800 -29.438500
H -4.544800 -18.418300 -29.535900
H -4.471000 -10.867700 -25.210200
C -3.888700 -13.212300 -26.847700
C -3.696900 -10.832400 -25.723600
C -3.337900 -11.898000 -26.550800
H -3.104000 -9.021400 -25.128100
H -3.081900 -14.648600 -28.080300
C -2.997200 -13.790600 -27.731900
C -2.878400 -9.729600 -25.687700
C -2.171700 -11.768200 -27.311100
N -1.997400 -12.949700 -28.018200
C -1.731900 -9.635800 -26.454900
C -1.363600 -10.648300 -27.293300
H -1.300100 -13.178300 -28.627600
H -1.203700 -8.872300 -26.398900
H -0.604900 -10.586900 -27.827100
35
Fragment
H -6.491200 -7.976700 -29.188600
H -6.247200 -5.998300 -30.363700
C -5.675100 -7.530400 -29.183000
C -5.527700 -6.354400 -29.895400
N -4.806500 -1.103400 -30.885700
H -4.718700 -8.840600 -28.011900
N -4.668700 -3.422000 -30.337500
C -4.626200 -8.038100 -28.471100
C -4.356100 -2.315900 -31.078900
C -4.305000 -5.712000 -29.907400
O -4.173800 -0.363300 -31.861500
C -4.071700 -4.511400 -30.735700
H -3.667900 -7.315600 -31.531900
C -3.443600 -7.362700 -28.437800
C -3.437400 -2.339300 -32.124300
N -3.313200 -1.135200 -32.633600
C -3.275600 -6.211400 -29.149000
C -3.157300 -4.555800 -31.914700
C -2.995300 -7.084000 -32.130400
N -2.814400 -3.464200 -32.565900
H -2.741200 -7.691000 -27.924600
C -2.604600 -5.788600 -32.407700
H -2.461600 -5.763100 -29.120200
H -2.363900 -8.814900 -32.814800
N -2.275000 -7.959700 -32.842700
C -1.553800 -5.909600 -33.394600
C -1.372300 -7.278400 -33.623300
H -0.842000 -4.099900 -33.969300
C -0.744400 -5.017000 -34.089100
C -0.414300 -7.777700 -34.497300
H -0.304700 -8.692100 -34.624400
C 0.202300 -5.509300 -34.952500
C 0.358600 -6.872800 -35.159600
H 0.751000 -4.914100 -35.409500
H 1.002300 -7.173200 -35.760200
70
Fragment
O -7.692400 -14.774600 -22.951700
N -7.574900 -15.781700 -23.901800
N -6.945900 -13.646100 -23.278600
C -6.774000 -15.271800 -24.794000
N -6.396300 -15.849400 -25.972000
C -6.380900 -13.973800 -24.418600
H -5.679400 -13.966300 -29.068900
C -5.577700 -15.125000 -26.675300
N -5.481600 -13.233800 -25.113400
C -5.459600 -14.865600 -29.158700
H -5.421400 -14.882100 -31.164200
C -5.300300 -15.410400 -30.408900
C -5.293800 -15.654100 -28.025900
C -5.008100 -13.832900 -26.194900
C -4.960600 -16.740600 -30.546400
C -4.946600 -16.991600 -28.179000
H -4.854400 -17.105800 -31.395100
H -4.826000 -17.528000 -27.428600
C -4.780900 -17.523800 -29.438500
H -4.544800 -18.418300 -29.535900
H -4.471000 -10.867700 -25.210200
C -3.888700 -13.212300 -26.847700
C -3.696900 -10.832400 -25.723600
C -3.337900 -11.898000 -26.550800
H -3.104000 -9.021400 -25.128100
H -3.081900 -14.648600 -28.080300
C -2.997200 -13.790600 -27.731900
C -2.878400 -9.729600 -25.687700
C -2.171700 -11.768200 -27.311100
N -1.997400 -12.949700 -28.018200
C -1.731900 -9.635800 -26.454900
C -1.363600 -10.648300 -27.293300
H -1.300100 -13.178300 -28.627600
H -1.203700 -8.872300 -26.398900
H -0.604900 -10.586900 -27.827100
H -6.491200 -7.976700 -29.188600
H -6.247200 -5.998300 -30.363700
C -5.675100 -7.530400 -29.183000
C -5.527700 -6.354400 -29.895400
N -4.806500 -1.103400 -30.885700
H -4.718700 -8.840600 -28.011900
N -4.668700 -3.422000 -30.337500
C -4.626200 -8.038100 -28.471100
C -4.356100 -2.315900 -31.078900
C -4.305000 -5.712000 -29.907400
O -4.173800 -0.363300 -31.861500
C -4.071700 -4.511400 -30.735700
H -3.667900 -7.315600 -31.531900
C -3.443600 -7.362700 -28.437800
C -3.437400 -2.339300 -32.124300
N -3.313200 -1.135200 -32.633600
C -3.275600 -6.211400 -29.149000
C -3.157300 -4.555800 -31.914700
C -2.995300 -7.084000 -32.130400
N -2.814400 -3.464200 -32.565900
H -2.741200 -7.691000 -27.924600
C -2.604600 -5.788600 -32.407700
H -2.461600 -5.763100 -29.120200
H -2.363900 -8.814900 -32.814800
N -2.275000 -7.959700 -32.842700
C -1.553800 -5.909600 -33.394600
C -1.372300 -7.278400 -33.623300
H -0.842000 -4.099900 -33.969300
C -0.744400 -5.017000 -34.089100
C -0.414300 -7.777700 -34.497300
H -0.304700 -8.692100 -34.624400
C 0.202300 -5.509300 -34.952500
C 0.358600 -6.872800 -35.159600
H 0.751000 -4.914100 -35.409500
H 1.002300 -7.173200 -35.760200
