35
Fragment
O -7.692400 -14.774600 -22.951700
N -7.574900 -15.781700 -23.901800
N -6.945900 -13.646100 -23.278600
C -6.774000 -15.271800 -24.794000
N -6.396300 -15.849400 -25.972000
C -6.380900 -13.973800 -24.418600
H -5.679400 -13.966300 -29.068900
C -5.577700 -15.125000 -26.675300
N -5.481600 -13.233800 -25.113400
C -5.459600 -14.865600 -29.158700
H -5.421400 -14.882100 -31.164200
C -5.300300 -15.410400 -30.408900
C -5.293800 -15.654100 -28.025900
C -5.008100 -13.832900 -26.194900
C -4.960600 -16.740600 -30.546400
C -4.946600 -16.991600 -28.179000
H -4.854400 -17.105800 -31.395100
H -4.826000 -17.528000 -27.428600
C -4.780900 -17.523800 -29.438500
H -4.544800 -18.418300 -29.535900
H -4.471000 -10.867700 -25.210200
C -3.888700 -13.212300 -26.847700
C -3.696900 -10.832400 -25.723600
C -3.337900 -11.898000 -26.550800
H -3.104000 -9.021400 -25.128100
H -3.081900 -14.648600 -28.080300
C -2.997200 -13.790600 -27.731900
C -2.878400 -9.729600 -25.687700
C -2.171700 -11.768200 -27.311100
N -1.997400 -12.949700 -28.018200
C -1.731900 -9.635800 -26.454900
C -1.363600 -10.648300 -27.293300
H -1.300100 -13.178300 -28.627600
H -1.203700 -8.872300 -26.398900
H -0.604900 -10.586900 -27.827100
35
Fragment
H -14.203700 -15.597500 -23.486000
H -13.604800 -17.312100 -24.914300
H -13.508400 -13.006000 -22.685600
C -13.445000 -15.536100 -24.019900
C -13.076700 -16.548600 -24.858300
N -12.811200 -13.234600 -23.295000
C -12.636800 -14.416200 -24.002100
C -11.930200 -16.454800 -25.625500
C -11.811300 -12.393700 -23.581300
H -11.726700 -11.535800 -23.232900
H -11.704600 -17.163000 -26.185100
C -11.470700 -14.286400 -24.762400
C -11.111600 -15.352000 -25.589500
C -10.919900 -12.972100 -24.465400
H -10.337600 -15.316600 -26.103000
H -10.263700 -7.766100 -21.777300
C -10.027600 -8.660500 -21.874600
H -9.982600 -8.656400 -23.884600
H -9.954200 -9.078600 -19.918100
C -9.862000 -9.192800 -23.134200
C -9.848000 -9.443800 -20.766800
C -9.800500 -12.351500 -25.118300
C -9.514700 -10.530200 -23.287300
C -9.508300 -10.774000 -20.904300
H -9.387100 -11.302300 -20.149000
C -9.349000 -11.318800 -22.154500
N -9.326900 -12.950600 -26.199800
C -9.230900 -11.059300 -24.637900
H -9.129100 -12.218100 -22.244300
C -8.427700 -12.210500 -26.894600
N -8.412200 -10.335000 -25.341200
C -8.034500 -10.912600 -26.519200
N -7.862600 -12.538300 -28.034600
N -7.233600 -10.402700 -27.411300
O -7.116200 -11.409800 -28.361500
70
Fragment
O -7.692400 -14.774600 -22.951700
N -7.574900 -15.781700 -23.901800
N -6.945900 -13.646100 -23.278600
C -6.774000 -15.271800 -24.794000
N -6.396300 -15.849400 -25.972000
C -6.380900 -13.973800 -24.418600
H -5.679400 -13.966300 -29.068900
C -5.577700 -15.125000 -26.675300
N -5.481600 -13.233800 -25.113400
C -5.459600 -14.865600 -29.158700
H -5.421400 -14.882100 -31.164200
C -5.300300 -15.410400 -30.408900
C -5.293800 -15.654100 -28.025900
C -5.008100 -13.832900 -26.194900
C -4.960600 -16.740600 -30.546400
C -4.946600 -16.991600 -28.179000
H -4.854400 -17.105800 -31.395100
H -4.826000 -17.528000 -27.428600
C -4.780900 -17.523800 -29.438500
H -4.544800 -18.418300 -29.535900
H -4.471000 -10.867700 -25.210200
C -3.888700 -13.212300 -26.847700
C -3.696900 -10.832400 -25.723600
C -3.337900 -11.898000 -26.550800
H -3.104000 -9.021400 -25.128100
H -3.081900 -14.648600 -28.080300
C -2.997200 -13.790600 -27.731900
C -2.878400 -9.729600 -25.687700
C -2.171700 -11.768200 -27.311100
N -1.997400 -12.949700 -28.018200
C -1.731900 -9.635800 -26.454900
C -1.363600 -10.648300 -27.293300
H -1.300100 -13.178300 -28.627600
H -1.203700 -8.872300 -26.398900
H -0.604900 -10.586900 -27.827100
H -14.203700 -15.597500 -23.486000
H -13.604800 -17.312100 -24.914300
H -13.508400 -13.006000 -22.685600
C -13.445000 -15.536100 -24.019900
C -13.076700 -16.548600 -24.858300
N -12.811200 -13.234600 -23.295000
C -12.636800 -14.416200 -24.002100
C -11.930200 -16.454800 -25.625500
C -11.811300 -12.393700 -23.581300
H -11.726700 -11.535800 -23.232900
H -11.704600 -17.163000 -26.185100
C -11.470700 -14.286400 -24.762400
C -11.111600 -15.352000 -25.589500
C -10.919900 -12.972100 -24.465400
H -10.337600 -15.316600 -26.103000
H -10.263700 -7.766100 -21.777300
C -10.027600 -8.660500 -21.874600
H -9.982600 -8.656400 -23.884600
H -9.954200 -9.078600 -19.918100
C -9.862000 -9.192800 -23.134200
C -9.848000 -9.443800 -20.766800
C -9.800500 -12.351500 -25.118300
C -9.514700 -10.530200 -23.287300
C -9.508300 -10.774000 -20.904300
H -9.387100 -11.302300 -20.149000
C -9.349000 -11.318800 -22.154500
N -9.326900 -12.950600 -26.199800
C -9.230900 -11.059300 -24.637900
H -9.129100 -12.218100 -22.244300
C -8.427700 -12.210500 -26.894600
N -8.412200 -10.335000 -25.341200
C -8.034500 -10.912600 -26.519200
N -7.862600 -12.538300 -28.034600
N -7.233600 -10.402700 -27.411300
O -7.116200 -11.409800 -28.361500
