35
Fragment
O -7.692400 -14.774600 -22.951700
N -7.574900 -15.781700 -23.901800
N -6.945900 -13.646100 -23.278600
C -6.774000 -15.271800 -24.794000
N -6.396300 -15.849400 -25.972000
C -6.380900 -13.973800 -24.418600
H -5.679400 -13.966300 -29.068900
C -5.577700 -15.125000 -26.675300
N -5.481600 -13.233800 -25.113400
C -5.459600 -14.865600 -29.158700
H -5.421400 -14.882100 -31.164200
C -5.300300 -15.410400 -30.408900
C -5.293800 -15.654100 -28.025900
C -5.008100 -13.832900 -26.194900
C -4.960600 -16.740600 -30.546400
C -4.946600 -16.991600 -28.179000
H -4.854400 -17.105800 -31.395100
H -4.826000 -17.528000 -27.428600
C -4.780900 -17.523800 -29.438500
H -4.544800 -18.418300 -29.535900
H -4.471000 -10.867700 -25.210200
C -3.888700 -13.212300 -26.847700
C -3.696900 -10.832400 -25.723600
C -3.337900 -11.898000 -26.550800
H -3.104000 -9.021400 -25.128100
H -3.081900 -14.648600 -28.080300
C -2.997200 -13.790600 -27.731900
C -2.878400 -9.729600 -25.687700
C -2.171700 -11.768200 -27.311100
N -1.997400 -12.949700 -28.018200
C -1.731900 -9.635800 -26.454900
C -1.363600 -10.648300 -27.293300
H -1.300100 -13.178300 -28.627600
H -1.203700 -8.872300 -26.398900
H -0.604900 -10.586900 -27.827100
35
Fragment
H -7.561000 -27.484700 -29.188600
H -7.317000 -25.506300 -30.363700
C -6.744900 -27.038400 -29.183000
C -6.597500 -25.862400 -29.895400
N -5.876300 -20.611300 -30.885700
H -5.788500 -28.348600 -28.011900
N -5.738500 -22.930000 -30.337500
C -5.696100 -27.546100 -28.471100
C -5.425900 -21.823800 -31.078900
C -5.374800 -25.219900 -29.907400
O -5.243600 -19.871200 -31.861500
C -5.141500 -24.019300 -30.735700
H -4.737700 -26.823600 -31.531900
C -4.513400 -26.870600 -28.437800
C -4.507200 -21.847200 -32.124300
N -4.383100 -20.643100 -32.633600
C -4.345400 -25.719400 -29.149000
C -4.227100 -24.063700 -31.914700
C -4.065200 -26.592000 -32.130400
N -3.884200 -22.972100 -32.565900
H -3.811000 -27.198900 -27.924600
C -3.674400 -25.296600 -32.407700
H -3.531400 -25.271000 -29.120200
H -3.433700 -28.322900 -32.814800
N -3.344800 -27.467700 -32.842700
C -2.623600 -25.417500 -33.394600
C -2.442100 -26.786400 -33.623300
H -1.911800 -23.607800 -33.969300
C -1.814200 -24.525000 -34.089100
C -1.484100 -27.285700 -34.497300
H -1.374500 -28.200000 -34.624400
C -0.867600 -25.017200 -34.952500
C -0.711200 -26.380700 -35.159600
H -0.318800 -24.422100 -35.409500
H -0.067600 -26.681200 -35.760200
70
Fragment
O -7.692400 -14.774600 -22.951700
N -7.574900 -15.781700 -23.901800
N -6.945900 -13.646100 -23.278600
C -6.774000 -15.271800 -24.794000
N -6.396300 -15.849400 -25.972000
C -6.380900 -13.973800 -24.418600
H -5.679400 -13.966300 -29.068900
C -5.577700 -15.125000 -26.675300
N -5.481600 -13.233800 -25.113400
C -5.459600 -14.865600 -29.158700
H -5.421400 -14.882100 -31.164200
C -5.300300 -15.410400 -30.408900
C -5.293800 -15.654100 -28.025900
C -5.008100 -13.832900 -26.194900
C -4.960600 -16.740600 -30.546400
C -4.946600 -16.991600 -28.179000
H -4.854400 -17.105800 -31.395100
H -4.826000 -17.528000 -27.428600
C -4.780900 -17.523800 -29.438500
H -4.544800 -18.418300 -29.535900
H -4.471000 -10.867700 -25.210200
C -3.888700 -13.212300 -26.847700
C -3.696900 -10.832400 -25.723600
C -3.337900 -11.898000 -26.550800
H -3.104000 -9.021400 -25.128100
H -3.081900 -14.648600 -28.080300
C -2.997200 -13.790600 -27.731900
C -2.878400 -9.729600 -25.687700
C -2.171700 -11.768200 -27.311100
N -1.997400 -12.949700 -28.018200
C -1.731900 -9.635800 -26.454900
C -1.363600 -10.648300 -27.293300
H -1.300100 -13.178300 -28.627600
H -1.203700 -8.872300 -26.398900
H -0.604900 -10.586900 -27.827100
H -7.561000 -27.484700 -29.188600
H -7.317000 -25.506300 -30.363700
C -6.744900 -27.038400 -29.183000
C -6.597500 -25.862400 -29.895400
N -5.876300 -20.611300 -30.885700
H -5.788500 -28.348600 -28.011900
N -5.738500 -22.930000 -30.337500
C -5.696100 -27.546100 -28.471100
C -5.425900 -21.823800 -31.078900
C -5.374800 -25.219900 -29.907400
O -5.243600 -19.871200 -31.861500
C -5.141500 -24.019300 -30.735700
H -4.737700 -26.823600 -31.531900
C -4.513400 -26.870600 -28.437800
C -4.507200 -21.847200 -32.124300
N -4.383100 -20.643100 -32.633600
C -4.345400 -25.719400 -29.149000
C -4.227100 -24.063700 -31.914700
C -4.065200 -26.592000 -32.130400
N -3.884200 -22.972100 -32.565900
H -3.811000 -27.198900 -27.924600
C -3.674400 -25.296600 -32.407700
H -3.531400 -25.271000 -29.120200
H -3.433700 -28.322900 -32.814800
N -3.344800 -27.467700 -32.842700
C -2.623600 -25.417500 -33.394600
C -2.442100 -26.786400 -33.623300
H -1.911800 -23.607800 -33.969300
C -1.814200 -24.525000 -34.089100
C -1.484100 -27.285700 -34.497300
H -1.374500 -28.200000 -34.624400
C -0.867600 -25.017200 -34.952500
C -0.711200 -26.380700 -35.159600
H -0.318800 -24.422100 -35.409500
H -0.067600 -26.681200 -35.760200
