35
Fragment
O -7.692400 -14.774600 -22.951700
N -7.574900 -15.781700 -23.901800
N -6.945900 -13.646100 -23.278600
C -6.774000 -15.271800 -24.794000
N -6.396300 -15.849400 -25.972000
C -6.380900 -13.973800 -24.418600
H -5.679400 -13.966300 -29.068900
C -5.577700 -15.125000 -26.675300
N -5.481600 -13.233800 -25.113400
C -5.459600 -14.865600 -29.158700
H -5.421400 -14.882100 -31.164200
C -5.300300 -15.410400 -30.408900
C -5.293800 -15.654100 -28.025900
C -5.008100 -13.832900 -26.194900
C -4.960600 -16.740600 -30.546400
C -4.946600 -16.991600 -28.179000
H -4.854400 -17.105800 -31.395100
H -4.826000 -17.528000 -27.428600
C -4.780900 -17.523800 -29.438500
H -4.544800 -18.418300 -29.535900
H -4.471000 -10.867700 -25.210200
C -3.888700 -13.212300 -26.847700
C -3.696900 -10.832400 -25.723600
C -3.337900 -11.898000 -26.550800
H -3.104000 -9.021400 -25.128100
H -3.081900 -14.648600 -28.080300
C -2.997200 -13.790600 -27.731900
C -2.878400 -9.729600 -25.687700
C -2.171700 -11.768200 -27.311100
N -1.997400 -12.949700 -28.018200
C -1.731900 -9.635800 -26.454900
C -1.363600 -10.648300 -27.293300
H -1.300100 -13.178300 -28.627600
H -1.203700 -8.872300 -26.398900
H -0.604900 -10.586900 -27.827100
35
Fragment
H -2.893600 -14.734000 -32.657400
H -2.642300 -16.993100 -33.008100
C -2.250000 -15.034400 -33.258000
C -2.093600 -16.397900 -33.465100
H -1.586700 -13.215100 -33.793100
C -1.477100 -14.129500 -33.920200
C -1.147000 -16.890200 -34.328500
H -1.049400 -17.807300 -34.448200
C -0.519000 -14.628800 -34.794300
C -0.337500 -15.997600 -35.023000
N 0.383700 -13.947500 -35.574900
H 0.472500 -13.092300 -35.602800
H 0.570300 -16.144100 -39.297300
C 0.713200 -16.118600 -36.009900
H 0.849800 -14.216200 -40.492900
N 0.923000 -18.443000 -35.851700
C 1.104000 -14.823200 -36.287100
C 1.265900 -17.351400 -36.502800
C 1.384200 -15.695800 -39.268600
N 1.421900 -20.772000 -35.783900
C 1.546000 -19.567900 -36.293300
C 1.552300 -14.544500 -39.979800
H 1.776500 -14.591600 -36.885600
C 2.180400 -17.395800 -37.681800
O 2.282400 -21.543900 -36.556000
C 2.413600 -16.195200 -38.510200
C 2.464700 -19.591300 -37.338700
C 2.734900 -13.869100 -39.946500
N 2.777300 -18.485200 -38.080000
H 2.827400 -13.066600 -40.405700
N 2.915100 -20.803800 -37.531800
C 3.636300 -15.552800 -38.522200
C 3.783700 -14.376800 -39.234600
H 4.355800 -15.908900 -38.053900
H 4.599800 -13.930500 -39.228900
70
Fragment
O -7.692400 -14.774600 -22.951700
N -7.574900 -15.781700 -23.901800
N -6.945900 -13.646100 -23.278600
C -6.774000 -15.271800 -24.794000
N -6.396300 -15.849400 -25.972000
C -6.380900 -13.973800 -24.418600
H -5.679400 -13.966300 -29.068900
C -5.577700 -15.125000 -26.675300
N -5.481600 -13.233800 -25.113400
C -5.459600 -14.865600 -29.158700
H -5.421400 -14.882100 -31.164200
C -5.300300 -15.410400 -30.408900
C -5.293800 -15.654100 -28.025900
C -5.008100 -13.832900 -26.194900
C -4.960600 -16.740600 -30.546400
C -4.946600 -16.991600 -28.179000
H -4.854400 -17.105800 -31.395100
H -4.826000 -17.528000 -27.428600
C -4.780900 -17.523800 -29.438500
H -4.544800 -18.418300 -29.535900
H -4.471000 -10.867700 -25.210200
C -3.888700 -13.212300 -26.847700
C -3.696900 -10.832400 -25.723600
C -3.337900 -11.898000 -26.550800
H -3.104000 -9.021400 -25.128100
H -3.081900 -14.648600 -28.080300
C -2.997200 -13.790600 -27.731900
C -2.878400 -9.729600 -25.687700
C -2.171700 -11.768200 -27.311100
N -1.997400 -12.949700 -28.018200
C -1.731900 -9.635800 -26.454900
C -1.363600 -10.648300 -27.293300
H -1.300100 -13.178300 -28.627600
H -1.203700 -8.872300 -26.398900
H -0.604900 -10.586900 -27.827100
H -2.893600 -14.734000 -32.657400
H -2.642300 -16.993100 -33.008100
C -2.250000 -15.034400 -33.258000
C -2.093600 -16.397900 -33.465100
H -1.586700 -13.215100 -33.793100
C -1.477100 -14.129500 -33.920200
C -1.147000 -16.890200 -34.328500
H -1.049400 -17.807300 -34.448200
C -0.519000 -14.628800 -34.794300
C -0.337500 -15.997600 -35.023000
N 0.383700 -13.947500 -35.574900
H 0.472500 -13.092300 -35.602800
H 0.570300 -16.144100 -39.297300
C 0.713200 -16.118600 -36.009900
H 0.849800 -14.216200 -40.492900
N 0.923000 -18.443000 -35.851700
C 1.104000 -14.823200 -36.287100
C 1.265900 -17.351400 -36.502800
C 1.384200 -15.695800 -39.268600
N 1.421900 -20.772000 -35.783900
C 1.546000 -19.567900 -36.293300
C 1.552300 -14.544500 -39.979800
H 1.776500 -14.591600 -36.885600
C 2.180400 -17.395800 -37.681800
O 2.282400 -21.543900 -36.556000
C 2.413600 -16.195200 -38.510200
C 2.464700 -19.591300 -37.338700
C 2.734900 -13.869100 -39.946500
N 2.777300 -18.485200 -38.080000
H 2.827400 -13.066600 -40.405700
N 2.915100 -20.803800 -37.531800
C 3.636300 -15.552800 -38.522200
C 3.783700 -14.376800 -39.234600
H 4.355800 -15.908900 -38.053900
H 4.599800 -13.930500 -39.228900
