14
Fragment
H -10.959500 -9.368800 -6.698300
O -10.356600 -9.368800 -7.282200
N -9.195200 -9.368800 -6.613200
N -9.154300 -9.368800 -5.282100
N -8.480200 -9.368800 -9.547300
C -7.955900 -9.368800 -7.117300
N -7.886500 -9.368800 -4.976500
N -7.704600 -9.368800 -10.655600
C -7.635200 -9.368800 -8.514800
N -7.110800 -9.368800 -6.084800
N -6.436700 -9.368800 -10.350000
N -6.395900 -9.368800 -9.018900
O -5.234500 -9.368800 -8.349900
H -4.631600 -9.368800 -8.933700
14
Fragment
H -14.831600 -6.245900 -6.698300
O -14.228700 -6.245900 -7.282200
N -13.067300 -6.245900 -6.613200
N -13.026500 -6.245900 -5.282100
N -12.352400 -6.245900 -9.547300
C -11.828000 -6.245900 -7.117300
N -11.758600 -6.245900 -4.976500
N -11.576700 -6.245900 -10.655600
C -11.507300 -6.245900 -8.514800
N -10.983000 -6.245900 -6.084800
N -10.308900 -6.245900 -10.350000
N -10.268000 -6.245900 -9.018900
O -9.106600 -6.245900 -8.349900
H -8.503700 -6.245900 -8.933700
28
Fragment
H -10.959500 -9.368800 -6.698300
O -10.356600 -9.368800 -7.282200
N -9.195200 -9.368800 -6.613200
N -9.154300 -9.368800 -5.282100
N -8.480200 -9.368800 -9.547300
C -7.955900 -9.368800 -7.117300
N -7.886500 -9.368800 -4.976500
N -7.704600 -9.368800 -10.655600
C -7.635200 -9.368800 -8.514800
N -7.110800 -9.368800 -6.084800
N -6.436700 -9.368800 -10.350000
N -6.395900 -9.368800 -9.018900
O -5.234500 -9.368800 -8.349900
H -4.631600 -9.368800 -8.933700
H -14.831600 -6.245900 -6.698300
O -14.228700 -6.245900 -7.282200
N -13.067300 -6.245900 -6.613200
N -13.026500 -6.245900 -5.282100
N -12.352400 -6.245900 -9.547300
C -11.828000 -6.245900 -7.117300
N -11.758600 -6.245900 -4.976500
N -11.576700 -6.245900 -10.655600
C -11.507300 -6.245900 -8.514800
N -10.983000 -6.245900 -6.084800
N -10.308900 -6.245900 -10.350000
N -10.268000 -6.245900 -9.018900
O -9.106600 -6.245900 -8.349900
H -8.503700 -6.245900 -8.933700
