36
Fragment
H -12.026500 -30.609400 -21.739400
H -11.880300 -27.626100 -21.012000
H -11.492200 -22.522500 -22.679400
H -11.383400 -30.547800 -20.273500
C -11.172600 -30.566400 -21.240700
H -11.164000 -32.450100 -23.286300
H -11.083700 -26.985600 -23.538900
C -10.994200 -27.856400 -21.414000
C -10.751300 -23.054000 -22.413200
H -10.623900 -24.484900 -23.914400
C -10.537100 -27.490300 -22.870600
C -10.495400 -32.556200 -22.619900
C -10.440200 -29.313200 -21.614700
N -10.373000 -31.755900 -21.541400
C -10.281500 -24.129100 -23.102700
H -10.116800 -29.510400 -23.877800
N -10.005600 -22.843600 -21.279200
C -9.977900 -28.943200 -23.066000
C -9.604000 -27.405200 -20.854700
N -9.576300 -33.504800 -22.641600
H -9.465100 -26.838000 -20.042900
C -9.300400 -32.219300 -20.818000
N -9.208900 -24.592500 -22.379400
C -9.141700 -27.035200 -22.306000
C -9.086500 -23.792200 -21.300800
C -9.044800 -28.858100 -21.050200
H -8.958000 -31.863500 -20.006300
C -8.830600 -33.294400 -21.507500
C -8.587700 -28.492000 -22.506700
H -8.498200 -29.362800 -20.381900
H -8.417900 -23.898300 -20.634400
C -8.409300 -25.782000 -22.680100
H -8.198500 -25.800600 -23.647200
H -8.089700 -33.825900 -21.241400
H -7.701600 -28.722300 -22.908800
H -7.555400 -25.739000 -22.181300
36
Fragment
H -14.373800 -26.905400 -31.386800
H -14.119300 -29.426100 -29.620600
H -13.842300 -31.531200 -24.643200
H -13.712100 -24.470000 -31.733900
H -13.586800 -27.991600 -32.262000
H -13.571500 -27.916900 -27.423200
C -13.473600 -27.238400 -31.629500
C -13.283200 -28.896600 -29.475800
H -13.153800 -29.239900 -25.289600
C -13.083900 -31.313700 -25.172300
C -12.976200 -24.840100 -32.207200
C -12.967900 -28.026000 -28.213100
C -12.775500 -27.727400 -30.394900
N -12.718600 -26.163900 -32.284100
C -12.713800 -30.049300 -25.521000
H -12.694900 -25.897200 -29.013000
C -12.460500 -26.862800 -29.125700
N -12.203100 -32.228100 -25.695400
N -12.088000 -24.120300 -32.865600
C -11.830600 -29.485600 -29.435200
H -11.596100 -30.451200 -29.548000
C -11.577300 -26.299100 -33.040000
N -11.572500 -30.184500 -26.276900
C -11.515600 -28.621000 -28.166100
C -11.323200 -28.322400 -30.347900
C -11.314900 -31.508300 -26.353800
C -11.207200 -25.034700 -33.388700
H -11.137300 -27.108500 -33.271400
C -11.007900 -27.451800 -29.085200
C -10.817500 -29.110000 -26.931500
H -10.719600 -28.431500 -31.137800
H -10.704200 -28.356800 -26.299000
H -10.579000 -31.878400 -26.827100
H -10.448800 -24.817200 -33.917800
H -10.171800 -26.922300 -28.940400
H -9.917200 -29.443000 -27.174200
72
Fragment
H -12.026500 -30.609400 -21.739400
H -11.880300 -27.626100 -21.012000
H -11.492200 -22.522500 -22.679400
H -11.383400 -30.547800 -20.273500
C -11.172600 -30.566400 -21.240700
H -11.164000 -32.450100 -23.286300
H -11.083700 -26.985600 -23.538900
C -10.994200 -27.856400 -21.414000
C -10.751300 -23.054000 -22.413200
H -10.623900 -24.484900 -23.914400
C -10.537100 -27.490300 -22.870600
C -10.495400 -32.556200 -22.619900
C -10.440200 -29.313200 -21.614700
N -10.373000 -31.755900 -21.541400
C -10.281500 -24.129100 -23.102700
H -10.116800 -29.510400 -23.877800
N -10.005600 -22.843600 -21.279200
C -9.977900 -28.943200 -23.066000
C -9.604000 -27.405200 -20.854700
N -9.576300 -33.504800 -22.641600
H -9.465100 -26.838000 -20.042900
C -9.300400 -32.219300 -20.818000
N -9.208900 -24.592500 -22.379400
C -9.141700 -27.035200 -22.306000
C -9.086500 -23.792200 -21.300800
C -9.044800 -28.858100 -21.050200
H -8.958000 -31.863500 -20.006300
C -8.830600 -33.294400 -21.507500
C -8.587700 -28.492000 -22.506700
H -8.498200 -29.362800 -20.381900
H -8.417900 -23.898300 -20.634400
C -8.409300 -25.782000 -22.680100
H -8.198500 -25.800600 -23.647200
H -8.089700 -33.825900 -21.241400
H -7.701600 -28.722300 -22.908800
H -7.555400 -25.739000 -22.181300
H -14.373800 -26.905400 -31.386800
H -14.119300 -29.426100 -29.620600
H -13.842300 -31.531200 -24.643200
H -13.712100 -24.470000 -31.733900
H -13.586800 -27.991600 -32.262000
H -13.571500 -27.916900 -27.423200
C -13.473600 -27.238400 -31.629500
C -13.283200 -28.896600 -29.475800
H -13.153800 -29.239900 -25.289600
C -13.083900 -31.313700 -25.172300
C -12.976200 -24.840100 -32.207200
C -12.967900 -28.026000 -28.213100
C -12.775500 -27.727400 -30.394900
N -12.718600 -26.163900 -32.284100
C -12.713800 -30.049300 -25.521000
H -12.694900 -25.897200 -29.013000
C -12.460500 -26.862800 -29.125700
N -12.203100 -32.228100 -25.695400
N -12.088000 -24.120300 -32.865600
C -11.830600 -29.485600 -29.435200
H -11.596100 -30.451200 -29.548000
C -11.577300 -26.299100 -33.040000
N -11.572500 -30.184500 -26.276900
C -11.515600 -28.621000 -28.166100
C -11.323200 -28.322400 -30.347900
C -11.314900 -31.508300 -26.353800
C -11.207200 -25.034700 -33.388700
H -11.137300 -27.108500 -33.271400
C -11.007900 -27.451800 -29.085200
C -10.817500 -29.110000 -26.931500
H -10.719600 -28.431500 -31.137800
H -10.704200 -28.356800 -26.299000
H -10.579000 -31.878400 -26.827100
H -10.448800 -24.817200 -33.917800
H -10.171800 -26.922300 -28.940400
H -9.917200 -29.443000 -27.174200
