36
Fragment
H -12.026500 -30.609400 -21.739400
H -11.880300 -27.626100 -21.012000
H -11.492200 -22.522500 -22.679400
H -11.383400 -30.547800 -20.273500
C -11.172600 -30.566400 -21.240700
H -11.164000 -32.450100 -23.286300
H -11.083700 -26.985600 -23.538900
C -10.994200 -27.856400 -21.414000
C -10.751300 -23.054000 -22.413200
H -10.623900 -24.484900 -23.914400
C -10.537100 -27.490300 -22.870600
C -10.495400 -32.556200 -22.619900
C -10.440200 -29.313200 -21.614700
N -10.373000 -31.755900 -21.541400
C -10.281500 -24.129100 -23.102700
H -10.116800 -29.510400 -23.877800
N -10.005600 -22.843600 -21.279200
C -9.977900 -28.943200 -23.066000
C -9.604000 -27.405200 -20.854700
N -9.576300 -33.504800 -22.641600
H -9.465100 -26.838000 -20.042900
C -9.300400 -32.219300 -20.818000
N -9.208900 -24.592500 -22.379400
C -9.141700 -27.035200 -22.306000
C -9.086500 -23.792200 -21.300800
C -9.044800 -28.858100 -21.050200
H -8.958000 -31.863500 -20.006300
C -8.830600 -33.294400 -21.507500
C -8.587700 -28.492000 -22.506700
H -8.498200 -29.362800 -20.381900
H -8.417900 -23.898300 -20.634400
C -8.409300 -25.782000 -22.680100
H -8.198500 -25.800600 -23.647200
H -8.089700 -33.825900 -21.241400
H -7.701600 -28.722300 -22.908800
H -7.555400 -25.739000 -22.181300
36
Fragment
H -17.480900 -30.609400 -21.739400
H -17.334700 -27.626100 -21.012000
H -16.946600 -22.522500 -22.679400
H -16.837800 -30.547800 -20.273500
C -16.627000 -30.566400 -21.240700
H -16.618400 -32.450100 -23.286300
H -16.538100 -26.985600 -23.538900
C -16.448600 -27.856400 -21.414000
C -16.205700 -23.054000 -22.413200
H -16.078300 -24.484900 -23.914400
C -15.991500 -27.490300 -22.870600
C -15.949800 -32.556200 -22.619900
C -15.894600 -29.313200 -21.614700
N -15.827400 -31.755900 -21.541400
C -15.735900 -24.129100 -23.102700
H -15.571200 -29.510400 -23.877800
N -15.460000 -22.843600 -21.279200
C -15.432300 -28.943200 -23.066000
C -15.058400 -27.405200 -20.854700
N -15.030700 -33.504800 -22.641600
H -14.919500 -26.838000 -20.042900
C -14.754800 -32.219300 -20.818000
N -14.663300 -24.592500 -22.379400
C -14.596100 -27.035200 -22.306000
C -14.540900 -23.792200 -21.300800
C -14.499200 -28.858100 -21.050200
H -14.412400 -31.863500 -20.006300
C -14.285000 -33.294400 -21.507500
C -14.042100 -28.492000 -22.506700
H -13.952600 -29.362800 -20.381900
H -13.872300 -23.898300 -20.634400
C -13.863700 -25.782000 -22.680100
H -13.652900 -25.800600 -23.647200
H -13.544100 -33.825900 -21.241400
H -13.156000 -28.722300 -22.908800
H -13.009800 -25.739000 -22.181300
72
Fragment
H -12.026500 -30.609400 -21.739400
H -11.880300 -27.626100 -21.012000
H -11.492200 -22.522500 -22.679400
H -11.383400 -30.547800 -20.273500
C -11.172600 -30.566400 -21.240700
H -11.164000 -32.450100 -23.286300
H -11.083700 -26.985600 -23.538900
C -10.994200 -27.856400 -21.414000
C -10.751300 -23.054000 -22.413200
H -10.623900 -24.484900 -23.914400
C -10.537100 -27.490300 -22.870600
C -10.495400 -32.556200 -22.619900
C -10.440200 -29.313200 -21.614700
N -10.373000 -31.755900 -21.541400
C -10.281500 -24.129100 -23.102700
H -10.116800 -29.510400 -23.877800
N -10.005600 -22.843600 -21.279200
C -9.977900 -28.943200 -23.066000
C -9.604000 -27.405200 -20.854700
N -9.576300 -33.504800 -22.641600
H -9.465100 -26.838000 -20.042900
C -9.300400 -32.219300 -20.818000
N -9.208900 -24.592500 -22.379400
C -9.141700 -27.035200 -22.306000
C -9.086500 -23.792200 -21.300800
C -9.044800 -28.858100 -21.050200
H -8.958000 -31.863500 -20.006300
C -8.830600 -33.294400 -21.507500
C -8.587700 -28.492000 -22.506700
H -8.498200 -29.362800 -20.381900
H -8.417900 -23.898300 -20.634400
C -8.409300 -25.782000 -22.680100
H -8.198500 -25.800600 -23.647200
H -8.089700 -33.825900 -21.241400
H -7.701600 -28.722300 -22.908800
H -7.555400 -25.739000 -22.181300
H -17.480900 -30.609400 -21.739400
H -17.334700 -27.626100 -21.012000
H -16.946600 -22.522500 -22.679400
H -16.837800 -30.547800 -20.273500
C -16.627000 -30.566400 -21.240700
H -16.618400 -32.450100 -23.286300
H -16.538100 -26.985600 -23.538900
C -16.448600 -27.856400 -21.414000
C -16.205700 -23.054000 -22.413200
H -16.078300 -24.484900 -23.914400
C -15.991500 -27.490300 -22.870600
C -15.949800 -32.556200 -22.619900
C -15.894600 -29.313200 -21.614700
N -15.827400 -31.755900 -21.541400
C -15.735900 -24.129100 -23.102700
H -15.571200 -29.510400 -23.877800
N -15.460000 -22.843600 -21.279200
C -15.432300 -28.943200 -23.066000
C -15.058400 -27.405200 -20.854700
N -15.030700 -33.504800 -22.641600
H -14.919500 -26.838000 -20.042900
C -14.754800 -32.219300 -20.818000
N -14.663300 -24.592500 -22.379400
C -14.596100 -27.035200 -22.306000
C -14.540900 -23.792200 -21.300800
C -14.499200 -28.858100 -21.050200
H -14.412400 -31.863500 -20.006300
C -14.285000 -33.294400 -21.507500
C -14.042100 -28.492000 -22.506700
H -13.952600 -29.362800 -20.381900
H -13.872300 -23.898300 -20.634400
C -13.863700 -25.782000 -22.680100
H -13.652900 -25.800600 -23.647200
H -13.544100 -33.825900 -21.241400
H -13.156000 -28.722300 -22.908800
H -13.009800 -25.739000 -22.181300
