22
Fragment
H -8.242900 -20.328000 -14.773400
N -7.745700 -18.548500 -19.365300
N -7.735100 -19.653900 -15.321700
N -7.488600 -18.462600 -14.768400
N -7.474700 -17.777700 -20.448700
H -7.177300 -22.175300 -15.763700
H -7.158900 -24.164500 -16.928400
C -7.158200 -22.159900 -16.693300
C -7.147000 -23.355800 -17.387800
C -7.139900 -20.929700 -17.353800
C -7.127300 -19.699900 -19.582200
C -7.117800 -23.340700 -18.766600
C -7.116500 -19.722900 -16.512800
C -7.115500 -20.924500 -18.760800
C -7.107700 -22.137200 -19.437800
H -7.104800 -24.140000 -19.242000
H -7.095100 -22.137000 -20.367700
N -6.736400 -17.824300 -15.606500
N -6.735500 -18.407500 -21.301000
N -6.513800 -19.618800 -20.772800
N -6.478100 -18.579400 -16.700700
H -5.943500 -20.248600 -21.249700
22
Fragment
H -5.372600 -16.975400 -7.630000
N -4.838100 -18.644600 -12.179000
N -4.802300 -17.605200 -8.107000
N -4.580700 -18.816500 -7.578800
N -4.579700 -19.399700 -13.273300
H -4.221100 -15.087000 -8.512000
H -4.211300 -13.084000 -9.637700
C -4.208400 -15.086800 -9.441900
C -4.200600 -16.299500 -10.118900
C -4.199600 -17.501100 -12.366900
C -4.198400 -13.883300 -10.113100
C -4.188900 -17.524100 -9.297500
C -4.176300 -16.294300 -11.525900
C -4.169100 -13.868200 -11.492000
C -4.158000 -15.064100 -12.186400
H -4.157300 -13.059500 -11.951300
H -4.138800 -15.048700 -13.116000
N -3.841400 -19.446300 -8.431000
N -3.827500 -18.761400 -14.111400
N -3.581100 -17.570100 -13.558000
N -3.570500 -18.675500 -9.514400
H -3.073300 -16.896000 -14.106300
44
Fragment
H -8.242900 -20.328000 -14.773400
N -7.745700 -18.548500 -19.365300
N -7.735100 -19.653900 -15.321700
N -7.488600 -18.462600 -14.768400
N -7.474700 -17.777700 -20.448700
H -7.177300 -22.175300 -15.763700
H -7.158900 -24.164500 -16.928400
C -7.158200 -22.159900 -16.693300
C -7.147000 -23.355800 -17.387800
C -7.139900 -20.929700 -17.353800
C -7.127300 -19.699900 -19.582200
C -7.117800 -23.340700 -18.766600
C -7.116500 -19.722900 -16.512800
C -7.115500 -20.924500 -18.760800
C -7.107700 -22.137200 -19.437800
H -7.104800 -24.140000 -19.242000
H -7.095100 -22.137000 -20.367700
N -6.736400 -17.824300 -15.606500
N -6.735500 -18.407500 -21.301000
N -6.513800 -19.618800 -20.772800
N -6.478100 -18.579400 -16.700700
H -5.943500 -20.248600 -21.249700
H -5.372600 -16.975400 -7.630000
N -4.838100 -18.644600 -12.179000
N -4.802300 -17.605200 -8.107000
N -4.580700 -18.816500 -7.578800
N -4.579700 -19.399700 -13.273300
H -4.221100 -15.087000 -8.512000
H -4.211300 -13.084000 -9.637700
C -4.208400 -15.086800 -9.441900
C -4.200600 -16.299500 -10.118900
C -4.199600 -17.501100 -12.366900
C -4.198400 -13.883300 -10.113100
C -4.188900 -17.524100 -9.297500
C -4.176300 -16.294300 -11.525900
C -4.169100 -13.868200 -11.492000
C -4.158000 -15.064100 -12.186400
H -4.157300 -13.059500 -11.951300
H -4.138800 -15.048700 -13.116000
N -3.841400 -19.446300 -8.431000
N -3.827500 -18.761400 -14.111400
N -3.581100 -17.570100 -13.558000
N -3.570500 -18.675500 -9.514400
H -3.073300 -16.896000 -14.106300
