22
Fragment
H -8.242900 -20.328000 -14.773400
N -7.745700 -18.548500 -19.365300
N -7.735100 -19.653900 -15.321700
N -7.488600 -18.462600 -14.768400
N -7.474700 -17.777700 -20.448700
H -7.177300 -22.175300 -15.763700
H -7.158900 -24.164500 -16.928400
C -7.158200 -22.159900 -16.693300
C -7.147000 -23.355800 -17.387800
C -7.139900 -20.929700 -17.353800
C -7.127300 -19.699900 -19.582200
C -7.117800 -23.340700 -18.766600
C -7.116500 -19.722900 -16.512800
C -7.115500 -20.924500 -18.760800
C -7.107700 -22.137200 -19.437800
H -7.104800 -24.140000 -19.242000
H -7.095100 -22.137000 -20.367700
N -6.736400 -17.824300 -15.606500
N -6.735500 -18.407500 -21.301000
N -6.513800 -19.618800 -20.772800
N -6.478100 -18.579400 -16.700700
H -5.943500 -20.248600 -21.249700
22
Fragment
H -9.005100 -14.044600 -7.630000
N -8.470600 -12.375400 -12.179000
N -8.434800 -13.414800 -8.107000
N -8.213200 -12.203500 -7.578800
N -8.212200 -11.620300 -13.273300
H -7.853600 -15.933000 -8.512000
H -7.843800 -17.936000 -9.637700
C -7.840900 -15.933200 -9.441900
C -7.833100 -14.720500 -10.118900
C -7.832100 -13.518900 -12.366900
C -7.830900 -17.136700 -10.113100
C -7.821400 -13.495900 -9.297500
C -7.808800 -14.725700 -11.525900
C -7.801600 -17.151800 -11.492000
C -7.790500 -15.955900 -12.186400
H -7.789800 -17.960500 -11.951300
H -7.771300 -15.971300 -13.116000
N -7.473900 -11.573700 -8.431000
N -7.460000 -12.258600 -14.111400
N -7.213600 -13.449900 -13.558000
N -7.203000 -12.344500 -9.514400
H -6.705800 -14.124000 -14.106300
44
Fragment
H -8.242900 -20.328000 -14.773400
N -7.745700 -18.548500 -19.365300
N -7.735100 -19.653900 -15.321700
N -7.488600 -18.462600 -14.768400
N -7.474700 -17.777700 -20.448700
H -7.177300 -22.175300 -15.763700
H -7.158900 -24.164500 -16.928400
C -7.158200 -22.159900 -16.693300
C -7.147000 -23.355800 -17.387800
C -7.139900 -20.929700 -17.353800
C -7.127300 -19.699900 -19.582200
C -7.117800 -23.340700 -18.766600
C -7.116500 -19.722900 -16.512800
C -7.115500 -20.924500 -18.760800
C -7.107700 -22.137200 -19.437800
H -7.104800 -24.140000 -19.242000
H -7.095100 -22.137000 -20.367700
N -6.736400 -17.824300 -15.606500
N -6.735500 -18.407500 -21.301000
N -6.513800 -19.618800 -20.772800
N -6.478100 -18.579400 -16.700700
H -5.943500 -20.248600 -21.249700
H -9.005100 -14.044600 -7.630000
N -8.470600 -12.375400 -12.179000
N -8.434800 -13.414800 -8.107000
N -8.213200 -12.203500 -7.578800
N -8.212200 -11.620300 -13.273300
H -7.853600 -15.933000 -8.512000
H -7.843800 -17.936000 -9.637700
C -7.840900 -15.933200 -9.441900
C -7.833100 -14.720500 -10.118900
C -7.832100 -13.518900 -12.366900
C -7.830900 -17.136700 -10.113100
C -7.821400 -13.495900 -9.297500
C -7.808800 -14.725700 -11.525900
C -7.801600 -17.151800 -11.492000
C -7.790500 -15.955900 -12.186400
H -7.789800 -17.960500 -11.951300
H -7.771300 -15.971300 -13.116000
N -7.473900 -11.573700 -8.431000
N -7.460000 -12.258600 -14.111400
N -7.213600 -13.449900 -13.558000
N -7.203000 -12.344500 -9.514400
H -6.705800 -14.124000 -14.106300
