22
Fragment
H -8.242900 -20.328000 -14.773400
N -7.745700 -18.548500 -19.365300
N -7.735100 -19.653900 -15.321700
N -7.488600 -18.462600 -14.768400
N -7.474700 -17.777700 -20.448700
H -7.177300 -22.175300 -15.763700
H -7.158900 -24.164500 -16.928400
C -7.158200 -22.159900 -16.693300
C -7.147000 -23.355800 -17.387800
C -7.139900 -20.929700 -17.353800
C -7.127300 -19.699900 -19.582200
C -7.117800 -23.340700 -18.766600
C -7.116500 -19.722900 -16.512800
C -7.115500 -20.924500 -18.760800
C -7.107700 -22.137200 -19.437800
H -7.104800 -24.140000 -19.242000
H -7.095100 -22.137000 -20.367700
N -6.736400 -17.824300 -15.606500
N -6.735500 -18.407500 -21.301000
N -6.513800 -19.618800 -20.772800
N -6.478100 -18.579400 -16.700700
H -5.943500 -20.248600 -21.249700
22
Fragment
H -7.398200 -14.044600 -22.069900
N -6.863600 -12.375400 -26.618900
N -6.827900 -13.414800 -22.546800
N -6.606200 -12.203500 -22.018600
N -6.605300 -11.620300 -27.713100
H -6.246600 -15.933000 -22.951900
H -6.236900 -17.936000 -24.077600
C -6.234000 -15.933200 -23.881800
C -6.226200 -14.720500 -24.558700
C -6.225200 -13.518900 -26.806700
C -6.223900 -17.136700 -24.553000
C -6.214400 -13.495900 -23.737400
C -6.201800 -14.725700 -25.965800
C -6.194700 -17.151800 -25.931800
C -6.183500 -15.955900 -26.626200
H -6.182800 -17.960500 -26.391200
H -6.164400 -15.971300 -27.555900
N -5.867000 -11.573700 -22.870900
N -5.853100 -12.258600 -28.551200
N -5.606600 -13.449900 -27.997900
N -5.596000 -12.344500 -23.954300
H -5.098800 -14.124000 -28.546200
44
Fragment
H -8.242900 -20.328000 -14.773400
N -7.745700 -18.548500 -19.365300
N -7.735100 -19.653900 -15.321700
N -7.488600 -18.462600 -14.768400
N -7.474700 -17.777700 -20.448700
H -7.177300 -22.175300 -15.763700
H -7.158900 -24.164500 -16.928400
C -7.158200 -22.159900 -16.693300
C -7.147000 -23.355800 -17.387800
C -7.139900 -20.929700 -17.353800
C -7.127300 -19.699900 -19.582200
C -7.117800 -23.340700 -18.766600
C -7.116500 -19.722900 -16.512800
C -7.115500 -20.924500 -18.760800
C -7.107700 -22.137200 -19.437800
H -7.104800 -24.140000 -19.242000
H -7.095100 -22.137000 -20.367700
N -6.736400 -17.824300 -15.606500
N -6.735500 -18.407500 -21.301000
N -6.513800 -19.618800 -20.772800
N -6.478100 -18.579400 -16.700700
H -5.943500 -20.248600 -21.249700
H -7.398200 -14.044600 -22.069900
N -6.863600 -12.375400 -26.618900
N -6.827900 -13.414800 -22.546800
N -6.606200 -12.203500 -22.018600
N -6.605300 -11.620300 -27.713100
H -6.246600 -15.933000 -22.951900
H -6.236900 -17.936000 -24.077600
C -6.234000 -15.933200 -23.881800
C -6.226200 -14.720500 -24.558700
C -6.225200 -13.518900 -26.806700
C -6.223900 -17.136700 -24.553000
C -6.214400 -13.495900 -23.737400
C -6.201800 -14.725700 -25.965800
C -6.194700 -17.151800 -25.931800
C -6.183500 -15.955900 -26.626200
H -6.182800 -17.960500 -26.391200
H -6.164400 -15.971300 -27.555900
N -5.867000 -11.573700 -22.870900
N -5.853100 -12.258600 -28.551200
N -5.606600 -13.449900 -27.997900
N -5.596000 -12.344500 -23.954300
H -5.098800 -14.124000 -28.546200
