15
Fragment
H -18.639000 -15.690100 -30.879300
N -18.042400 -16.362100 -30.915600
H -17.871300 -16.719300 -31.604100
H -17.783200 -15.094800 -26.479000
N -17.605300 -16.094600 -28.677200
C -17.328800 -16.753600 -29.820700
N -17.221900 -15.718400 -26.448100
C -16.931100 -16.439800 -27.564000
H -16.902200 -16.002900 -25.718500
C -16.400000 -17.775700 -29.880900
H -16.233900 -18.223700 -30.678800
C -15.982200 -17.448800 -27.544800
C -15.725500 -18.112700 -28.724600
H -15.532900 -17.671800 -26.761000
H -15.092400 -18.793800 -28.742700
20
Fragment
H -20.404700 -9.992200 -33.226400
H -19.838400 -10.153700 -31.105700
C -19.440700 -9.960900 -33.122300
H -19.105900 -9.158800 -33.554000
C -19.059300 -9.978100 -31.655300
O -18.949500 -11.617100 -34.859800
C -18.807000 -11.178800 -33.710100
H -18.680500 -9.124500 -31.393600
H -18.301700 -11.682300 -30.780000
C -18.043700 -11.076900 -31.491500
N -18.036600 -11.760900 -32.779400
H -17.888900 -13.524800 -33.635400
H -17.405600 -13.513700 -32.150100
C -17.377000 -13.020300 -32.984900
H -17.169000 -10.710600 -31.290300
C -15.943100 -12.974900 -33.451400
H -15.807300 -11.058700 -33.575900
N -15.389600 -11.805400 -33.689200
O -15.333700 -14.034800 -33.598500
H -14.548700 -11.765100 -33.973000
35
Fragment
H -18.639000 -15.690100 -30.879300
N -18.042400 -16.362100 -30.915600
H -17.871300 -16.719300 -31.604100
H -17.783200 -15.094800 -26.479000
N -17.605300 -16.094600 -28.677200
C -17.328800 -16.753600 -29.820700
N -17.221900 -15.718400 -26.448100
C -16.931100 -16.439800 -27.564000
H -16.902200 -16.002900 -25.718500
C -16.400000 -17.775700 -29.880900
H -16.233900 -18.223700 -30.678800
C -15.982200 -17.448800 -27.544800
C -15.725500 -18.112700 -28.724600
H -15.532900 -17.671800 -26.761000
H -15.092400 -18.793800 -28.742700
H -20.404700 -9.992200 -33.226400
H -19.838400 -10.153700 -31.105700
C -19.440700 -9.960900 -33.122300
H -19.105900 -9.158800 -33.554000
C -19.059300 -9.978100 -31.655300
O -18.949500 -11.617100 -34.859800
C -18.807000 -11.178800 -33.710100
H -18.680500 -9.124500 -31.393600
H -18.301700 -11.682300 -30.780000
C -18.043700 -11.076900 -31.491500
N -18.036600 -11.760900 -32.779400
H -17.888900 -13.524800 -33.635400
H -17.405600 -13.513700 -32.150100
C -17.377000 -13.020300 -32.984900
H -17.169000 -10.710600 -31.290300
C -15.943100 -12.974900 -33.451400
H -15.807300 -11.058700 -33.575900
N -15.389600 -11.805400 -33.689200
O -15.333700 -14.034800 -33.598500
H -14.548700 -11.765100 -33.973000
