21
Fragment
H -12.944000 -25.029000 -11.763600
H -12.263900 -26.095400 -10.838500
H -12.236900 -26.277000 -12.395200
C -12.206400 -25.637500 -11.680600
O -11.925900 -23.207100 -10.571500
N -10.950200 -24.893300 -11.746300
C -10.917400 -23.660000 -11.103900
H -10.359400 -21.081400 -10.924200
O -10.007800 -26.610400 -12.938600
C -9.875200 -25.523400 -12.394900
H -9.848800 -21.692100 -9.573600
N -9.734000 -22.974100 -11.106000
C -9.686700 -21.633600 -10.518300
H -8.821100 -21.247400 -10.670800
C -8.695300 -24.741100 -12.331200
C -8.629300 -23.529900 -11.708400
N -7.428300 -24.973600 -12.815900
N -7.385800 -22.991200 -11.775700
H -7.108200 -25.782200 -13.273800
C -6.704800 -23.912700 -12.449800
H -5.744600 -23.846800 -12.688600
21
Fragment
H -16.419100 -23.129600 -5.152500
C -15.459000 -23.063700 -5.391400
H -15.055600 -21.194200 -4.567300
N -14.778000 -23.985200 -6.065500
N -14.735500 -22.002800 -5.025300
C -13.534400 -23.446500 -6.132800
C -13.468500 -22.235300 -5.510000
H -13.342700 -25.729000 -7.170400
C -12.477100 -25.342800 -7.322900
N -12.429700 -24.002300 -6.735100
H -12.315000 -25.284300 -8.267600
C -12.288500 -21.453000 -5.446300
O -12.156000 -20.366000 -4.902600
H -11.804400 -25.895000 -6.917000
C -11.246400 -23.316400 -6.737300
N -11.213500 -22.083100 -6.094900
O -10.237800 -23.769300 -7.269700
C -9.957300 -21.338900 -6.160600
H -9.926900 -20.699400 -5.446000
H -9.899900 -20.881000 -7.002700
H -9.219800 -21.947400 -6.077600
42
Fragment
H -12.944000 -25.029000 -11.763600
H -12.263900 -26.095400 -10.838500
H -12.236900 -26.277000 -12.395200
C -12.206400 -25.637500 -11.680600
O -11.925900 -23.207100 -10.571500
N -10.950200 -24.893300 -11.746300
C -10.917400 -23.660000 -11.103900
H -10.359400 -21.081400 -10.924200
O -10.007800 -26.610400 -12.938600
C -9.875200 -25.523400 -12.394900
H -9.848800 -21.692100 -9.573600
N -9.734000 -22.974100 -11.106000
C -9.686700 -21.633600 -10.518300
H -8.821100 -21.247400 -10.670800
C -8.695300 -24.741100 -12.331200
C -8.629300 -23.529900 -11.708400
N -7.428300 -24.973600 -12.815900
N -7.385800 -22.991200 -11.775700
H -7.108200 -25.782200 -13.273800
C -6.704800 -23.912700 -12.449800
H -5.744600 -23.846800 -12.688600
H -16.419100 -23.129600 -5.152500
C -15.459000 -23.063700 -5.391400
H -15.055600 -21.194200 -4.567300
N -14.778000 -23.985200 -6.065500
N -14.735500 -22.002800 -5.025300
C -13.534400 -23.446500 -6.132800
C -13.468500 -22.235300 -5.510000
H -13.342700 -25.729000 -7.170400
C -12.477100 -25.342800 -7.322900
N -12.429700 -24.002300 -6.735100
H -12.315000 -25.284300 -8.267600
C -12.288500 -21.453000 -5.446300
O -12.156000 -20.366000 -4.902600
H -11.804400 -25.895000 -6.917000
C -11.246400 -23.316400 -6.737300
N -11.213500 -22.083100 -6.094900
O -10.237800 -23.769300 -7.269700
C -9.957300 -21.338900 -6.160600
H -9.926900 -20.699400 -5.446000
H -9.899900 -20.881000 -7.002700
H -9.219800 -21.947400 -6.077600
