21
Fragment
H -12.944000 -25.029000 -11.763600
H -12.263900 -26.095400 -10.838500
H -12.236900 -26.277000 -12.395200
C -12.206400 -25.637500 -11.680600
O -11.925900 -23.207100 -10.571500
N -10.950200 -24.893300 -11.746300
C -10.917400 -23.660000 -11.103900
H -10.359400 -21.081400 -10.924200
O -10.007800 -26.610400 -12.938600
C -9.875200 -25.523400 -12.394900
H -9.848800 -21.692100 -9.573600
N -9.734000 -22.974100 -11.106000
C -9.686700 -21.633600 -10.518300
H -8.821100 -21.247400 -10.670800
C -8.695300 -24.741100 -12.331200
C -8.629300 -23.529900 -11.708400
N -7.428300 -24.973600 -12.815900
N -7.385800 -22.991200 -11.775700
H -7.108200 -25.782200 -13.273800
C -6.704800 -23.912700 -12.449800
H -5.744600 -23.846800 -12.688600
15
Fragment
H -6.253800 -19.402800 -12.018700
H -5.729100 -17.251300 -12.686900
C -5.386000 -19.180900 -12.270300
H -5.352400 -21.574700 -11.614600
C -5.065600 -17.902200 -12.662800
N -4.609400 -21.445500 -11.958200
C -4.371900 -20.128900 -12.262500
H -3.927300 -21.931700 -11.596800
C -3.785100 -17.573400 -13.018300
H -3.569300 -16.707900 -13.281900
N -3.108100 -19.833100 -12.612500
C -2.812900 -18.573400 -12.973500
N -1.510400 -18.317700 -13.267300
H -1.315600 -17.542600 -13.719900
H -0.961400 -18.981600 -13.354100
36
Fragment
H -12.944000 -25.029000 -11.763600
H -12.263900 -26.095400 -10.838500
H -12.236900 -26.277000 -12.395200
C -12.206400 -25.637500 -11.680600
O -11.925900 -23.207100 -10.571500
N -10.950200 -24.893300 -11.746300
C -10.917400 -23.660000 -11.103900
H -10.359400 -21.081400 -10.924200
O -10.007800 -26.610400 -12.938600
C -9.875200 -25.523400 -12.394900
H -9.848800 -21.692100 -9.573600
N -9.734000 -22.974100 -11.106000
C -9.686700 -21.633600 -10.518300
H -8.821100 -21.247400 -10.670800
C -8.695300 -24.741100 -12.331200
C -8.629300 -23.529900 -11.708400
N -7.428300 -24.973600 -12.815900
N -7.385800 -22.991200 -11.775700
H -7.108200 -25.782200 -13.273800
C -6.704800 -23.912700 -12.449800
H -5.744600 -23.846800 -12.688600
H -6.253800 -19.402800 -12.018700
H -5.729100 -17.251300 -12.686900
C -5.386000 -19.180900 -12.270300
H -5.352400 -21.574700 -11.614600
C -5.065600 -17.902200 -12.662800
N -4.609400 -21.445500 -11.958200
C -4.371900 -20.128900 -12.262500
H -3.927300 -21.931700 -11.596800
C -3.785100 -17.573400 -13.018300
H -3.569300 -16.707900 -13.281900
N -3.108100 -19.833100 -12.612500
C -2.812900 -18.573400 -12.973500
N -1.510400 -18.317700 -13.267300
H -1.315600 -17.542600 -13.719900
H -0.961400 -18.981600 -13.354100
