21
Fragment
H -12.944000 -25.029000 -11.763600
H -12.263900 -26.095400 -10.838500
H -12.236900 -26.277000 -12.395200
C -12.206400 -25.637500 -11.680600
O -11.925900 -23.207100 -10.571500
N -10.950200 -24.893300 -11.746300
C -10.917400 -23.660000 -11.103900
H -10.359400 -21.081400 -10.924200
O -10.007800 -26.610400 -12.938600
C -9.875200 -25.523400 -12.394900
H -9.848800 -21.692100 -9.573600
N -9.734000 -22.974100 -11.106000
C -9.686700 -21.633600 -10.518300
H -8.821100 -21.247400 -10.670800
C -8.695300 -24.741100 -12.331200
C -8.629300 -23.529900 -11.708400
N -7.428300 -24.973600 -12.815900
N -7.385800 -22.991200 -11.775700
H -7.108200 -25.782200 -13.273800
C -6.704800 -23.912700 -12.449800
H -5.744600 -23.846800 -12.688600
21
Fragment
H -3.400100 -25.029000 -11.763600
H -2.720000 -26.095400 -10.838500
H -2.693000 -26.277000 -12.395200
C -2.662500 -25.637500 -11.680600
O -2.382000 -23.207100 -10.571500
N -1.406300 -24.893300 -11.746300
C -1.373500 -23.660000 -11.103900
H -0.815500 -21.081400 -10.924200
O -0.463900 -26.610400 -12.938600
C -0.331300 -25.523400 -12.394900
H -0.304900 -21.692100 -9.573600
N -0.190100 -22.974100 -11.106000
C -0.142800 -21.633600 -10.518300
H 0.722800 -21.247400 -10.670800
C 0.848600 -24.741100 -12.331200
C 0.914600 -23.529900 -11.708400
N 2.115600 -24.973600 -12.815900
N 2.158100 -22.991200 -11.775700
H 2.435700 -25.782200 -13.273800
C 2.839100 -23.912700 -12.449800
H 3.799300 -23.846800 -12.688600
42
Fragment
H -12.944000 -25.029000 -11.763600
H -12.263900 -26.095400 -10.838500
H -12.236900 -26.277000 -12.395200
C -12.206400 -25.637500 -11.680600
O -11.925900 -23.207100 -10.571500
N -10.950200 -24.893300 -11.746300
C -10.917400 -23.660000 -11.103900
H -10.359400 -21.081400 -10.924200
O -10.007800 -26.610400 -12.938600
C -9.875200 -25.523400 -12.394900
H -9.848800 -21.692100 -9.573600
N -9.734000 -22.974100 -11.106000
C -9.686700 -21.633600 -10.518300
H -8.821100 -21.247400 -10.670800
C -8.695300 -24.741100 -12.331200
C -8.629300 -23.529900 -11.708400
N -7.428300 -24.973600 -12.815900
N -7.385800 -22.991200 -11.775700
H -7.108200 -25.782200 -13.273800
C -6.704800 -23.912700 -12.449800
H -5.744600 -23.846800 -12.688600
H -3.400100 -25.029000 -11.763600
H -2.720000 -26.095400 -10.838500
H -2.693000 -26.277000 -12.395200
C -2.662500 -25.637500 -11.680600
O -2.382000 -23.207100 -10.571500
N -1.406300 -24.893300 -11.746300
C -1.373500 -23.660000 -11.103900
H -0.815500 -21.081400 -10.924200
O -0.463900 -26.610400 -12.938600
C -0.331300 -25.523400 -12.394900
H -0.304900 -21.692100 -9.573600
N -0.190100 -22.974100 -11.106000
C -0.142800 -21.633600 -10.518300
H 0.722800 -21.247400 -10.670800
C 0.848600 -24.741100 -12.331200
C 0.914600 -23.529900 -11.708400
N 2.115600 -24.973600 -12.815900
N 2.158100 -22.991200 -11.775700
H 2.435700 -25.782200 -13.273800
C 2.839100 -23.912700 -12.449800
H 3.799300 -23.846800 -12.688600
