21
Fragment
H -12.944000 -25.029000 -11.763600
H -12.263900 -26.095400 -10.838500
H -12.236900 -26.277000 -12.395200
C -12.206400 -25.637500 -11.680600
O -11.925900 -23.207100 -10.571500
N -10.950200 -24.893300 -11.746300
C -10.917400 -23.660000 -11.103900
H -10.359400 -21.081400 -10.924200
O -10.007800 -26.610400 -12.938600
C -9.875200 -25.523400 -12.394900
H -9.848800 -21.692100 -9.573600
N -9.734000 -22.974100 -11.106000
C -9.686700 -21.633600 -10.518300
H -8.821100 -21.247400 -10.670800
C -8.695300 -24.741100 -12.331200
C -8.629300 -23.529900 -11.708400
N -7.428300 -24.973600 -12.815900
N -7.385800 -22.991200 -11.775700
H -7.108200 -25.782200 -13.273800
C -6.704800 -23.912700 -12.449800
H -5.744600 -23.846800 -12.688600
15
Fragment
H -17.414700 -19.744200 -7.558400
H -16.889900 -21.895700 -8.226600
C -16.546900 -19.966100 -7.810000
H -16.513200 -17.572300 -7.154300
C -16.226500 -21.244800 -8.202500
N -15.770300 -17.701500 -7.497900
C -15.532800 -19.018100 -7.802200
H -15.088100 -17.215300 -7.136500
C -14.946000 -21.573600 -8.558000
H -14.730100 -22.439100 -8.821600
N -14.269000 -19.313900 -8.152200
C -13.973700 -20.573600 -8.513200
N -12.671300 -20.829300 -8.807000
H -12.476500 -21.604400 -9.259600
H -12.122300 -20.165400 -8.893800
36
Fragment
H -12.944000 -25.029000 -11.763600
H -12.263900 -26.095400 -10.838500
H -12.236900 -26.277000 -12.395200
C -12.206400 -25.637500 -11.680600
O -11.925900 -23.207100 -10.571500
N -10.950200 -24.893300 -11.746300
C -10.917400 -23.660000 -11.103900
H -10.359400 -21.081400 -10.924200
O -10.007800 -26.610400 -12.938600
C -9.875200 -25.523400 -12.394900
H -9.848800 -21.692100 -9.573600
N -9.734000 -22.974100 -11.106000
C -9.686700 -21.633600 -10.518300
H -8.821100 -21.247400 -10.670800
C -8.695300 -24.741100 -12.331200
C -8.629300 -23.529900 -11.708400
N -7.428300 -24.973600 -12.815900
N -7.385800 -22.991200 -11.775700
H -7.108200 -25.782200 -13.273800
C -6.704800 -23.912700 -12.449800
H -5.744600 -23.846800 -12.688600
H -17.414700 -19.744200 -7.558400
H -16.889900 -21.895700 -8.226600
C -16.546900 -19.966100 -7.810000
H -16.513200 -17.572300 -7.154300
C -16.226500 -21.244800 -8.202500
N -15.770300 -17.701500 -7.497900
C -15.532800 -19.018100 -7.802200
H -15.088100 -17.215300 -7.136500
C -14.946000 -21.573600 -8.558000
H -14.730100 -22.439100 -8.821600
N -14.269000 -19.313900 -8.152200
C -13.973700 -20.573600 -8.513200
N -12.671300 -20.829300 -8.807000
H -12.476500 -21.604400 -9.259600
H -12.122300 -20.165400 -8.893800
