15
Fragment
H -18.639000 -15.690100 -30.879300
N -18.042400 -16.362100 -30.915600
H -17.871300 -16.719300 -31.604100
H -17.783200 -15.094800 -26.479000
N -17.605300 -16.094600 -28.677200
C -17.328800 -16.753600 -29.820700
N -17.221900 -15.718400 -26.448100
C -16.931100 -16.439800 -27.564000
H -16.902200 -16.002900 -25.718500
C -16.400000 -17.775700 -29.880900
H -16.233900 -18.223700 -30.678800
C -15.982200 -17.448800 -27.544800
C -15.725500 -18.112700 -28.724600
H -15.532900 -17.671800 -26.761000
H -15.092400 -18.793800 -28.742700
20
Fragment
H -20.404700 -15.233000 -23.298000
H -19.838400 -15.071600 -21.177300
C -19.440700 -15.264300 -23.193900
H -19.105900 -16.066500 -23.625600
C -19.059300 -15.247200 -21.726900
O -18.949500 -13.608100 -24.931400
C -18.807000 -14.046400 -23.781700
H -18.680500 -16.100800 -21.465200
H -18.301700 -13.542900 -20.851600
C -18.043700 -14.148300 -21.563100
N -18.036600 -13.464300 -22.851000
H -17.888900 -11.700500 -23.707000
H -17.405600 -11.711600 -22.221700
C -17.377000 -12.205000 -23.056500
H -17.169000 -14.514600 -21.361900
C -15.943100 -12.250400 -23.523000
H -15.807300 -14.166500 -23.647500
N -15.389600 -13.419800 -23.760800
O -15.333700 -11.190400 -23.670100
H -14.548700 -13.460200 -24.044600
35
Fragment
H -18.639000 -15.690100 -30.879300
N -18.042400 -16.362100 -30.915600
H -17.871300 -16.719300 -31.604100
H -17.783200 -15.094800 -26.479000
N -17.605300 -16.094600 -28.677200
C -17.328800 -16.753600 -29.820700
N -17.221900 -15.718400 -26.448100
C -16.931100 -16.439800 -27.564000
H -16.902200 -16.002900 -25.718500
C -16.400000 -17.775700 -29.880900
H -16.233900 -18.223700 -30.678800
C -15.982200 -17.448800 -27.544800
C -15.725500 -18.112700 -28.724600
H -15.532900 -17.671800 -26.761000
H -15.092400 -18.793800 -28.742700
H -20.404700 -15.233000 -23.298000
H -19.838400 -15.071600 -21.177300
C -19.440700 -15.264300 -23.193900
H -19.105900 -16.066500 -23.625600
C -19.059300 -15.247200 -21.726900
O -18.949500 -13.608100 -24.931400
C -18.807000 -14.046400 -23.781700
H -18.680500 -16.100800 -21.465200
H -18.301700 -13.542900 -20.851600
C -18.043700 -14.148300 -21.563100
N -18.036600 -13.464300 -22.851000
H -17.888900 -11.700500 -23.707000
H -17.405600 -11.711600 -22.221700
C -17.377000 -12.205000 -23.056500
H -17.169000 -14.514600 -21.361900
C -15.943100 -12.250400 -23.523000
H -15.807300 -14.166500 -23.647500
N -15.389600 -13.419800 -23.760800
O -15.333700 -11.190400 -23.670100
H -14.548700 -13.460200 -24.044600
