15
Fragment
H -18.639000 -15.690100 -30.879300
N -18.042400 -16.362100 -30.915600
H -17.871300 -16.719300 -31.604100
H -17.783200 -15.094800 -26.479000
N -17.605300 -16.094600 -28.677200
C -17.328800 -16.753600 -29.820700
N -17.221900 -15.718400 -26.448100
C -16.931100 -16.439800 -27.564000
H -16.902200 -16.002900 -25.718500
C -16.400000 -17.775700 -29.880900
H -16.233900 -18.223700 -30.678800
C -15.982200 -17.448800 -27.544800
C -15.725500 -18.112700 -28.724600
H -15.532900 -17.671800 -26.761000
H -15.092400 -18.793800 -28.742700
15
Fragment
H -16.371100 -23.838900 -28.742700
H -15.930600 -22.716900 -26.761000
C -15.738000 -23.157800 -28.724600
C -15.481300 -22.493900 -27.544800
H -15.229600 -23.268800 -30.678800
C -15.063500 -22.820800 -29.880900
H -14.561300 -21.047900 -25.718500
C -14.532400 -21.484800 -27.564000
N -14.241600 -20.763400 -26.448100
C -14.134700 -21.798700 -29.820700
N -13.858200 -21.139700 -28.677200
H -13.680300 -20.139800 -26.479000
H -13.592200 -21.764300 -31.604100
N -13.421100 -21.407200 -30.915600
H -12.824500 -20.735200 -30.879300
30
Fragment
H -18.639000 -15.690100 -30.879300
N -18.042400 -16.362100 -30.915600
H -17.871300 -16.719300 -31.604100
H -17.783200 -15.094800 -26.479000
N -17.605300 -16.094600 -28.677200
C -17.328800 -16.753600 -29.820700
N -17.221900 -15.718400 -26.448100
C -16.931100 -16.439800 -27.564000
H -16.902200 -16.002900 -25.718500
C -16.400000 -17.775700 -29.880900
H -16.233900 -18.223700 -30.678800
C -15.982200 -17.448800 -27.544800
C -15.725500 -18.112700 -28.724600
H -15.532900 -17.671800 -26.761000
H -15.092400 -18.793800 -28.742700
H -16.371100 -23.838900 -28.742700
H -15.930600 -22.716900 -26.761000
C -15.738000 -23.157800 -28.724600
C -15.481300 -22.493900 -27.544800
H -15.229600 -23.268800 -30.678800
C -15.063500 -22.820800 -29.880900
H -14.561300 -21.047900 -25.718500
C -14.532400 -21.484800 -27.564000
N -14.241600 -20.763400 -26.448100
C -14.134700 -21.798700 -29.820700
N -13.858200 -21.139700 -28.677200
H -13.680300 -20.139800 -26.479000
H -13.592200 -21.764300 -31.604100
N -13.421100 -21.407200 -30.915600
H -12.824500 -20.735200 -30.879300
