15
Fragment
H -18.639000 -15.690100 -30.879300
N -18.042400 -16.362100 -30.915600
H -17.871300 -16.719300 -31.604100
H -17.783200 -15.094800 -26.479000
N -17.605300 -16.094600 -28.677200
C -17.328800 -16.753600 -29.820700
N -17.221900 -15.718400 -26.448100
C -16.931100 -16.439800 -27.564000
H -16.902200 -16.002900 -25.718500
C -16.400000 -17.775700 -29.880900
H -16.233900 -18.223700 -30.678800
C -15.982200 -17.448800 -27.544800
C -15.725500 -18.112700 -28.724600
H -15.532900 -17.671800 -26.761000
H -15.092400 -18.793800 -28.742700
20
Fragment
H -23.207500 -18.505200 -25.597400
O -22.422500 -16.235500 -25.971900
N -22.366600 -18.464900 -25.881200
H -21.948900 -19.211600 -25.994500
C -21.813100 -17.295400 -26.119000
H -20.587200 -19.559700 -28.280100
C -20.379200 -17.250000 -26.585500
H -20.350600 -16.756600 -27.420300
H -19.867300 -16.745500 -25.935000
N -19.719600 -18.509400 -26.791000
C -19.712500 -19.193400 -28.078900
H -19.454500 -18.588000 -28.790400
H -19.075700 -21.145800 -28.176800
C -18.949200 -19.091500 -25.860300
O -18.806700 -18.653200 -24.710600
C -18.696900 -20.292200 -27.915100
H -18.650300 -21.111500 -26.016400
C -18.315500 -20.309400 -26.448100
H -17.917800 -20.116600 -28.464700
H -17.351500 -20.278100 -26.344000
35
Fragment
H -18.639000 -15.690100 -30.879300
N -18.042400 -16.362100 -30.915600
H -17.871300 -16.719300 -31.604100
H -17.783200 -15.094800 -26.479000
N -17.605300 -16.094600 -28.677200
C -17.328800 -16.753600 -29.820700
N -17.221900 -15.718400 -26.448100
C -16.931100 -16.439800 -27.564000
H -16.902200 -16.002900 -25.718500
C -16.400000 -17.775700 -29.880900
H -16.233900 -18.223700 -30.678800
C -15.982200 -17.448800 -27.544800
C -15.725500 -18.112700 -28.724600
H -15.532900 -17.671800 -26.761000
H -15.092400 -18.793800 -28.742700
H -23.207500 -18.505200 -25.597400
O -22.422500 -16.235500 -25.971900
N -22.366600 -18.464900 -25.881200
H -21.948900 -19.211600 -25.994500
C -21.813100 -17.295400 -26.119000
H -20.587200 -19.559700 -28.280100
C -20.379200 -17.250000 -26.585500
H -20.350600 -16.756600 -27.420300
H -19.867300 -16.745500 -25.935000
N -19.719600 -18.509400 -26.791000
C -19.712500 -19.193400 -28.078900
H -19.454500 -18.588000 -28.790400
H -19.075700 -21.145800 -28.176800
C -18.949200 -19.091500 -25.860300
O -18.806700 -18.653200 -24.710600
C -18.696900 -20.292200 -27.915100
H -18.650300 -21.111500 -26.016400
C -18.315500 -20.309400 -26.448100
H -17.917800 -20.116600 -28.464700
H -17.351500 -20.278100 -26.344000
