48
Fragment
H -23.346100 -14.571200 -20.523300
C -22.890900 -15.319200 -20.209600
H -22.778000 -14.722300 -18.296700
H -22.771300 -16.248100 -21.969800
C -22.563200 -15.415800 -18.877900
C -22.549300 -16.321000 -21.069000
C -21.916500 -16.538800 -18.397300
C -21.877200 -17.444300 -20.619100
H -21.751500 -20.331600 -21.963800
H -21.706700 -16.600200 -17.493000
O -21.584900 -20.935500 -22.491800
C -21.573900 -17.581500 -19.262600
N -21.486000 -18.482700 -21.521100
N -20.901100 -18.775300 -18.873200
H -20.896100 -18.410900 -16.999300
O -20.884900 -22.630900 -24.375100
C -20.862000 -18.143200 -22.591200
C -20.851300 -20.444900 -23.525200
H -20.819000 -23.276100 -26.250100
H -20.817200 -24.436300 -25.196600
C -20.644100 -19.024800 -17.650400
H -20.641200 -17.247400 -22.714300
C -20.488500 -19.098600 -23.612800
C -20.474700 -23.563800 -25.401400
C -20.462100 -21.343900 -24.542000
H -20.307300 -20.400900 -19.608300
C -19.966700 -20.248500 -17.247900
O -19.908400 -21.105300 -19.479200
H -19.880200 -19.781700 -15.248600
C -19.706400 -18.654500 -24.688800
C -19.697300 -20.905500 -25.597900
C -19.663600 -20.434200 -15.876000
C -19.636000 -21.230400 -18.172400
H -19.516300 -23.595700 -25.439200
H -19.446800 -17.763800 -24.746800
H -19.428600 -21.498100 -26.261900
C -19.328200 -19.558500 -25.659400
C -19.047300 -21.586700 -15.496000
C -19.000100 -22.400400 -17.725000
O -18.722700 -23.318800 -18.711000
C -18.684000 -22.573200 -16.398000
Br -18.617200 -21.852600 -13.654400
H -18.573800 -24.976500 -17.655100
H -18.235200 -23.334700 -16.111600
Br -18.225700 -18.979800 -27.093400
C -18.043600 -24.511800 -18.306200
H -17.907200 -25.077200 -19.070800
H -17.193800 -24.281700 -17.922600
48
Fragment
H -18.471300 -19.921800 -32.360400
C -18.016100 -20.669800 -32.046700
H -17.903200 -20.073000 -30.133900
H -17.896500 -21.598700 -33.806900
C -17.688400 -20.766400 -30.715100
C -17.674500 -21.671600 -32.906100
C -17.041700 -21.889400 -30.234500
C -17.002400 -22.795000 -32.456300
H -16.876700 -25.682200 -33.801000
H -16.831900 -21.950800 -29.330100
O -16.710100 -26.286100 -34.328900
C -16.699100 -22.932100 -31.099800
N -16.611200 -23.833300 -33.358300
N -16.026300 -24.125900 -30.710300
H -16.021400 -23.761500 -28.836500
O -16.010100 -27.981500 -36.212200
C -15.987200 -23.493800 -34.428400
C -15.976500 -25.795600 -35.362300
H -15.944200 -28.626700 -38.087200
H -15.942500 -29.786900 -37.033700
C -15.769300 -24.375400 -29.487500
H -15.766400 -22.598000 -34.551500
C -15.613700 -24.449200 -35.449900
C -15.599900 -28.914400 -37.238500
C -15.587300 -26.694500 -36.379100
H -15.432600 -25.751500 -31.445400
C -15.091900 -25.599100 -29.085100
O -15.033600 -26.455900 -31.316400
H -15.005400 -25.132300 -27.085800
C -14.831600 -24.005100 -36.525900
C -14.822500 -26.256100 -37.435000
C -14.788800 -25.784800 -27.713200
C -14.761200 -26.581000 -30.009600
H -14.641500 -28.946300 -37.276400
H -14.572000 -23.114400 -36.583900
H -14.553800 -26.848700 -38.099100
C -14.453500 -24.909100 -37.496600
C -14.172600 -26.937300 -27.333200
C -14.125300 -27.751100 -29.562100
O -13.847900 -28.669400 -30.548200
C -13.809200 -27.923800 -28.235200
Br -13.742400 -27.203200 -25.491600
H -13.699000 -30.327100 -29.492300
H -13.360400 -28.685300 -27.948700
Br -13.350900 -24.330500 -38.930500
C -13.168800 -29.862500 -30.143300
H -13.032400 -30.427800 -30.908000
H -12.319000 -29.632300 -29.759800
96
Fragment
H -23.346100 -14.571200 -20.523300
C -22.890900 -15.319200 -20.209600
H -22.778000 -14.722300 -18.296700
H -22.771300 -16.248100 -21.969800
C -22.563200 -15.415800 -18.877900
C -22.549300 -16.321000 -21.069000
C -21.916500 -16.538800 -18.397300
C -21.877200 -17.444300 -20.619100
H -21.751500 -20.331600 -21.963800
H -21.706700 -16.600200 -17.493000
O -21.584900 -20.935500 -22.491800
C -21.573900 -17.581500 -19.262600
N -21.486000 -18.482700 -21.521100
N -20.901100 -18.775300 -18.873200
H -20.896100 -18.410900 -16.999300
O -20.884900 -22.630900 -24.375100
C -20.862000 -18.143200 -22.591200
C -20.851300 -20.444900 -23.525200
H -20.819000 -23.276100 -26.250100
H -20.817200 -24.436300 -25.196600
C -20.644100 -19.024800 -17.650400
H -20.641200 -17.247400 -22.714300
C -20.488500 -19.098600 -23.612800
C -20.474700 -23.563800 -25.401400
C -20.462100 -21.343900 -24.542000
H -20.307300 -20.400900 -19.608300
C -19.966700 -20.248500 -17.247900
O -19.908400 -21.105300 -19.479200
H -19.880200 -19.781700 -15.248600
C -19.706400 -18.654500 -24.688800
C -19.697300 -20.905500 -25.597900
C -19.663600 -20.434200 -15.876000
C -19.636000 -21.230400 -18.172400
H -19.516300 -23.595700 -25.439200
H -19.446800 -17.763800 -24.746800
H -19.428600 -21.498100 -26.261900
C -19.328200 -19.558500 -25.659400
C -19.047300 -21.586700 -15.496000
C -19.000100 -22.400400 -17.725000
O -18.722700 -23.318800 -18.711000
C -18.684000 -22.573200 -16.398000
Br -18.617200 -21.852600 -13.654400
H -18.573800 -24.976500 -17.655100
H -18.235200 -23.334700 -16.111600
Br -18.225700 -18.979800 -27.093400
C -18.043600 -24.511800 -18.306200
H -17.907200 -25.077200 -19.070800
H -17.193800 -24.281700 -17.922600
H -18.471300 -19.921800 -32.360400
C -18.016100 -20.669800 -32.046700
H -17.903200 -20.073000 -30.133900
H -17.896500 -21.598700 -33.806900
C -17.688400 -20.766400 -30.715100
C -17.674500 -21.671600 -32.906100
C -17.041700 -21.889400 -30.234500
C -17.002400 -22.795000 -32.456300
H -16.876700 -25.682200 -33.801000
H -16.831900 -21.950800 -29.330100
O -16.710100 -26.286100 -34.328900
C -16.699100 -22.932100 -31.099800
N -16.611200 -23.833300 -33.358300
N -16.026300 -24.125900 -30.710300
H -16.021400 -23.761500 -28.836500
O -16.010100 -27.981500 -36.212200
C -15.987200 -23.493800 -34.428400
C -15.976500 -25.795600 -35.362300
H -15.944200 -28.626700 -38.087200
H -15.942500 -29.786900 -37.033700
C -15.769300 -24.375400 -29.487500
H -15.766400 -22.598000 -34.551500
C -15.613700 -24.449200 -35.449900
C -15.599900 -28.914400 -37.238500
C -15.587300 -26.694500 -36.379100
H -15.432600 -25.751500 -31.445400
C -15.091900 -25.599100 -29.085100
O -15.033600 -26.455900 -31.316400
H -15.005400 -25.132300 -27.085800
C -14.831600 -24.005100 -36.525900
C -14.822500 -26.256100 -37.435000
C -14.788800 -25.784800 -27.713200
C -14.761200 -26.581000 -30.009600
H -14.641500 -28.946300 -37.276400
H -14.572000 -23.114400 -36.583900
H -14.553800 -26.848700 -38.099100
C -14.453500 -24.909100 -37.496600
C -14.172600 -26.937300 -27.333200
C -14.125300 -27.751100 -29.562100
O -13.847900 -28.669400 -30.548200
C -13.809200 -27.923800 -28.235200
Br -13.742400 -27.203200 -25.491600
H -13.699000 -30.327100 -29.492300
H -13.360400 -28.685300 -27.948700
Br -13.350900 -24.330500 -38.930500
C -13.168800 -29.862500 -30.143300
H -13.032400 -30.427800 -30.908000
H -12.319000 -29.632300 -29.759800
