48
Fragment
H -23.346100 -14.571200 -20.523300
C -22.890900 -15.319200 -20.209600
H -22.778000 -14.722300 -18.296700
H -22.771300 -16.248100 -21.969800
C -22.563200 -15.415800 -18.877900
C -22.549300 -16.321000 -21.069000
C -21.916500 -16.538800 -18.397300
C -21.877200 -17.444300 -20.619100
H -21.751500 -20.331600 -21.963800
H -21.706700 -16.600200 -17.493000
O -21.584900 -20.935500 -22.491800
C -21.573900 -17.581500 -19.262600
N -21.486000 -18.482700 -21.521100
N -20.901100 -18.775300 -18.873200
H -20.896100 -18.410900 -16.999300
O -20.884900 -22.630900 -24.375100
C -20.862000 -18.143200 -22.591200
C -20.851300 -20.444900 -23.525200
H -20.819000 -23.276100 -26.250100
H -20.817200 -24.436300 -25.196600
C -20.644100 -19.024800 -17.650400
H -20.641200 -17.247400 -22.714300
C -20.488500 -19.098600 -23.612800
C -20.474700 -23.563800 -25.401400
C -20.462100 -21.343900 -24.542000
H -20.307300 -20.400900 -19.608300
C -19.966700 -20.248500 -17.247900
O -19.908400 -21.105300 -19.479200
H -19.880200 -19.781700 -15.248600
C -19.706400 -18.654500 -24.688800
C -19.697300 -20.905500 -25.597900
C -19.663600 -20.434200 -15.876000
C -19.636000 -21.230400 -18.172400
H -19.516300 -23.595700 -25.439200
H -19.446800 -17.763800 -24.746800
H -19.428600 -21.498100 -26.261900
C -19.328200 -19.558500 -25.659400
C -19.047300 -21.586700 -15.496000
C -19.000100 -22.400400 -17.725000
O -18.722700 -23.318800 -18.711000
C -18.684000 -22.573200 -16.398000
Br -18.617200 -21.852600 -13.654400
H -18.573800 -24.976500 -17.655100
H -18.235200 -23.334700 -16.111600
Br -18.225700 -18.979800 -27.093400
C -18.043600 -24.511800 -18.306200
H -17.907200 -25.077200 -19.070800
H -17.193800 -24.281700 -17.922600
48
Fragment
H -29.801400 -2.230100 -20.523300
C -29.346200 -2.978100 -20.209600
H -29.233300 -2.381300 -18.296700
H -29.226500 -3.907100 -21.969800
C -29.018400 -3.074700 -18.877900
C -29.004500 -3.980000 -21.069000
C -28.371800 -4.197700 -18.397300
C -28.332500 -5.103300 -20.619100
H -28.206800 -7.990500 -21.963800
H -28.162000 -4.259100 -17.493000
O -28.040200 -8.594400 -22.491800
C -28.029100 -5.240400 -19.262600
N -27.941300 -6.141600 -21.521100
N -27.356400 -6.434300 -18.873200
H -27.351400 -6.069800 -16.999300
O -27.340200 -10.289900 -24.375100
C -27.317300 -5.802200 -22.591200
C -27.306500 -8.103900 -23.525200
H -27.274200 -10.935000 -26.250100
H -27.272500 -12.095200 -25.196600
C -27.099300 -6.683700 -17.650400
H -27.096500 -4.906300 -22.714300
C -26.943700 -6.757600 -23.612800
C -26.930000 -11.222700 -25.401400
C -26.917300 -9.002800 -24.542000
H -26.762600 -8.059900 -19.608300
C -26.421900 -7.907400 -17.247900
O -26.363700 -8.764200 -19.479200
H -26.335500 -7.440600 -15.248600
C -26.161700 -6.313400 -24.688800
C -26.152500 -8.564400 -25.597900
C -26.118900 -8.093200 -15.876000
C -26.091200 -8.889300 -18.172400
H -25.971500 -11.254600 -25.439200
H -25.902000 -5.422700 -24.746800
H -25.883900 -9.157100 -26.261900
C -25.783500 -7.217400 -25.659400
C -25.502600 -9.245600 -15.496000
C -25.455300 -10.059400 -17.725000
O -25.178000 -10.977800 -18.711000
C -25.139300 -10.232100 -16.398000
Br -25.072500 -9.511500 -13.654400
H -25.029000 -12.635500 -17.655100
H -24.690500 -10.993700 -16.111600
Br -24.680900 -6.638800 -27.093400
C -24.498800 -12.170800 -18.306200
H -24.362500 -12.736100 -19.070800
H -23.649100 -11.940700 -17.922600
96
Fragment
H -23.346100 -14.571200 -20.523300
C -22.890900 -15.319200 -20.209600
H -22.778000 -14.722300 -18.296700
H -22.771300 -16.248100 -21.969800
C -22.563200 -15.415800 -18.877900
C -22.549300 -16.321000 -21.069000
C -21.916500 -16.538800 -18.397300
C -21.877200 -17.444300 -20.619100
H -21.751500 -20.331600 -21.963800
H -21.706700 -16.600200 -17.493000
O -21.584900 -20.935500 -22.491800
C -21.573900 -17.581500 -19.262600
N -21.486000 -18.482700 -21.521100
N -20.901100 -18.775300 -18.873200
H -20.896100 -18.410900 -16.999300
O -20.884900 -22.630900 -24.375100
C -20.862000 -18.143200 -22.591200
C -20.851300 -20.444900 -23.525200
H -20.819000 -23.276100 -26.250100
H -20.817200 -24.436300 -25.196600
C -20.644100 -19.024800 -17.650400
H -20.641200 -17.247400 -22.714300
C -20.488500 -19.098600 -23.612800
C -20.474700 -23.563800 -25.401400
C -20.462100 -21.343900 -24.542000
H -20.307300 -20.400900 -19.608300
C -19.966700 -20.248500 -17.247900
O -19.908400 -21.105300 -19.479200
H -19.880200 -19.781700 -15.248600
C -19.706400 -18.654500 -24.688800
C -19.697300 -20.905500 -25.597900
C -19.663600 -20.434200 -15.876000
C -19.636000 -21.230400 -18.172400
H -19.516300 -23.595700 -25.439200
H -19.446800 -17.763800 -24.746800
H -19.428600 -21.498100 -26.261900
C -19.328200 -19.558500 -25.659400
C -19.047300 -21.586700 -15.496000
C -19.000100 -22.400400 -17.725000
O -18.722700 -23.318800 -18.711000
C -18.684000 -22.573200 -16.398000
Br -18.617200 -21.852600 -13.654400
H -18.573800 -24.976500 -17.655100
H -18.235200 -23.334700 -16.111600
Br -18.225700 -18.979800 -27.093400
C -18.043600 -24.511800 -18.306200
H -17.907200 -25.077200 -19.070800
H -17.193800 -24.281700 -17.922600
H -29.801400 -2.230100 -20.523300
C -29.346200 -2.978100 -20.209600
H -29.233300 -2.381300 -18.296700
H -29.226500 -3.907100 -21.969800
C -29.018400 -3.074700 -18.877900
C -29.004500 -3.980000 -21.069000
C -28.371800 -4.197700 -18.397300
C -28.332500 -5.103300 -20.619100
H -28.206800 -7.990500 -21.963800
H -28.162000 -4.259100 -17.493000
O -28.040200 -8.594400 -22.491800
C -28.029100 -5.240400 -19.262600
N -27.941300 -6.141600 -21.521100
N -27.356400 -6.434300 -18.873200
H -27.351400 -6.069800 -16.999300
O -27.340200 -10.289900 -24.375100
C -27.317300 -5.802200 -22.591200
C -27.306500 -8.103900 -23.525200
H -27.274200 -10.935000 -26.250100
H -27.272500 -12.095200 -25.196600
C -27.099300 -6.683700 -17.650400
H -27.096500 -4.906300 -22.714300
C -26.943700 -6.757600 -23.612800
C -26.930000 -11.222700 -25.401400
C -26.917300 -9.002800 -24.542000
H -26.762600 -8.059900 -19.608300
C -26.421900 -7.907400 -17.247900
O -26.363700 -8.764200 -19.479200
H -26.335500 -7.440600 -15.248600
C -26.161700 -6.313400 -24.688800
C -26.152500 -8.564400 -25.597900
C -26.118900 -8.093200 -15.876000
C -26.091200 -8.889300 -18.172400
H -25.971500 -11.254600 -25.439200
H -25.902000 -5.422700 -24.746800
H -25.883900 -9.157100 -26.261900
C -25.783500 -7.217400 -25.659400
C -25.502600 -9.245600 -15.496000
C -25.455300 -10.059400 -17.725000
O -25.178000 -10.977800 -18.711000
C -25.139300 -10.232100 -16.398000
Br -25.072500 -9.511500 -13.654400
H -25.029000 -12.635500 -17.655100
H -24.690500 -10.993700 -16.111600
Br -24.680900 -6.638800 -27.093400
C -24.498800 -12.170800 -18.306200
H -24.362500 -12.736100 -19.070800
H -23.649100 -11.940700 -17.922600
