48
Fragment
H -23.346100 -14.571200 -20.523300
C -22.890900 -15.319200 -20.209600
H -22.778000 -14.722300 -18.296700
H -22.771300 -16.248100 -21.969800
C -22.563200 -15.415800 -18.877900
C -22.549300 -16.321000 -21.069000
C -21.916500 -16.538800 -18.397300
C -21.877200 -17.444300 -20.619100
H -21.751500 -20.331600 -21.963800
H -21.706700 -16.600200 -17.493000
O -21.584900 -20.935500 -22.491800
C -21.573900 -17.581500 -19.262600
N -21.486000 -18.482700 -21.521100
N -20.901100 -18.775300 -18.873200
H -20.896100 -18.410900 -16.999300
O -20.884900 -22.630900 -24.375100
C -20.862000 -18.143200 -22.591200
C -20.851300 -20.444900 -23.525200
H -20.819000 -23.276100 -26.250100
H -20.817200 -24.436300 -25.196600
C -20.644100 -19.024800 -17.650400
H -20.641200 -17.247400 -22.714300
C -20.488500 -19.098600 -23.612800
C -20.474700 -23.563800 -25.401400
C -20.462100 -21.343900 -24.542000
H -20.307300 -20.400900 -19.608300
C -19.966700 -20.248500 -17.247900
O -19.908400 -21.105300 -19.479200
H -19.880200 -19.781700 -15.248600
C -19.706400 -18.654500 -24.688800
C -19.697300 -20.905500 -25.597900
C -19.663600 -20.434200 -15.876000
C -19.636000 -21.230400 -18.172400
H -19.516300 -23.595700 -25.439200
H -19.446800 -17.763800 -24.746800
H -19.428600 -21.498100 -26.261900
C -19.328200 -19.558500 -25.659400
C -19.047300 -21.586700 -15.496000
C -19.000100 -22.400400 -17.725000
O -18.722700 -23.318800 -18.711000
C -18.684000 -22.573200 -16.398000
Br -18.617200 -21.852600 -13.654400
H -18.573800 -24.976500 -17.655100
H -18.235200 -23.334700 -16.111600
Br -18.225700 -18.979800 -27.093400
C -18.043600 -24.511800 -18.306200
H -17.907200 -25.077200 -19.070800
H -17.193800 -24.281700 -17.922600
48
Fragment
H -21.777300 -21.802800 -29.426000
H -21.063900 -21.007400 -28.277800
C -20.927600 -21.572700 -29.042500
Br -20.745500 -27.104700 -20.255300
H -20.735900 -22.749800 -31.237100
H -20.397400 -21.108000 -29.693500
Br -20.353900 -24.232000 -33.694200
C -20.287100 -23.511400 -30.950600
O -20.248400 -22.765700 -28.637600
C -19.971100 -23.684100 -29.623700
C -19.923800 -24.497900 -31.852600
C -19.642900 -26.526100 -21.689200
H -19.542500 -24.586400 -21.086700
H -19.524400 -28.320800 -22.601900
H -19.454900 -22.488900 -21.909400
C -19.335200 -24.854200 -29.176200
C -19.307500 -25.650300 -31.472600
C -19.273900 -25.179100 -21.750800
C -19.264700 -27.430100 -22.659900
H -19.090900 -26.302900 -32.100000
O -19.062700 -24.979300 -27.869400
C -19.004500 -25.836100 -30.100700
H -18.663800 -25.683600 -27.740400
C -18.509100 -24.740700 -22.806700
C -18.496400 -22.520800 -21.947300
C -18.482700 -26.985900 -23.735900
H -18.329900 -28.837200 -24.634300
C -18.327100 -27.059800 -29.698200
H -18.153900 -21.648300 -22.152100
H -18.152100 -22.808500 -21.098600
C -18.119900 -25.639600 -23.823500
C -18.109100 -27.941300 -24.757400
O -18.086200 -23.453600 -22.973600
H -18.075000 -27.673700 -30.349300
N -18.070000 -27.309200 -28.475500
N -17.485100 -27.601900 -25.827500
C -17.397300 -28.503100 -28.086000
O -17.386200 -25.149100 -24.856900
H -17.264400 -29.484400 -29.855700
H -17.219600 -25.753000 -25.384800
C -17.093900 -28.640200 -26.729500
C -17.054600 -29.545800 -28.951300
C -16.421900 -29.763500 -26.279700
C -16.407900 -30.668800 -28.470700
H -16.199900 -29.836400 -25.378900
H -16.193100 -31.362200 -29.051900
C -16.080200 -30.765400 -27.139100
H -15.625000 -31.513400 -26.825400
96
Fragment
H -23.346100 -14.571200 -20.523300
C -22.890900 -15.319200 -20.209600
H -22.778000 -14.722300 -18.296700
H -22.771300 -16.248100 -21.969800
C -22.563200 -15.415800 -18.877900
C -22.549300 -16.321000 -21.069000
C -21.916500 -16.538800 -18.397300
C -21.877200 -17.444300 -20.619100
H -21.751500 -20.331600 -21.963800
H -21.706700 -16.600200 -17.493000
O -21.584900 -20.935500 -22.491800
C -21.573900 -17.581500 -19.262600
N -21.486000 -18.482700 -21.521100
N -20.901100 -18.775300 -18.873200
H -20.896100 -18.410900 -16.999300
O -20.884900 -22.630900 -24.375100
C -20.862000 -18.143200 -22.591200
C -20.851300 -20.444900 -23.525200
H -20.819000 -23.276100 -26.250100
H -20.817200 -24.436300 -25.196600
C -20.644100 -19.024800 -17.650400
H -20.641200 -17.247400 -22.714300
C -20.488500 -19.098600 -23.612800
C -20.474700 -23.563800 -25.401400
C -20.462100 -21.343900 -24.542000
H -20.307300 -20.400900 -19.608300
C -19.966700 -20.248500 -17.247900
O -19.908400 -21.105300 -19.479200
H -19.880200 -19.781700 -15.248600
C -19.706400 -18.654500 -24.688800
C -19.697300 -20.905500 -25.597900
C -19.663600 -20.434200 -15.876000
C -19.636000 -21.230400 -18.172400
H -19.516300 -23.595700 -25.439200
H -19.446800 -17.763800 -24.746800
H -19.428600 -21.498100 -26.261900
C -19.328200 -19.558500 -25.659400
C -19.047300 -21.586700 -15.496000
C -19.000100 -22.400400 -17.725000
O -18.722700 -23.318800 -18.711000
C -18.684000 -22.573200 -16.398000
Br -18.617200 -21.852600 -13.654400
H -18.573800 -24.976500 -17.655100
H -18.235200 -23.334700 -16.111600
Br -18.225700 -18.979800 -27.093400
C -18.043600 -24.511800 -18.306200
H -17.907200 -25.077200 -19.070800
H -17.193800 -24.281700 -17.922600
H -21.777300 -21.802800 -29.426000
H -21.063900 -21.007400 -28.277800
C -20.927600 -21.572700 -29.042500
Br -20.745500 -27.104700 -20.255300
H -20.735900 -22.749800 -31.237100
H -20.397400 -21.108000 -29.693500
Br -20.353900 -24.232000 -33.694200
C -20.287100 -23.511400 -30.950600
O -20.248400 -22.765700 -28.637600
C -19.971100 -23.684100 -29.623700
C -19.923800 -24.497900 -31.852600
C -19.642900 -26.526100 -21.689200
H -19.542500 -24.586400 -21.086700
H -19.524400 -28.320800 -22.601900
H -19.454900 -22.488900 -21.909400
C -19.335200 -24.854200 -29.176200
C -19.307500 -25.650300 -31.472600
C -19.273900 -25.179100 -21.750800
C -19.264700 -27.430100 -22.659900
H -19.090900 -26.302900 -32.100000
O -19.062700 -24.979300 -27.869400
C -19.004500 -25.836100 -30.100700
H -18.663800 -25.683600 -27.740400
C -18.509100 -24.740700 -22.806700
C -18.496400 -22.520800 -21.947300
C -18.482700 -26.985900 -23.735900
H -18.329900 -28.837200 -24.634300
C -18.327100 -27.059800 -29.698200
H -18.153900 -21.648300 -22.152100
H -18.152100 -22.808500 -21.098600
C -18.119900 -25.639600 -23.823500
C -18.109100 -27.941300 -24.757400
O -18.086200 -23.453600 -22.973600
H -18.075000 -27.673700 -30.349300
N -18.070000 -27.309200 -28.475500
N -17.485100 -27.601900 -25.827500
C -17.397300 -28.503100 -28.086000
O -17.386200 -25.149100 -24.856900
H -17.264400 -29.484400 -29.855700
H -17.219600 -25.753000 -25.384800
C -17.093900 -28.640200 -26.729500
C -17.054600 -29.545800 -28.951300
C -16.421900 -29.763500 -26.279700
C -16.407900 -30.668800 -28.470700
H -16.199900 -29.836400 -25.378900
H -16.193100 -31.362200 -29.051900
C -16.080200 -30.765400 -27.139100
H -15.625000 -31.513400 -26.825400
