48
Fragment
H -23.346100 -14.571200 -20.523300
C -22.890900 -15.319200 -20.209600
H -22.778000 -14.722300 -18.296700
H -22.771300 -16.248100 -21.969800
C -22.563200 -15.415800 -18.877900
C -22.549300 -16.321000 -21.069000
C -21.916500 -16.538800 -18.397300
C -21.877200 -17.444300 -20.619100
H -21.751500 -20.331600 -21.963800
H -21.706700 -16.600200 -17.493000
O -21.584900 -20.935500 -22.491800
C -21.573900 -17.581500 -19.262600
N -21.486000 -18.482700 -21.521100
N -20.901100 -18.775300 -18.873200
H -20.896100 -18.410900 -16.999300
O -20.884900 -22.630900 -24.375100
C -20.862000 -18.143200 -22.591200
C -20.851300 -20.444900 -23.525200
H -20.819000 -23.276100 -26.250100
H -20.817200 -24.436300 -25.196600
C -20.644100 -19.024800 -17.650400
H -20.641200 -17.247400 -22.714300
C -20.488500 -19.098600 -23.612800
C -20.474700 -23.563800 -25.401400
C -20.462100 -21.343900 -24.542000
H -20.307300 -20.400900 -19.608300
C -19.966700 -20.248500 -17.247900
O -19.908400 -21.105300 -19.479200
H -19.880200 -19.781700 -15.248600
C -19.706400 -18.654500 -24.688800
C -19.697300 -20.905500 -25.597900
C -19.663600 -20.434200 -15.876000
C -19.636000 -21.230400 -18.172400
H -19.516300 -23.595700 -25.439200
H -19.446800 -17.763800 -24.746800
H -19.428600 -21.498100 -26.261900
C -19.328200 -19.558500 -25.659400
C -19.047300 -21.586700 -15.496000
C -19.000100 -22.400400 -17.725000
O -18.722700 -23.318800 -18.711000
C -18.684000 -22.573200 -16.398000
Br -18.617200 -21.852600 -13.654400
H -18.573800 -24.976500 -17.655100
H -18.235200 -23.334700 -16.111600
Br -18.225700 -18.979800 -27.093400
C -18.043600 -24.511800 -18.306200
H -17.907200 -25.077200 -19.070800
H -17.193800 -24.281700 -17.922600
48
Fragment
H -20.301400 -9.461800 -29.426000
H -19.588000 -8.666300 -28.277800
C -19.451600 -9.231700 -29.042500
Br -19.269500 -14.763600 -20.255300
H -19.260000 -10.408800 -31.237100
H -18.921400 -8.767000 -29.693500
Br -18.878000 -11.890900 -33.694200
C -18.811200 -11.170300 -30.950600
O -18.772500 -10.424700 -28.637600
C -18.495100 -11.343100 -29.623700
C -18.447900 -12.156800 -31.852600
C -18.167000 -14.185000 -21.689200
H -18.066600 -12.245400 -21.086700
H -18.048400 -15.979700 -22.601900
H -17.978900 -10.147800 -21.909400
C -17.859200 -12.513100 -29.176200
C -17.831600 -13.309300 -31.472600
C -17.797900 -12.838000 -21.750800
C -17.788800 -15.089000 -22.659900
H -17.615000 -13.961800 -32.100000
O -17.586800 -12.638200 -27.869400
C -17.528500 -13.495000 -30.100700
H -17.187900 -13.342600 -27.740400
C -17.033100 -12.399600 -22.806700
C -17.020500 -10.179700 -21.947300
C -17.006700 -14.644900 -23.735900
H -16.854000 -16.496100 -24.634300
C -16.851100 -14.718700 -29.698200
H -16.678000 -9.307200 -22.152100
H -16.676200 -10.467400 -21.098600
C -16.643900 -13.298600 -23.823500
C -16.633200 -15.600300 -24.757400
O -16.610300 -11.112600 -22.973600
H -16.599100 -15.332600 -30.349300
N -16.594100 -14.968200 -28.475500
N -16.009200 -15.260800 -25.827500
C -15.921300 -16.162000 -28.086000
O -15.910300 -12.808000 -24.856900
H -15.788500 -17.143300 -29.855700
H -15.743700 -13.411900 -25.384800
C -15.618000 -16.299200 -26.729500
C -15.578700 -17.204700 -28.951300
C -14.945900 -17.422500 -26.279700
C -14.932000 -18.327700 -28.470700
H -14.723900 -17.495400 -25.378900
H -14.717200 -19.021200 -29.051900
C -14.604300 -18.424300 -27.139100
H -14.149100 -19.172300 -26.825400
96
Fragment
H -23.346100 -14.571200 -20.523300
C -22.890900 -15.319200 -20.209600
H -22.778000 -14.722300 -18.296700
H -22.771300 -16.248100 -21.969800
C -22.563200 -15.415800 -18.877900
C -22.549300 -16.321000 -21.069000
C -21.916500 -16.538800 -18.397300
C -21.877200 -17.444300 -20.619100
H -21.751500 -20.331600 -21.963800
H -21.706700 -16.600200 -17.493000
O -21.584900 -20.935500 -22.491800
C -21.573900 -17.581500 -19.262600
N -21.486000 -18.482700 -21.521100
N -20.901100 -18.775300 -18.873200
H -20.896100 -18.410900 -16.999300
O -20.884900 -22.630900 -24.375100
C -20.862000 -18.143200 -22.591200
C -20.851300 -20.444900 -23.525200
H -20.819000 -23.276100 -26.250100
H -20.817200 -24.436300 -25.196600
C -20.644100 -19.024800 -17.650400
H -20.641200 -17.247400 -22.714300
C -20.488500 -19.098600 -23.612800
C -20.474700 -23.563800 -25.401400
C -20.462100 -21.343900 -24.542000
H -20.307300 -20.400900 -19.608300
C -19.966700 -20.248500 -17.247900
O -19.908400 -21.105300 -19.479200
H -19.880200 -19.781700 -15.248600
C -19.706400 -18.654500 -24.688800
C -19.697300 -20.905500 -25.597900
C -19.663600 -20.434200 -15.876000
C -19.636000 -21.230400 -18.172400
H -19.516300 -23.595700 -25.439200
H -19.446800 -17.763800 -24.746800
H -19.428600 -21.498100 -26.261900
C -19.328200 -19.558500 -25.659400
C -19.047300 -21.586700 -15.496000
C -19.000100 -22.400400 -17.725000
O -18.722700 -23.318800 -18.711000
C -18.684000 -22.573200 -16.398000
Br -18.617200 -21.852600 -13.654400
H -18.573800 -24.976500 -17.655100
H -18.235200 -23.334700 -16.111600
Br -18.225700 -18.979800 -27.093400
C -18.043600 -24.511800 -18.306200
H -17.907200 -25.077200 -19.070800
H -17.193800 -24.281700 -17.922600
H -20.301400 -9.461800 -29.426000
H -19.588000 -8.666300 -28.277800
C -19.451600 -9.231700 -29.042500
Br -19.269500 -14.763600 -20.255300
H -19.260000 -10.408800 -31.237100
H -18.921400 -8.767000 -29.693500
Br -18.878000 -11.890900 -33.694200
C -18.811200 -11.170300 -30.950600
O -18.772500 -10.424700 -28.637600
C -18.495100 -11.343100 -29.623700
C -18.447900 -12.156800 -31.852600
C -18.167000 -14.185000 -21.689200
H -18.066600 -12.245400 -21.086700
H -18.048400 -15.979700 -22.601900
H -17.978900 -10.147800 -21.909400
C -17.859200 -12.513100 -29.176200
C -17.831600 -13.309300 -31.472600
C -17.797900 -12.838000 -21.750800
C -17.788800 -15.089000 -22.659900
H -17.615000 -13.961800 -32.100000
O -17.586800 -12.638200 -27.869400
C -17.528500 -13.495000 -30.100700
H -17.187900 -13.342600 -27.740400
C -17.033100 -12.399600 -22.806700
C -17.020500 -10.179700 -21.947300
C -17.006700 -14.644900 -23.735900
H -16.854000 -16.496100 -24.634300
C -16.851100 -14.718700 -29.698200
H -16.678000 -9.307200 -22.152100
H -16.676200 -10.467400 -21.098600
C -16.643900 -13.298600 -23.823500
C -16.633200 -15.600300 -24.757400
O -16.610300 -11.112600 -22.973600
H -16.599100 -15.332600 -30.349300
N -16.594100 -14.968200 -28.475500
N -16.009200 -15.260800 -25.827500
C -15.921300 -16.162000 -28.086000
O -15.910300 -12.808000 -24.856900
H -15.788500 -17.143300 -29.855700
H -15.743700 -13.411900 -25.384800
C -15.618000 -16.299200 -26.729500
C -15.578700 -17.204700 -28.951300
C -14.945900 -17.422500 -26.279700
C -14.932000 -18.327700 -28.470700
H -14.723900 -17.495400 -25.378900
H -14.717200 -19.021200 -29.051900
C -14.604300 -18.424300 -27.139100
H -14.149100 -19.172300 -26.825400
