17
Fragment
N -5.334400 -35.050500 -10.988800
O -5.321800 -39.540100 -8.652000
N -4.989700 -37.025100 -9.676100
C -4.671800 -35.761500 -10.105000
O -4.604100 -33.890200 -11.080300
C -4.374800 -38.860600 -8.293600
C -4.132300 -37.481600 -8.817200
H -3.581600 -40.096400 -7.029000
C -3.529800 -35.049900 -9.650900
N -3.483100 -33.877800 -10.248700
N -3.461100 -39.302800 -7.386000
C -2.960400 -36.739300 -8.342200
N -2.636900 -35.542000 -8.739100
C -2.370700 -38.602500 -6.902700
N -2.161500 -37.352200 -7.409500
O -1.633900 -39.090600 -6.061800
H -1.492700 -36.979300 -7.102800
17
Fragment
H -4.007100 -43.914500 -5.196400
O -3.865900 -41.803200 -6.237400
N -3.338300 -43.541600 -4.889700
C -3.129100 -42.291300 -5.396500
N -2.862900 -45.351800 -3.560100
C -2.539400 -44.154500 -3.957000
N -2.038700 -41.591000 -4.913200
N -2.016700 -47.016000 -2.050500
C -1.970000 -45.843900 -2.648300
H -1.918200 -40.797400 -5.270200
C -1.367500 -43.412200 -3.482000
C -1.125000 -42.033200 -4.005600
O -0.895700 -47.003600 -1.218800
C -0.828000 -45.132300 -2.194200
N -0.510100 -43.868700 -2.623100
O -0.178000 -41.353700 -3.647200
N -0.165400 -45.843300 -1.310400
34
Fragment
N -5.334400 -35.050500 -10.988800
O -5.321800 -39.540100 -8.652000
N -4.989700 -37.025100 -9.676100
C -4.671800 -35.761500 -10.105000
O -4.604100 -33.890200 -11.080300
C -4.374800 -38.860600 -8.293600
C -4.132300 -37.481600 -8.817200
H -3.581600 -40.096400 -7.029000
C -3.529800 -35.049900 -9.650900
N -3.483100 -33.877800 -10.248700
N -3.461100 -39.302800 -7.386000
C -2.960400 -36.739300 -8.342200
N -2.636900 -35.542000 -8.739100
C -2.370700 -38.602500 -6.902700
N -2.161500 -37.352200 -7.409500
O -1.633900 -39.090600 -6.061800
H -1.492700 -36.979300 -7.102800
H -4.007100 -43.914500 -5.196400
O -3.865900 -41.803200 -6.237400
N -3.338300 -43.541600 -4.889700
C -3.129100 -42.291300 -5.396500
N -2.862900 -45.351800 -3.560100
C -2.539400 -44.154500 -3.957000
N -2.038700 -41.591000 -4.913200
N -2.016700 -47.016000 -2.050500
C -1.970000 -45.843900 -2.648300
H -1.918200 -40.797400 -5.270200
C -1.367500 -43.412200 -3.482000
C -1.125000 -42.033200 -4.005600
O -0.895700 -47.003600 -1.218800
C -0.828000 -45.132300 -2.194200
N -0.510100 -43.868700 -2.623100
O -0.178000 -41.353700 -3.647200
N -0.165400 -45.843300 -1.310400
