18
Fragment
F -40.692100 -17.941200 -17.621200
H -40.478800 -19.709800 -15.821900
C -40.209100 -17.790600 -16.347600
C -40.176000 -18.879900 -15.533700
H -39.811800 -15.842200 -16.570200
C -39.767600 -16.555700 -15.975400
C -39.676700 -18.701100 -14.268600
H -39.649100 -19.418600 -13.678300
H -39.480800 -14.376300 -14.346200
C -39.256500 -16.375400 -14.709100
C -39.218500 -17.471800 -13.869100
H -38.872800 -17.372900 -13.011500
C -38.749400 -15.010000 -14.288800
H -38.473000 -15.054300 -13.360300
C -37.600300 -14.492600 -15.108500
O -37.516500 -13.206800 -15.141700
H -36.877000 -12.973700 -15.634100
O -36.822500 -15.236200 -15.688000
18
Fragment
O -45.475700 -11.280800 -19.094200
H -45.421200 -9.018300 -19.148100
O -44.781700 -9.251400 -19.640500
C -44.697900 -10.537200 -19.673700
H -43.825200 -11.098900 -21.421800
C -43.548800 -11.054600 -20.493400
H -43.425400 -13.417500 -21.770700
C -43.079700 -13.516400 -20.913000
C -43.041700 -12.420000 -20.073100
H -42.817400 -10.420900 -20.436000
H -42.649100 -15.463200 -21.103800
C -42.621500 -14.745700 -20.513500
C -42.530700 -12.600300 -18.806800
H -42.486400 -11.886800 -18.211900
C -42.122200 -14.924500 -19.248500
C -42.089100 -13.835200 -18.434600
H -41.819400 -15.754400 -18.960300
F -41.606100 -13.985800 -17.160900
36
Fragment
F -40.692100 -17.941200 -17.621200
H -40.478800 -19.709800 -15.821900
C -40.209100 -17.790600 -16.347600
C -40.176000 -18.879900 -15.533700
H -39.811800 -15.842200 -16.570200
C -39.767600 -16.555700 -15.975400
C -39.676700 -18.701100 -14.268600
H -39.649100 -19.418600 -13.678300
H -39.480800 -14.376300 -14.346200
C -39.256500 -16.375400 -14.709100
C -39.218500 -17.471800 -13.869100
H -38.872800 -17.372900 -13.011500
C -38.749400 -15.010000 -14.288800
H -38.473000 -15.054300 -13.360300
C -37.600300 -14.492600 -15.108500
O -37.516500 -13.206800 -15.141700
H -36.877000 -12.973700 -15.634100
O -36.822500 -15.236200 -15.688000
O -45.475700 -11.280800 -19.094200
H -45.421200 -9.018300 -19.148100
O -44.781700 -9.251400 -19.640500
C -44.697900 -10.537200 -19.673700
H -43.825200 -11.098900 -21.421800
C -43.548800 -11.054600 -20.493400
H -43.425400 -13.417500 -21.770700
C -43.079700 -13.516400 -20.913000
C -43.041700 -12.420000 -20.073100
H -42.817400 -10.420900 -20.436000
H -42.649100 -15.463200 -21.103800
C -42.621500 -14.745700 -20.513500
C -42.530700 -12.600300 -18.806800
H -42.486400 -11.886800 -18.211900
C -42.122200 -14.924500 -19.248500
C -42.089100 -13.835200 -18.434600
H -41.819400 -15.754400 -18.960300
F -41.606100 -13.985800 -17.160900
