18
Fragment
F -40.692100 -17.941200 -17.621200
H -40.478800 -19.709800 -15.821900
C -40.209100 -17.790600 -16.347600
C -40.176000 -18.879900 -15.533700
H -39.811800 -15.842200 -16.570200
C -39.767600 -16.555700 -15.975400
C -39.676700 -18.701100 -14.268600
H -39.649100 -19.418600 -13.678300
H -39.480800 -14.376300 -14.346200
C -39.256500 -16.375400 -14.709100
C -39.218500 -17.471800 -13.869100
H -38.872800 -17.372900 -13.011500
C -38.749400 -15.010000 -14.288800
H -38.473000 -15.054300 -13.360300
C -37.600300 -14.492600 -15.108500
O -37.516500 -13.206800 -15.141700
H -36.877000 -12.973700 -15.634100
O -36.822500 -15.236200 -15.688000
18
Fragment
F -39.686600 -13.702000 -22.590100
H -39.473300 -11.933400 -20.790800
C -39.203600 -13.852600 -21.316500
C -39.170500 -12.763300 -20.502600
H -38.806300 -15.801000 -21.539100
C -38.762000 -15.087500 -20.944200
C -38.671200 -12.942100 -19.237500
H -38.643600 -12.224600 -18.647200
H -38.475300 -17.266900 -19.315000
C -38.251000 -15.267800 -19.678000
C -38.213000 -14.171400 -18.838000
H -37.867300 -14.270300 -17.980400
C -37.743900 -16.633200 -19.257700
H -37.467500 -16.588900 -18.329200
C -36.594800 -17.150600 -20.077400
O -36.511000 -18.436400 -20.110600
H -35.871500 -18.669500 -20.603000
O -35.816900 -16.407000 -20.656800
36
Fragment
F -40.692100 -17.941200 -17.621200
H -40.478800 -19.709800 -15.821900
C -40.209100 -17.790600 -16.347600
C -40.176000 -18.879900 -15.533700
H -39.811800 -15.842200 -16.570200
C -39.767600 -16.555700 -15.975400
C -39.676700 -18.701100 -14.268600
H -39.649100 -19.418600 -13.678300
H -39.480800 -14.376300 -14.346200
C -39.256500 -16.375400 -14.709100
C -39.218500 -17.471800 -13.869100
H -38.872800 -17.372900 -13.011500
C -38.749400 -15.010000 -14.288800
H -38.473000 -15.054300 -13.360300
C -37.600300 -14.492600 -15.108500
O -37.516500 -13.206800 -15.141700
H -36.877000 -12.973700 -15.634100
O -36.822500 -15.236200 -15.688000
F -39.686600 -13.702000 -22.590100
H -39.473300 -11.933400 -20.790800
C -39.203600 -13.852600 -21.316500
C -39.170500 -12.763300 -20.502600
H -38.806300 -15.801000 -21.539100
C -38.762000 -15.087500 -20.944200
C -38.671200 -12.942100 -19.237500
H -38.643600 -12.224600 -18.647200
H -38.475300 -17.266900 -19.315000
C -38.251000 -15.267800 -19.678000
C -38.213000 -14.171400 -18.838000
H -37.867300 -14.270300 -17.980400
C -37.743900 -16.633200 -19.257700
H -37.467500 -16.588900 -18.329200
C -36.594800 -17.150600 -20.077400
O -36.511000 -18.436400 -20.110600
H -35.871500 -18.669500 -20.603000
O -35.816900 -16.407000 -20.656800
