18
Fragment
F -40.692100 -17.941200 -17.621200
H -40.478800 -19.709800 -15.821900
C -40.209100 -17.790600 -16.347600
C -40.176000 -18.879900 -15.533700
H -39.811800 -15.842200 -16.570200
C -39.767600 -16.555700 -15.975400
C -39.676700 -18.701100 -14.268600
H -39.649100 -19.418600 -13.678300
H -39.480800 -14.376300 -14.346200
C -39.256500 -16.375400 -14.709100
C -39.218500 -17.471800 -13.869100
H -38.872800 -17.372900 -13.011500
C -38.749400 -15.010000 -14.288800
H -38.473000 -15.054300 -13.360300
C -37.600300 -14.492600 -15.108500
O -37.516500 -13.206800 -15.141700
H -36.877000 -12.973700 -15.634100
O -36.822500 -15.236200 -15.688000
15
Fragment
H -37.104500 -10.624200 -15.481000
H -36.567600 -9.315800 -15.914300
N -36.535300 -10.181400 -15.926500
N -35.673300 -12.174400 -16.631500
C -35.631900 -10.807000 -16.672000
H -35.346200 -14.547200 -16.879300
N -34.767900 -14.146900 -17.391100
C -34.767900 -12.828900 -17.391100
N -34.767900 -10.086300 -17.391100
H -34.189600 -14.547200 -17.902900
C -33.903900 -10.807000 -18.110200
N -33.862500 -12.174400 -18.150600
N -33.000500 -10.181400 -18.855700
H -32.968200 -9.315800 -18.867800
H -32.431300 -10.624200 -19.301100
33
Fragment
F -40.692100 -17.941200 -17.621200
H -40.478800 -19.709800 -15.821900
C -40.209100 -17.790600 -16.347600
C -40.176000 -18.879900 -15.533700
H -39.811800 -15.842200 -16.570200
C -39.767600 -16.555700 -15.975400
C -39.676700 -18.701100 -14.268600
H -39.649100 -19.418600 -13.678300
H -39.480800 -14.376300 -14.346200
C -39.256500 -16.375400 -14.709100
C -39.218500 -17.471800 -13.869100
H -38.872800 -17.372900 -13.011500
C -38.749400 -15.010000 -14.288800
H -38.473000 -15.054300 -13.360300
C -37.600300 -14.492600 -15.108500
O -37.516500 -13.206800 -15.141700
H -36.877000 -12.973700 -15.634100
O -36.822500 -15.236200 -15.688000
H -37.104500 -10.624200 -15.481000
H -36.567600 -9.315800 -15.914300
N -36.535300 -10.181400 -15.926500
N -35.673300 -12.174400 -16.631500
C -35.631900 -10.807000 -16.672000
H -35.346200 -14.547200 -16.879300
N -34.767900 -14.146900 -17.391100
C -34.767900 -12.828900 -17.391100
N -34.767900 -10.086300 -17.391100
H -34.189600 -14.547200 -17.902900
C -33.903900 -10.807000 -18.110200
N -33.862500 -12.174400 -18.150600
N -33.000500 -10.181400 -18.855700
H -32.968200 -9.315800 -18.867800
H -32.431300 -10.624200 -19.301100
