18
Fragment
F -40.692100 -17.941200 -17.621200
H -40.478800 -19.709800 -15.821900
C -40.209100 -17.790600 -16.347600
C -40.176000 -18.879900 -15.533700
H -39.811800 -15.842200 -16.570200
C -39.767600 -16.555700 -15.975400
C -39.676700 -18.701100 -14.268600
H -39.649100 -19.418600 -13.678300
H -39.480800 -14.376300 -14.346200
C -39.256500 -16.375400 -14.709100
C -39.218500 -17.471800 -13.869100
H -38.872800 -17.372900 -13.011500
C -38.749400 -15.010000 -14.288800
H -38.473000 -15.054300 -13.360300
C -37.600300 -14.492600 -15.108500
O -37.516500 -13.206800 -15.141700
H -36.877000 -12.973700 -15.634100
O -36.822500 -15.236200 -15.688000
18
Fragment
F -40.692100 -10.030400 -17.621200
H -40.478800 -11.799000 -15.821900
C -40.209100 -9.879800 -16.347600
C -40.176000 -10.969100 -15.533700
H -39.811800 -7.931400 -16.570200
C -39.767600 -8.644900 -15.975400
C -39.676700 -10.790300 -14.268600
H -39.649100 -11.507800 -13.678300
H -39.480800 -6.465500 -14.346200
C -39.256500 -8.464600 -14.709100
C -39.218500 -9.561000 -13.869100
H -38.872800 -9.462100 -13.011500
C -38.749400 -7.099200 -14.288800
H -38.473000 -7.143500 -13.360300
C -37.600300 -6.581800 -15.108500
O -37.516500 -5.296000 -15.141700
H -36.877000 -5.062900 -15.634100
O -36.822500 -7.325400 -15.688000
36
Fragment
F -40.692100 -17.941200 -17.621200
H -40.478800 -19.709800 -15.821900
C -40.209100 -17.790600 -16.347600
C -40.176000 -18.879900 -15.533700
H -39.811800 -15.842200 -16.570200
C -39.767600 -16.555700 -15.975400
C -39.676700 -18.701100 -14.268600
H -39.649100 -19.418600 -13.678300
H -39.480800 -14.376300 -14.346200
C -39.256500 -16.375400 -14.709100
C -39.218500 -17.471800 -13.869100
H -38.872800 -17.372900 -13.011500
C -38.749400 -15.010000 -14.288800
H -38.473000 -15.054300 -13.360300
C -37.600300 -14.492600 -15.108500
O -37.516500 -13.206800 -15.141700
H -36.877000 -12.973700 -15.634100
O -36.822500 -15.236200 -15.688000
F -40.692100 -10.030400 -17.621200
H -40.478800 -11.799000 -15.821900
C -40.209100 -9.879800 -16.347600
C -40.176000 -10.969100 -15.533700
H -39.811800 -7.931400 -16.570200
C -39.767600 -8.644900 -15.975400
C -39.676700 -10.790300 -14.268600
H -39.649100 -11.507800 -13.678300
H -39.480800 -6.465500 -14.346200
C -39.256500 -8.464600 -14.709100
C -39.218500 -9.561000 -13.869100
H -38.872800 -9.462100 -13.011500
C -38.749400 -7.099200 -14.288800
H -38.473000 -7.143500 -13.360300
C -37.600300 -6.581800 -15.108500
O -37.516500 -5.296000 -15.141700
H -36.877000 -5.062900 -15.634100
O -36.822500 -7.325400 -15.688000
