18
Fragment
F -40.692100 -17.941200 -17.621200
H -40.478800 -19.709800 -15.821900
C -40.209100 -17.790600 -16.347600
C -40.176000 -18.879900 -15.533700
H -39.811800 -15.842200 -16.570200
C -39.767600 -16.555700 -15.975400
C -39.676700 -18.701100 -14.268600
H -39.649100 -19.418600 -13.678300
H -39.480800 -14.376300 -14.346200
C -39.256500 -16.375400 -14.709100
C -39.218500 -17.471800 -13.869100
H -38.872800 -17.372900 -13.011500
C -38.749400 -15.010000 -14.288800
H -38.473000 -15.054300 -13.360300
C -37.600300 -14.492600 -15.108500
O -37.516500 -13.206800 -15.141700
H -36.877000 -12.973700 -15.634100
O -36.822500 -15.236200 -15.688000
15
Fragment
H -38.110000 -13.108200 -10.512200
H -37.573100 -14.416600 -10.945500
N -37.540800 -13.551000 -10.957600
N -36.678800 -11.558000 -11.662700
C -36.637500 -12.925400 -11.703100
H -36.351700 -9.185200 -11.910400
N -35.773400 -13.646100 -12.422200
C -35.773400 -10.903500 -12.422200
N -35.773400 -9.585500 -12.422200
H -35.195100 -9.185200 -12.934000
C -34.909400 -12.925400 -13.141300
N -34.868000 -11.558000 -13.181700
N -34.006000 -13.551000 -13.886800
H -33.973700 -14.416600 -13.899000
H -33.436800 -13.108200 -14.332200
33
Fragment
F -40.692100 -17.941200 -17.621200
H -40.478800 -19.709800 -15.821900
C -40.209100 -17.790600 -16.347600
C -40.176000 -18.879900 -15.533700
H -39.811800 -15.842200 -16.570200
C -39.767600 -16.555700 -15.975400
C -39.676700 -18.701100 -14.268600
H -39.649100 -19.418600 -13.678300
H -39.480800 -14.376300 -14.346200
C -39.256500 -16.375400 -14.709100
C -39.218500 -17.471800 -13.869100
H -38.872800 -17.372900 -13.011500
C -38.749400 -15.010000 -14.288800
H -38.473000 -15.054300 -13.360300
C -37.600300 -14.492600 -15.108500
O -37.516500 -13.206800 -15.141700
H -36.877000 -12.973700 -15.634100
O -36.822500 -15.236200 -15.688000
H -38.110000 -13.108200 -10.512200
H -37.573100 -14.416600 -10.945500
N -37.540800 -13.551000 -10.957600
N -36.678800 -11.558000 -11.662700
C -36.637500 -12.925400 -11.703100
H -36.351700 -9.185200 -11.910400
N -35.773400 -13.646100 -12.422200
C -35.773400 -10.903500 -12.422200
N -35.773400 -9.585500 -12.422200
H -35.195100 -9.185200 -12.934000
C -34.909400 -12.925400 -13.141300
N -34.868000 -11.558000 -13.181700
N -34.006000 -13.551000 -13.886800
H -33.973700 -14.416600 -13.899000
H -33.436800 -13.108200 -14.332200
