18
Fragment
F -40.905900 -7.373800 -15.685000
H -40.883800 -9.471500 -17.070700
C -40.518600 -9.611200 -16.227300
C -40.430900 -8.594300 -15.331500
H -40.114300 -11.554600 -16.465900
C -40.056400 -10.849800 -15.861500
C -39.883300 -8.756900 -14.097800
H -39.820000 -8.041000 -13.508300
H -39.749700 -13.064700 -14.295900
C -39.503300 -11.072700 -14.604000
C -39.424600 -10.005500 -13.740700
H -39.054400 -10.129500 -12.896600
C -39.012200 -12.438700 -14.216200
H -38.748100 -12.417000 -13.283000
C -37.861700 -12.954800 -15.024500
O -37.757200 -14.231000 -15.047000
O -37.089800 -12.212200 -15.614900
H -37.087700 -14.453900 -15.492600
15
Fragment
H -37.336200 -16.710200 -15.426400
N -36.780300 -17.205300 -15.858400
H -36.774200 -18.075200 -15.850300
N -35.905200 -15.228500 -16.545800
C -35.868600 -16.584600 -16.587600
H -35.594900 -12.895400 -16.784100
N -35.000900 -17.299100 -17.293000
C -35.000900 -14.572600 -17.293000
N -35.000900 -13.264500 -17.293000
H -34.406800 -12.895400 -17.801900
C -34.133200 -16.584600 -17.998500
N -34.096500 -15.228500 -18.040300
H -33.227500 -18.075200 -18.735800
N -33.221400 -17.205300 -18.727700
H -32.665500 -16.710200 -19.159700
33
Fragment
F -40.905900 -7.373800 -15.685000
H -40.883800 -9.471500 -17.070700
C -40.518600 -9.611200 -16.227300
C -40.430900 -8.594300 -15.331500
H -40.114300 -11.554600 -16.465900
C -40.056400 -10.849800 -15.861500
C -39.883300 -8.756900 -14.097800
H -39.820000 -8.041000 -13.508300
H -39.749700 -13.064700 -14.295900
C -39.503300 -11.072700 -14.604000
C -39.424600 -10.005500 -13.740700
H -39.054400 -10.129500 -12.896600
C -39.012200 -12.438700 -14.216200
H -38.748100 -12.417000 -13.283000
C -37.861700 -12.954800 -15.024500
O -37.757200 -14.231000 -15.047000
O -37.089800 -12.212200 -15.614900
H -37.087700 -14.453900 -15.492600
H -37.336200 -16.710200 -15.426400
N -36.780300 -17.205300 -15.858400
H -36.774200 -18.075200 -15.850300
N -35.905200 -15.228500 -16.545800
C -35.868600 -16.584600 -16.587600
H -35.594900 -12.895400 -16.784100
N -35.000900 -17.299100 -17.293000
C -35.000900 -14.572600 -17.293000
N -35.000900 -13.264500 -17.293000
H -34.406800 -12.895400 -17.801900
C -34.133200 -16.584600 -17.998500
N -34.096500 -15.228500 -18.040300
H -33.227500 -18.075200 -18.735800
N -33.221400 -17.205300 -18.727700
H -32.665500 -16.710200 -19.159700
