18
Fragment
F -40.905900 -7.373800 -15.685000
H -40.883800 -9.471500 -17.070700
C -40.518600 -9.611200 -16.227300
C -40.430900 -8.594300 -15.331500
H -40.114300 -11.554600 -16.465900
C -40.056400 -10.849800 -15.861500
C -39.883300 -8.756900 -14.097800
H -39.820000 -8.041000 -13.508300
H -39.749700 -13.064700 -14.295900
C -39.503300 -11.072700 -14.604000
C -39.424600 -10.005500 -13.740700
H -39.054400 -10.129500 -12.896600
C -39.012200 -12.438700 -14.216200
H -38.748100 -12.417000 -13.283000
C -37.861700 -12.954800 -15.024500
O -37.757200 -14.231000 -15.047000
O -37.089800 -12.212200 -15.614900
H -37.087700 -14.453900 -15.492600
15
Fragment
H -38.307100 -14.507800 -10.485500
N -37.751200 -14.012700 -10.917500
H -37.745100 -13.142800 -10.909400
N -36.876100 -15.989500 -11.604900
C -36.839400 -14.633400 -11.646700
H -36.565800 -18.322600 -11.843300
N -35.971700 -17.953500 -12.352200
C -35.971700 -16.645400 -12.352200
N -35.971700 -13.918900 -12.352200
H -35.377700 -18.322600 -12.861100
C -35.104100 -14.633400 -13.057600
N -35.067400 -15.989500 -13.099400
H -34.198400 -13.142800 -13.794900
N -34.192300 -14.012700 -13.786800
H -33.636400 -14.507800 -14.218800
33
Fragment
F -40.905900 -7.373800 -15.685000
H -40.883800 -9.471500 -17.070700
C -40.518600 -9.611200 -16.227300
C -40.430900 -8.594300 -15.331500
H -40.114300 -11.554600 -16.465900
C -40.056400 -10.849800 -15.861500
C -39.883300 -8.756900 -14.097800
H -39.820000 -8.041000 -13.508300
H -39.749700 -13.064700 -14.295900
C -39.503300 -11.072700 -14.604000
C -39.424600 -10.005500 -13.740700
H -39.054400 -10.129500 -12.896600
C -39.012200 -12.438700 -14.216200
H -38.748100 -12.417000 -13.283000
C -37.861700 -12.954800 -15.024500
O -37.757200 -14.231000 -15.047000
O -37.089800 -12.212200 -15.614900
H -37.087700 -14.453900 -15.492600
H -38.307100 -14.507800 -10.485500
N -37.751200 -14.012700 -10.917500
H -37.745100 -13.142800 -10.909400
N -36.876100 -15.989500 -11.604900
C -36.839400 -14.633400 -11.646700
H -36.565800 -18.322600 -11.843300
N -35.971700 -17.953500 -12.352200
C -35.971700 -16.645400 -12.352200
N -35.971700 -13.918900 -12.352200
H -35.377700 -18.322600 -12.861100
C -35.104100 -14.633400 -13.057600
N -35.067400 -15.989500 -13.099400
H -34.198400 -13.142800 -13.794900
N -34.192300 -14.012700 -13.786800
H -33.636400 -14.507800 -14.218800
