18
Fragment
F -40.905900 -7.373800 -15.685000
H -40.883800 -9.471500 -17.070700
C -40.518600 -9.611200 -16.227300
C -40.430900 -8.594300 -15.331500
H -40.114300 -11.554600 -16.465900
C -40.056400 -10.849800 -15.861500
C -39.883300 -8.756900 -14.097800
H -39.820000 -8.041000 -13.508300
H -39.749700 -13.064700 -14.295900
C -39.503300 -11.072700 -14.604000
C -39.424600 -10.005500 -13.740700
H -39.054400 -10.129500 -12.896600
C -39.012200 -12.438700 -14.216200
H -38.748100 -12.417000 -13.283000
C -37.861700 -12.954800 -15.024500
O -37.757200 -14.231000 -15.047000
O -37.089800 -12.212200 -15.614900
H -37.087700 -14.453900 -15.492600
18
Fragment
F -40.905900 -15.178300 -15.685000
H -40.883800 -17.276000 -17.070700
C -40.518600 -17.415700 -16.227300
C -40.430900 -16.398800 -15.331500
H -40.114300 -19.359100 -16.465900
C -40.056400 -18.654300 -15.861500
C -39.883300 -16.561400 -14.097800
H -39.820000 -15.845500 -13.508300
H -39.749700 -20.869200 -14.295900
C -39.503300 -18.877200 -14.604000
C -39.424600 -17.810000 -13.740700
H -39.054400 -17.934000 -12.896600
C -39.012200 -20.243200 -14.216200
H -38.748100 -20.221500 -13.283000
C -37.861700 -20.759300 -15.024500
O -37.757200 -22.035500 -15.047000
O -37.089800 -20.016700 -15.614900
H -37.087700 -22.258400 -15.492600
36
Fragment
F -40.905900 -7.373800 -15.685000
H -40.883800 -9.471500 -17.070700
C -40.518600 -9.611200 -16.227300
C -40.430900 -8.594300 -15.331500
H -40.114300 -11.554600 -16.465900
C -40.056400 -10.849800 -15.861500
C -39.883300 -8.756900 -14.097800
H -39.820000 -8.041000 -13.508300
H -39.749700 -13.064700 -14.295900
C -39.503300 -11.072700 -14.604000
C -39.424600 -10.005500 -13.740700
H -39.054400 -10.129500 -12.896600
C -39.012200 -12.438700 -14.216200
H -38.748100 -12.417000 -13.283000
C -37.861700 -12.954800 -15.024500
O -37.757200 -14.231000 -15.047000
O -37.089800 -12.212200 -15.614900
H -37.087700 -14.453900 -15.492600
F -40.905900 -15.178300 -15.685000
H -40.883800 -17.276000 -17.070700
C -40.518600 -17.415700 -16.227300
C -40.430900 -16.398800 -15.331500
H -40.114300 -19.359100 -16.465900
C -40.056400 -18.654300 -15.861500
C -39.883300 -16.561400 -14.097800
H -39.820000 -15.845500 -13.508300
H -39.749700 -20.869200 -14.295900
C -39.503300 -18.877200 -14.604000
C -39.424600 -17.810000 -13.740700
H -39.054400 -17.934000 -12.896600
C -39.012200 -20.243200 -14.216200
H -38.748100 -20.221500 -13.283000
C -37.861700 -20.759300 -15.024500
O -37.757200 -22.035500 -15.047000
O -37.089800 -20.016700 -15.614900
H -37.087700 -22.258400 -15.492600
