18
Fragment
F -40.905900 -7.373800 -15.685000
H -40.883800 -9.471500 -17.070700
C -40.518600 -9.611200 -16.227300
C -40.430900 -8.594300 -15.331500
H -40.114300 -11.554600 -16.465900
C -40.056400 -10.849800 -15.861500
C -39.883300 -8.756900 -14.097800
H -39.820000 -8.041000 -13.508300
H -39.749700 -13.064700 -14.295900
C -39.503300 -11.072700 -14.604000
C -39.424600 -10.005500 -13.740700
H -39.054400 -10.129500 -12.896600
C -39.012200 -12.438700 -14.216200
H -38.748100 -12.417000 -13.283000
C -37.861700 -12.954800 -15.024500
O -37.757200 -14.231000 -15.047000
O -37.089800 -12.212200 -15.614900
H -37.087700 -14.453900 -15.492600
18
Fragment
H -46.684500 -5.057300 -14.152600
O -46.682500 -7.299100 -14.030300
O -46.015100 -5.280300 -14.598200
C -45.910600 -6.556500 -14.620700
H -45.024100 -7.094300 -16.362200
C -44.760100 -7.072600 -15.428900
H -44.717800 -9.381800 -16.748500
C -44.347600 -9.505700 -15.904400
C -44.269000 -8.438500 -15.041200
H -44.022600 -6.446500 -15.349300
H -43.952300 -11.470300 -16.136900
C -43.888900 -10.754400 -15.547400
C -43.715800 -8.661400 -13.783700
H -43.658000 -7.956700 -13.179300
C -43.341400 -10.916900 -14.313700
C -43.253700 -9.900000 -13.417900
H -42.888500 -10.039700 -12.574500
F -42.866300 -12.137400 -13.960200
36
Fragment
F -40.905900 -7.373800 -15.685000
H -40.883800 -9.471500 -17.070700
C -40.518600 -9.611200 -16.227300
C -40.430900 -8.594300 -15.331500
H -40.114300 -11.554600 -16.465900
C -40.056400 -10.849800 -15.861500
C -39.883300 -8.756900 -14.097800
H -39.820000 -8.041000 -13.508300
H -39.749700 -13.064700 -14.295900
C -39.503300 -11.072700 -14.604000
C -39.424600 -10.005500 -13.740700
H -39.054400 -10.129500 -12.896600
C -39.012200 -12.438700 -14.216200
H -38.748100 -12.417000 -13.283000
C -37.861700 -12.954800 -15.024500
O -37.757200 -14.231000 -15.047000
O -37.089800 -12.212200 -15.614900
H -37.087700 -14.453900 -15.492600
H -46.684500 -5.057300 -14.152600
O -46.682500 -7.299100 -14.030300
O -46.015100 -5.280300 -14.598200
C -45.910600 -6.556500 -14.620700
H -45.024100 -7.094300 -16.362200
C -44.760100 -7.072600 -15.428900
H -44.717800 -9.381800 -16.748500
C -44.347600 -9.505700 -15.904400
C -44.269000 -8.438500 -15.041200
H -44.022600 -6.446500 -15.349300
H -43.952300 -11.470300 -16.136900
C -43.888900 -10.754400 -15.547400
C -43.715800 -8.661400 -13.783700
H -43.658000 -7.956700 -13.179300
C -43.341400 -10.916900 -14.313700
C -43.253700 -9.900000 -13.417900
H -42.888500 -10.039700 -12.574500
F -42.866300 -12.137400 -13.960200
