36
Fragment
H -16.911100 -51.207700 -17.896900
O -16.383800 -47.962500 -12.086200
O -16.041800 -51.636500 -18.314000
C -15.938600 -48.045800 -13.243400
H -15.861500 -46.025200 -13.627600
N -15.716800 -46.898200 -13.975000
N -15.663500 -50.535200 -13.576200
H -15.633000 -53.089400 -15.450300
C -15.611800 -49.208700 -13.967600
H -15.489100 -53.120300 -13.688700
H -15.463700 -49.696100 -17.884600
C -15.178500 -46.861200 -15.241100
H -15.176000 -44.914700 -15.205600
C -15.171700 -51.207700 -14.584200
C -15.060800 -50.621600 -18.135400
C -15.056600 -49.094600 -15.227600
N -15.050700 -45.645800 -15.807500
C -15.013400 -52.694600 -14.606200
N -14.832300 -47.947000 -15.922500
N -14.785800 -50.384000 -15.631300
H -14.693500 -45.624200 -16.722500
H -14.321100 -52.164000 -20.527000
C -14.204300 -50.843700 -16.886400
H -14.185700 -50.097200 -20.037700
H -14.092600 -51.855500 -16.734700
H -14.075600 -47.814400 -17.493200
C -14.003700 -50.630800 -19.229100
H -13.982500 -52.935200 -14.655100
O -13.850500 -47.814400 -18.581900
O -13.692200 -51.963500 -19.621700
O -13.001600 -50.155800 -17.115200
C -12.790800 -49.995400 -18.545200
C -12.647800 -48.514600 -18.808200
H -12.365900 -48.369700 -19.854200
H -11.858100 -50.343900 -18.863300
H -11.824200 -48.092000 -18.092600
36
Fragment
H -13.567800 -44.452000 -11.976100
H -13.533900 -42.200100 -12.746800
H -13.026100 -44.174300 -13.737700
C -12.744200 -44.029400 -12.691700
C -12.601200 -42.548600 -12.428700
O -12.390400 -42.388200 -10.998700
O -11.699800 -40.580500 -13.505200
O -11.541500 -44.729600 -12.465400
H -11.409500 -39.608800 -8.538600
C -11.388300 -41.913200 -13.112600
H -11.316400 -44.729600 -11.376700
H -11.299400 -40.688500 -10.618200
H -11.206300 -42.446800 -13.921200
C -11.187700 -41.700300 -10.769900
H -11.070900 -40.380000 -14.410500
H -10.698500 -46.919800 -10.606000
N -10.606200 -42.160000 -9.514800
N -10.559700 -44.597000 -9.806000
C -10.378600 -39.849400 -8.489700
N -10.341300 -46.898200 -9.691000
C -10.335400 -43.449400 -9.111100
C -10.331200 -41.922400 -12.018900
C -10.220300 -41.336300 -8.467700
H -10.216000 -47.629300 -9.089100
C -10.213500 -45.682800 -9.124600
H -9.928300 -42.847900 -11.768100
H -9.902900 -39.423700 -7.572200
C -9.780200 -43.335300 -7.851100
H -9.759000 -39.454600 -9.333800
N -9.728500 -42.008800 -7.459700
N -9.675200 -45.645800 -7.858500
H -9.530500 -46.518800 -7.511100
C -9.453400 -44.498200 -7.126900
O -9.350200 -40.907500 -12.197500
O -9.008200 -44.581500 -5.969700
H -8.480900 -41.336300 -11.780400
72
Fragment
H -16.911100 -51.207700 -17.896900
O -16.383800 -47.962500 -12.086200
O -16.041800 -51.636500 -18.314000
C -15.938600 -48.045800 -13.243400
H -15.861500 -46.025200 -13.627600
N -15.716800 -46.898200 -13.975000
N -15.663500 -50.535200 -13.576200
H -15.633000 -53.089400 -15.450300
C -15.611800 -49.208700 -13.967600
H -15.489100 -53.120300 -13.688700
H -15.463700 -49.696100 -17.884600
C -15.178500 -46.861200 -15.241100
H -15.176000 -44.914700 -15.205600
C -15.171700 -51.207700 -14.584200
C -15.060800 -50.621600 -18.135400
C -15.056600 -49.094600 -15.227600
N -15.050700 -45.645800 -15.807500
C -15.013400 -52.694600 -14.606200
N -14.832300 -47.947000 -15.922500
N -14.785800 -50.384000 -15.631300
H -14.693500 -45.624200 -16.722500
H -14.321100 -52.164000 -20.527000
C -14.204300 -50.843700 -16.886400
H -14.185700 -50.097200 -20.037700
H -14.092600 -51.855500 -16.734700
H -14.075600 -47.814400 -17.493200
C -14.003700 -50.630800 -19.229100
H -13.982500 -52.935200 -14.655100
O -13.850500 -47.814400 -18.581900
O -13.692200 -51.963500 -19.621700
O -13.001600 -50.155800 -17.115200
C -12.790800 -49.995400 -18.545200
C -12.647800 -48.514600 -18.808200
H -12.365900 -48.369700 -19.854200
H -11.858100 -50.343900 -18.863300
H -11.824200 -48.092000 -18.092600
H -13.567800 -44.452000 -11.976100
H -13.533900 -42.200100 -12.746800
H -13.026100 -44.174300 -13.737700
C -12.744200 -44.029400 -12.691700
C -12.601200 -42.548600 -12.428700
O -12.390400 -42.388200 -10.998700
O -11.699800 -40.580500 -13.505200
O -11.541500 -44.729600 -12.465400
H -11.409500 -39.608800 -8.538600
C -11.388300 -41.913200 -13.112600
H -11.316400 -44.729600 -11.376700
H -11.299400 -40.688500 -10.618200
H -11.206300 -42.446800 -13.921200
C -11.187700 -41.700300 -10.769900
H -11.070900 -40.380000 -14.410500
H -10.698500 -46.919800 -10.606000
N -10.606200 -42.160000 -9.514800
N -10.559700 -44.597000 -9.806000
C -10.378600 -39.849400 -8.489700
N -10.341300 -46.898200 -9.691000
C -10.335400 -43.449400 -9.111100
C -10.331200 -41.922400 -12.018900
C -10.220300 -41.336300 -8.467700
H -10.216000 -47.629300 -9.089100
C -10.213500 -45.682800 -9.124600
H -9.928300 -42.847900 -11.768100
H -9.902900 -39.423700 -7.572200
C -9.780200 -43.335300 -7.851100
H -9.759000 -39.454600 -9.333800
N -9.728500 -42.008800 -7.459700
N -9.675200 -45.645800 -7.858500
H -9.530500 -46.518800 -7.511100
C -9.453400 -44.498200 -7.126900
O -9.350200 -40.907500 -12.197500
O -9.008200 -44.581500 -5.969700
H -8.480900 -41.336300 -11.780400
