36
Fragment
H -16.911100 -51.207700 -17.896900
O -16.383800 -47.962500 -12.086200
O -16.041800 -51.636500 -18.314000
C -15.938600 -48.045800 -13.243400
H -15.861500 -46.025200 -13.627600
N -15.716800 -46.898200 -13.975000
N -15.663500 -50.535200 -13.576200
H -15.633000 -53.089400 -15.450300
C -15.611800 -49.208700 -13.967600
H -15.489100 -53.120300 -13.688700
H -15.463700 -49.696100 -17.884600
C -15.178500 -46.861200 -15.241100
H -15.176000 -44.914700 -15.205600
C -15.171700 -51.207700 -14.584200
C -15.060800 -50.621600 -18.135400
C -15.056600 -49.094600 -15.227600
N -15.050700 -45.645800 -15.807500
C -15.013400 -52.694600 -14.606200
N -14.832300 -47.947000 -15.922500
N -14.785800 -50.384000 -15.631300
H -14.693500 -45.624200 -16.722500
H -14.321100 -52.164000 -20.527000
C -14.204300 -50.843700 -16.886400
H -14.185700 -50.097200 -20.037700
H -14.092600 -51.855500 -16.734700
H -14.075600 -47.814400 -17.493200
C -14.003700 -50.630800 -19.229100
H -13.982500 -52.935200 -14.655100
O -13.850500 -47.814400 -18.581900
O -13.692200 -51.963500 -19.621700
O -13.001600 -50.155800 -17.115200
C -12.790800 -49.995400 -18.545200
C -12.647800 -48.514600 -18.808200
H -12.365900 -48.369700 -19.854200
H -11.858100 -50.343900 -18.863300
H -11.824200 -48.092000 -18.092600
36
Fragment
H -22.031800 -48.092000 -12.489900
H -21.997900 -50.343900 -11.719200
H -21.490100 -48.369700 -10.728300
C -21.208200 -48.514600 -11.774300
C -21.065200 -49.995400 -12.037300
O -20.854400 -50.155800 -13.467300
O -20.163800 -51.963500 -10.960800
O -20.005500 -47.814400 -12.000600
H -19.873500 -52.935200 -15.927400
C -19.852300 -50.630800 -11.353400
H -19.780400 -47.814400 -13.089300
H -19.763400 -51.855500 -13.847800
H -19.670300 -50.097200 -10.544800
C -19.651700 -50.843700 -13.696100
H -19.534900 -52.164000 -10.055500
H -19.162500 -45.624200 -13.860000
N -19.070200 -50.384000 -14.951200
N -19.023700 -47.947000 -14.660000
C -18.842600 -52.694600 -15.976300
N -18.805300 -45.645800 -14.775000
C -18.799400 -49.094600 -15.354900
C -18.795200 -50.621600 -12.447100
C -18.684300 -51.207700 -15.998300
H -18.680000 -44.914700 -15.376900
C -18.677500 -46.861200 -15.341400
H -18.392300 -49.696100 -12.697900
H -18.366900 -53.120300 -16.893800
C -18.244200 -49.208700 -16.614900
H -18.223000 -53.089400 -15.132200
N -18.192500 -50.535200 -17.006300
N -18.139200 -46.898200 -16.607500
H -17.994500 -46.025200 -16.954900
C -17.917400 -48.045800 -17.339100
O -17.814200 -51.636500 -12.268500
O -17.472200 -47.962500 -18.496300
H -16.944900 -51.207700 -12.685600
72
Fragment
H -16.911100 -51.207700 -17.896900
O -16.383800 -47.962500 -12.086200
O -16.041800 -51.636500 -18.314000
C -15.938600 -48.045800 -13.243400
H -15.861500 -46.025200 -13.627600
N -15.716800 -46.898200 -13.975000
N -15.663500 -50.535200 -13.576200
H -15.633000 -53.089400 -15.450300
C -15.611800 -49.208700 -13.967600
H -15.489100 -53.120300 -13.688700
H -15.463700 -49.696100 -17.884600
C -15.178500 -46.861200 -15.241100
H -15.176000 -44.914700 -15.205600
C -15.171700 -51.207700 -14.584200
C -15.060800 -50.621600 -18.135400
C -15.056600 -49.094600 -15.227600
N -15.050700 -45.645800 -15.807500
C -15.013400 -52.694600 -14.606200
N -14.832300 -47.947000 -15.922500
N -14.785800 -50.384000 -15.631300
H -14.693500 -45.624200 -16.722500
H -14.321100 -52.164000 -20.527000
C -14.204300 -50.843700 -16.886400
H -14.185700 -50.097200 -20.037700
H -14.092600 -51.855500 -16.734700
H -14.075600 -47.814400 -17.493200
C -14.003700 -50.630800 -19.229100
H -13.982500 -52.935200 -14.655100
O -13.850500 -47.814400 -18.581900
O -13.692200 -51.963500 -19.621700
O -13.001600 -50.155800 -17.115200
C -12.790800 -49.995400 -18.545200
C -12.647800 -48.514600 -18.808200
H -12.365900 -48.369700 -19.854200
H -11.858100 -50.343900 -18.863300
H -11.824200 -48.092000 -18.092600
H -22.031800 -48.092000 -12.489900
H -21.997900 -50.343900 -11.719200
H -21.490100 -48.369700 -10.728300
C -21.208200 -48.514600 -11.774300
C -21.065200 -49.995400 -12.037300
O -20.854400 -50.155800 -13.467300
O -20.163800 -51.963500 -10.960800
O -20.005500 -47.814400 -12.000600
H -19.873500 -52.935200 -15.927400
C -19.852300 -50.630800 -11.353400
H -19.780400 -47.814400 -13.089300
H -19.763400 -51.855500 -13.847800
H -19.670300 -50.097200 -10.544800
C -19.651700 -50.843700 -13.696100
H -19.534900 -52.164000 -10.055500
H -19.162500 -45.624200 -13.860000
N -19.070200 -50.384000 -14.951200
N -19.023700 -47.947000 -14.660000
C -18.842600 -52.694600 -15.976300
N -18.805300 -45.645800 -14.775000
C -18.799400 -49.094600 -15.354900
C -18.795200 -50.621600 -12.447100
C -18.684300 -51.207700 -15.998300
H -18.680000 -44.914700 -15.376900
C -18.677500 -46.861200 -15.341400
H -18.392300 -49.696100 -12.697900
H -18.366900 -53.120300 -16.893800
C -18.244200 -49.208700 -16.614900
H -18.223000 -53.089400 -15.132200
N -18.192500 -50.535200 -17.006300
N -18.139200 -46.898200 -16.607500
H -17.994500 -46.025200 -16.954900
C -17.917400 -48.045800 -17.339100
O -17.814200 -51.636500 -12.268500
O -17.472200 -47.962500 -18.496300
H -16.944900 -51.207700 -12.685600
