36
Fragment
H -16.911100 -51.207700 -17.896900
O -16.383800 -47.962500 -12.086200
O -16.041800 -51.636500 -18.314000
C -15.938600 -48.045800 -13.243400
H -15.861500 -46.025200 -13.627600
N -15.716800 -46.898200 -13.975000
N -15.663500 -50.535200 -13.576200
H -15.633000 -53.089400 -15.450300
C -15.611800 -49.208700 -13.967600
H -15.489100 -53.120300 -13.688700
H -15.463700 -49.696100 -17.884600
C -15.178500 -46.861200 -15.241100
H -15.176000 -44.914700 -15.205600
C -15.171700 -51.207700 -14.584200
C -15.060800 -50.621600 -18.135400
C -15.056600 -49.094600 -15.227600
N -15.050700 -45.645800 -15.807500
C -15.013400 -52.694600 -14.606200
N -14.832300 -47.947000 -15.922500
N -14.785800 -50.384000 -15.631300
H -14.693500 -45.624200 -16.722500
H -14.321100 -52.164000 -20.527000
C -14.204300 -50.843700 -16.886400
H -14.185700 -50.097200 -20.037700
H -14.092600 -51.855500 -16.734700
H -14.075600 -47.814400 -17.493200
C -14.003700 -50.630800 -19.229100
H -13.982500 -52.935200 -14.655100
O -13.850500 -47.814400 -18.581900
O -13.692200 -51.963500 -19.621700
O -13.001600 -50.155800 -17.115200
C -12.790800 -49.995400 -18.545200
C -12.647800 -48.514600 -18.808200
H -12.365900 -48.369700 -19.854200
H -11.858100 -50.343900 -18.863300
H -11.824200 -48.092000 -18.092600
36
Fragment
H -17.799800 -59.876000 -24.209100
H -17.765900 -57.624100 -24.979800
H -17.258100 -59.598300 -25.970700
C -16.976200 -59.453400 -24.924700
C -16.833200 -57.972600 -24.661700
O -16.622400 -57.812200 -23.231700
O -15.931800 -56.004500 -25.738200
O -15.773500 -60.153600 -24.698400
H -15.641500 -55.032800 -20.771600
C -15.620300 -57.337200 -25.345600
H -15.548400 -60.153600 -23.609700
H -15.531400 -56.112500 -22.851200
H -15.438300 -57.870800 -26.154200
C -15.419700 -57.124300 -23.002900
H -15.302900 -55.804000 -26.643500
H -14.930500 -62.343800 -22.839000
N -14.838200 -57.584000 -21.747800
N -14.791700 -60.021000 -22.039000
C -14.610600 -55.273400 -20.722700
N -14.573300 -62.322200 -21.924000
C -14.567400 -58.873400 -21.344100
C -14.563200 -57.346400 -24.251900
C -14.452300 -56.760300 -20.700700
H -14.448000 -63.053300 -21.322100
C -14.445500 -61.106800 -21.357600
H -14.160300 -58.271900 -24.001100
H -14.134900 -54.847700 -19.805200
C -14.012200 -58.759300 -20.084100
H -13.991000 -54.878600 -21.566800
N -13.960500 -57.432800 -19.692700
N -13.907200 -61.069800 -20.091500
H -13.762500 -61.942800 -19.744100
C -13.685400 -59.922200 -19.359900
O -13.582200 -56.331500 -24.430500
O -13.240200 -60.005500 -18.202700
H -12.712900 -56.760300 -24.013400
72
Fragment
H -16.911100 -51.207700 -17.896900
O -16.383800 -47.962500 -12.086200
O -16.041800 -51.636500 -18.314000
C -15.938600 -48.045800 -13.243400
H -15.861500 -46.025200 -13.627600
N -15.716800 -46.898200 -13.975000
N -15.663500 -50.535200 -13.576200
H -15.633000 -53.089400 -15.450300
C -15.611800 -49.208700 -13.967600
H -15.489100 -53.120300 -13.688700
H -15.463700 -49.696100 -17.884600
C -15.178500 -46.861200 -15.241100
H -15.176000 -44.914700 -15.205600
C -15.171700 -51.207700 -14.584200
C -15.060800 -50.621600 -18.135400
C -15.056600 -49.094600 -15.227600
N -15.050700 -45.645800 -15.807500
C -15.013400 -52.694600 -14.606200
N -14.832300 -47.947000 -15.922500
N -14.785800 -50.384000 -15.631300
H -14.693500 -45.624200 -16.722500
H -14.321100 -52.164000 -20.527000
C -14.204300 -50.843700 -16.886400
H -14.185700 -50.097200 -20.037700
H -14.092600 -51.855500 -16.734700
H -14.075600 -47.814400 -17.493200
C -14.003700 -50.630800 -19.229100
H -13.982500 -52.935200 -14.655100
O -13.850500 -47.814400 -18.581900
O -13.692200 -51.963500 -19.621700
O -13.001600 -50.155800 -17.115200
C -12.790800 -49.995400 -18.545200
C -12.647800 -48.514600 -18.808200
H -12.365900 -48.369700 -19.854200
H -11.858100 -50.343900 -18.863300
H -11.824200 -48.092000 -18.092600
H -17.799800 -59.876000 -24.209100
H -17.765900 -57.624100 -24.979800
H -17.258100 -59.598300 -25.970700
C -16.976200 -59.453400 -24.924700
C -16.833200 -57.972600 -24.661700
O -16.622400 -57.812200 -23.231700
O -15.931800 -56.004500 -25.738200
O -15.773500 -60.153600 -24.698400
H -15.641500 -55.032800 -20.771600
C -15.620300 -57.337200 -25.345600
H -15.548400 -60.153600 -23.609700
H -15.531400 -56.112500 -22.851200
H -15.438300 -57.870800 -26.154200
C -15.419700 -57.124300 -23.002900
H -15.302900 -55.804000 -26.643500
H -14.930500 -62.343800 -22.839000
N -14.838200 -57.584000 -21.747800
N -14.791700 -60.021000 -22.039000
C -14.610600 -55.273400 -20.722700
N -14.573300 -62.322200 -21.924000
C -14.567400 -58.873400 -21.344100
C -14.563200 -57.346400 -24.251900
C -14.452300 -56.760300 -20.700700
H -14.448000 -63.053300 -21.322100
C -14.445500 -61.106800 -21.357600
H -14.160300 -58.271900 -24.001100
H -14.134900 -54.847700 -19.805200
C -14.012200 -58.759300 -20.084100
H -13.991000 -54.878600 -21.566800
N -13.960500 -57.432800 -19.692700
N -13.907200 -61.069800 -20.091500
H -13.762500 -61.942800 -19.744100
C -13.685400 -59.922200 -19.359900
O -13.582200 -56.331500 -24.430500
O -13.240200 -60.005500 -18.202700
H -12.712900 -56.760300 -24.013400
