36
Fragment
H -16.911100 -51.207700 -17.896900
O -16.383800 -47.962500 -12.086200
O -16.041800 -51.636500 -18.314000
C -15.938600 -48.045800 -13.243400
H -15.861500 -46.025200 -13.627600
N -15.716800 -46.898200 -13.975000
N -15.663500 -50.535200 -13.576200
H -15.633000 -53.089400 -15.450300
C -15.611800 -49.208700 -13.967600
H -15.489100 -53.120300 -13.688700
H -15.463700 -49.696100 -17.884600
C -15.178500 -46.861200 -15.241100
H -15.176000 -44.914700 -15.205600
C -15.171700 -51.207700 -14.584200
C -15.060800 -50.621600 -18.135400
C -15.056600 -49.094600 -15.227600
N -15.050700 -45.645800 -15.807500
C -15.013400 -52.694600 -14.606200
N -14.832300 -47.947000 -15.922500
N -14.785800 -50.384000 -15.631300
H -14.693500 -45.624200 -16.722500
H -14.321100 -52.164000 -20.527000
C -14.204300 -50.843700 -16.886400
H -14.185700 -50.097200 -20.037700
H -14.092600 -51.855500 -16.734700
H -14.075600 -47.814400 -17.493200
C -14.003700 -50.630800 -19.229100
H -13.982500 -52.935200 -14.655100
O -13.850500 -47.814400 -18.581900
O -13.692200 -51.963500 -19.621700
O -13.001600 -50.155800 -17.115200
C -12.790800 -49.995400 -18.545200
C -12.647800 -48.514600 -18.808200
H -12.365900 -48.369700 -19.854200
H -11.858100 -50.343900 -18.863300
H -11.824200 -48.092000 -18.092600
36
Fragment
H -22.031800 -44.452000 -24.209100
H -21.997900 -42.200100 -24.979800
H -21.490100 -44.174300 -25.970700
C -21.208200 -44.029400 -24.924700
C -21.065200 -42.548600 -24.661700
O -20.854400 -42.388200 -23.231700
O -20.163800 -40.580500 -25.738200
O -20.005500 -44.729600 -24.698400
H -19.873500 -39.608800 -20.771600
C -19.852300 -41.913200 -25.345600
H -19.780400 -44.729600 -23.609700
H -19.763400 -40.688500 -22.851200
H -19.670300 -42.446800 -26.154200
C -19.651700 -41.700300 -23.002900
H -19.534900 -40.380000 -26.643500
H -19.162500 -46.919800 -22.839000
N -19.070200 -42.160000 -21.747800
N -19.023700 -44.597000 -22.039000
C -18.842600 -39.849400 -20.722700
N -18.805300 -46.898200 -21.924000
C -18.799400 -43.449400 -21.344100
C -18.795200 -41.922400 -24.251900
C -18.684300 -41.336300 -20.700700
H -18.680000 -47.629300 -21.322100
C -18.677500 -45.682800 -21.357600
H -18.392300 -42.847900 -24.001100
H -18.366900 -39.423700 -19.805200
C -18.244200 -43.335300 -20.084100
H -18.223000 -39.454600 -21.566800
N -18.192500 -42.008800 -19.692700
N -18.139200 -45.645800 -20.091500
H -17.994500 -46.518800 -19.744100
C -17.917400 -44.498200 -19.359900
O -17.814200 -40.907500 -24.430500
O -17.472200 -44.581500 -18.202700
H -16.944900 -41.336300 -24.013400
72
Fragment
H -16.911100 -51.207700 -17.896900
O -16.383800 -47.962500 -12.086200
O -16.041800 -51.636500 -18.314000
C -15.938600 -48.045800 -13.243400
H -15.861500 -46.025200 -13.627600
N -15.716800 -46.898200 -13.975000
N -15.663500 -50.535200 -13.576200
H -15.633000 -53.089400 -15.450300
C -15.611800 -49.208700 -13.967600
H -15.489100 -53.120300 -13.688700
H -15.463700 -49.696100 -17.884600
C -15.178500 -46.861200 -15.241100
H -15.176000 -44.914700 -15.205600
C -15.171700 -51.207700 -14.584200
C -15.060800 -50.621600 -18.135400
C -15.056600 -49.094600 -15.227600
N -15.050700 -45.645800 -15.807500
C -15.013400 -52.694600 -14.606200
N -14.832300 -47.947000 -15.922500
N -14.785800 -50.384000 -15.631300
H -14.693500 -45.624200 -16.722500
H -14.321100 -52.164000 -20.527000
C -14.204300 -50.843700 -16.886400
H -14.185700 -50.097200 -20.037700
H -14.092600 -51.855500 -16.734700
H -14.075600 -47.814400 -17.493200
C -14.003700 -50.630800 -19.229100
H -13.982500 -52.935200 -14.655100
O -13.850500 -47.814400 -18.581900
O -13.692200 -51.963500 -19.621700
O -13.001600 -50.155800 -17.115200
C -12.790800 -49.995400 -18.545200
C -12.647800 -48.514600 -18.808200
H -12.365900 -48.369700 -19.854200
H -11.858100 -50.343900 -18.863300
H -11.824200 -48.092000 -18.092600
H -22.031800 -44.452000 -24.209100
H -21.997900 -42.200100 -24.979800
H -21.490100 -44.174300 -25.970700
C -21.208200 -44.029400 -24.924700
C -21.065200 -42.548600 -24.661700
O -20.854400 -42.388200 -23.231700
O -20.163800 -40.580500 -25.738200
O -20.005500 -44.729600 -24.698400
H -19.873500 -39.608800 -20.771600
C -19.852300 -41.913200 -25.345600
H -19.780400 -44.729600 -23.609700
H -19.763400 -40.688500 -22.851200
H -19.670300 -42.446800 -26.154200
C -19.651700 -41.700300 -23.002900
H -19.534900 -40.380000 -26.643500
H -19.162500 -46.919800 -22.839000
N -19.070200 -42.160000 -21.747800
N -19.023700 -44.597000 -22.039000
C -18.842600 -39.849400 -20.722700
N -18.805300 -46.898200 -21.924000
C -18.799400 -43.449400 -21.344100
C -18.795200 -41.922400 -24.251900
C -18.684300 -41.336300 -20.700700
H -18.680000 -47.629300 -21.322100
C -18.677500 -45.682800 -21.357600
H -18.392300 -42.847900 -24.001100
H -18.366900 -39.423700 -19.805200
C -18.244200 -43.335300 -20.084100
H -18.223000 -39.454600 -21.566800
N -18.192500 -42.008800 -19.692700
N -18.139200 -45.645800 -20.091500
H -17.994500 -46.518800 -19.744100
C -17.917400 -44.498200 -19.359900
O -17.814200 -40.907500 -24.430500
O -17.472200 -44.581500 -18.202700
H -16.944900 -41.336300 -24.013400
