36
Fragment
H -16.911100 -51.207700 -17.896900
O -16.383800 -47.962500 -12.086200
O -16.041800 -51.636500 -18.314000
C -15.938600 -48.045800 -13.243400
H -15.861500 -46.025200 -13.627600
N -15.716800 -46.898200 -13.975000
N -15.663500 -50.535200 -13.576200
H -15.633000 -53.089400 -15.450300
C -15.611800 -49.208700 -13.967600
H -15.489100 -53.120300 -13.688700
H -15.463700 -49.696100 -17.884600
C -15.178500 -46.861200 -15.241100
H -15.176000 -44.914700 -15.205600
C -15.171700 -51.207700 -14.584200
C -15.060800 -50.621600 -18.135400
C -15.056600 -49.094600 -15.227600
N -15.050700 -45.645800 -15.807500
C -15.013400 -52.694600 -14.606200
N -14.832300 -47.947000 -15.922500
N -14.785800 -50.384000 -15.631300
H -14.693500 -45.624200 -16.722500
H -14.321100 -52.164000 -20.527000
C -14.204300 -50.843700 -16.886400
H -14.185700 -50.097200 -20.037700
H -14.092600 -51.855500 -16.734700
H -14.075600 -47.814400 -17.493200
C -14.003700 -50.630800 -19.229100
H -13.982500 -52.935200 -14.655100
O -13.850500 -47.814400 -18.581900
O -13.692200 -51.963500 -19.621700
O -13.001600 -50.155800 -17.115200
C -12.790800 -49.995400 -18.545200
C -12.647800 -48.514600 -18.808200
H -12.365900 -48.369700 -19.854200
H -11.858100 -50.343900 -18.863300
H -11.824200 -48.092000 -18.092600
3
Fragment
H -9.708200 -50.405600 -20.527000
O -9.619300 -49.520300 -20.640700
H -9.200400 -49.140900 -19.548300
39
Fragment
H -16.911100 -51.207700 -17.896900
O -16.383800 -47.962500 -12.086200
O -16.041800 -51.636500 -18.314000
C -15.938600 -48.045800 -13.243400
H -15.861500 -46.025200 -13.627600
N -15.716800 -46.898200 -13.975000
N -15.663500 -50.535200 -13.576200
H -15.633000 -53.089400 -15.450300
C -15.611800 -49.208700 -13.967600
H -15.489100 -53.120300 -13.688700
H -15.463700 -49.696100 -17.884600
C -15.178500 -46.861200 -15.241100
H -15.176000 -44.914700 -15.205600
C -15.171700 -51.207700 -14.584200
C -15.060800 -50.621600 -18.135400
C -15.056600 -49.094600 -15.227600
N -15.050700 -45.645800 -15.807500
C -15.013400 -52.694600 -14.606200
N -14.832300 -47.947000 -15.922500
N -14.785800 -50.384000 -15.631300
H -14.693500 -45.624200 -16.722500
H -14.321100 -52.164000 -20.527000
C -14.204300 -50.843700 -16.886400
H -14.185700 -50.097200 -20.037700
H -14.092600 -51.855500 -16.734700
H -14.075600 -47.814400 -17.493200
C -14.003700 -50.630800 -19.229100
H -13.982500 -52.935200 -14.655100
O -13.850500 -47.814400 -18.581900
O -13.692200 -51.963500 -19.621700
O -13.001600 -50.155800 -17.115200
C -12.790800 -49.995400 -18.545200
C -12.647800 -48.514600 -18.808200
H -12.365900 -48.369700 -19.854200
H -11.858100 -50.343900 -18.863300
H -11.824200 -48.092000 -18.092600
H -9.708200 -50.405600 -20.527000
O -9.619300 -49.520300 -20.640700
H -9.200400 -49.140900 -19.548300
