12
Fragment
H -10.364300 -12.279300 -41.989000
H -10.156800 -11.252100 -40.823900
H -10.087600 -12.790900 -40.533300
C -9.888000 -12.104700 -41.174200
O -8.738900 -11.848200 -43.643800
N -8.463800 -12.090900 -41.440000
C -8.025000 -11.951300 -42.631600
H -7.788000 -13.028100 -39.819600
H -7.707500 -11.466600 -39.706700
C -7.582500 -12.218100 -40.291000
H -7.102700 -11.925200 -42.750700
H -6.670500 -12.243600 -40.589700
12
Fragment
H -10.227700 -8.384700 -44.042700
H -9.795600 -8.703100 -41.881800
C -9.315700 -8.410200 -44.341500
H -9.190700 -9.161700 -44.925700
H -9.110300 -7.600200 -44.812900
C -8.873300 -8.677000 -42.000800
N -8.434500 -8.537400 -43.192400
O -8.159300 -8.780100 -40.988600
C -7.010200 -8.523600 -43.458200
H -6.810700 -7.837400 -44.099100
H -6.741500 -9.376200 -43.808600
H -6.534000 -8.349000 -42.643500
24
Fragment
H -10.364300 -12.279300 -41.989000
H -10.156800 -11.252100 -40.823900
H -10.087600 -12.790900 -40.533300
C -9.888000 -12.104700 -41.174200
O -8.738900 -11.848200 -43.643800
N -8.463800 -12.090900 -41.440000
C -8.025000 -11.951300 -42.631600
H -7.788000 -13.028100 -39.819600
H -7.707500 -11.466600 -39.706700
C -7.582500 -12.218100 -40.291000
H -7.102700 -11.925200 -42.750700
H -6.670500 -12.243600 -40.589700
H -10.227700 -8.384700 -44.042700
H -9.795600 -8.703100 -41.881800
C -9.315700 -8.410200 -44.341500
H -9.190700 -9.161700 -44.925700
H -9.110300 -7.600200 -44.812900
C -8.873300 -8.677000 -42.000800
N -8.434500 -8.537400 -43.192400
O -8.159300 -8.780100 -40.988600
C -7.010200 -8.523600 -43.458200
H -6.810700 -7.837400 -44.099100
H -6.741500 -9.376200 -43.808600
H -6.534000 -8.349000 -42.643500
