12
Fragment
H -10.364300 -12.279300 -41.989000
H -10.156800 -11.252100 -40.823900
H -10.087600 -12.790900 -40.533300
C -9.888000 -12.104700 -41.174200
O -8.738900 -11.848200 -43.643800
N -8.463800 -12.090900 -41.440000
C -8.025000 -11.951300 -42.631600
H -7.788000 -13.028100 -39.819600
H -7.707500 -11.466600 -39.706700
C -7.582500 -12.218100 -40.291000
H -7.102700 -11.925200 -42.750700
H -6.670500 -12.243600 -40.589700
22
Fragment
H -15.660700 -12.447800 -31.105200
N -15.343300 -12.465700 -31.903900
N -15.086100 -13.588500 -32.539500
N -15.084000 -11.399200 -32.568200
C -14.632500 -13.141600 -33.689600
N -14.620400 -11.831700 -33.738100
H -14.471500 -15.711200 -33.816300
C -14.198100 -13.996300 -34.788400
C -14.194100 -15.374300 -34.638100
H -13.974800 -11.564900 -35.779800
N -13.833400 -16.248200 -35.555200
C -13.778700 -13.442100 -35.998100
N -13.735100 -12.170700 -36.341400
H -13.467800 -11.946500 -37.128200
C -13.443600 -15.709100 -36.700000
N -13.393600 -14.363500 -36.912400
N -13.021500 -16.341100 -37.803900
N -12.944700 -14.095300 -38.155100
C -12.774800 -15.322700 -38.585600
N -12.244700 -15.502900 -39.934700
O -12.071400 -16.613300 -40.318000
O -12.023700 -14.520300 -40.585500
34
Fragment
H -10.364300 -12.279300 -41.989000
H -10.156800 -11.252100 -40.823900
H -10.087600 -12.790900 -40.533300
C -9.888000 -12.104700 -41.174200
O -8.738900 -11.848200 -43.643800
N -8.463800 -12.090900 -41.440000
C -8.025000 -11.951300 -42.631600
H -7.788000 -13.028100 -39.819600
H -7.707500 -11.466600 -39.706700
C -7.582500 -12.218100 -40.291000
H -7.102700 -11.925200 -42.750700
H -6.670500 -12.243600 -40.589700
H -15.660700 -12.447800 -31.105200
N -15.343300 -12.465700 -31.903900
N -15.086100 -13.588500 -32.539500
N -15.084000 -11.399200 -32.568200
C -14.632500 -13.141600 -33.689600
N -14.620400 -11.831700 -33.738100
H -14.471500 -15.711200 -33.816300
C -14.198100 -13.996300 -34.788400
C -14.194100 -15.374300 -34.638100
H -13.974800 -11.564900 -35.779800
N -13.833400 -16.248200 -35.555200
C -13.778700 -13.442100 -35.998100
N -13.735100 -12.170700 -36.341400
H -13.467800 -11.946500 -37.128200
C -13.443600 -15.709100 -36.700000
N -13.393600 -14.363500 -36.912400
N -13.021500 -16.341100 -37.803900
N -12.944700 -14.095300 -38.155100
C -12.774800 -15.322700 -38.585600
N -12.244700 -15.502900 -39.934700
O -12.071400 -16.613300 -40.318000
O -12.023700 -14.520300 -40.585500
