12
Fragment
H -10.364300 -12.279300 -41.989000
H -10.156800 -11.252100 -40.823900
H -10.087600 -12.790900 -40.533300
C -9.888000 -12.104700 -41.174200
O -8.738900 -11.848200 -43.643800
N -8.463800 -12.090900 -41.440000
C -8.025000 -11.951300 -42.631600
H -7.788000 -13.028100 -39.819600
H -7.707500 -11.466600 -39.706700
C -7.582500 -12.218100 -40.291000
H -7.102700 -11.925200 -42.750700
H -6.670500 -12.243600 -40.589700
22
Fragment
H -8.005700 -11.618500 -45.210600
N -7.688300 -11.600700 -46.009300
N -7.431100 -10.477800 -46.644900
N -7.429000 -12.667200 -46.673600
C -6.977500 -10.924700 -47.795000
N -6.965400 -12.234600 -47.843600
H -6.816500 -8.355100 -47.921700
C -6.543100 -10.070000 -48.893800
C -6.539200 -8.692100 -48.743500
H -6.319800 -12.501400 -49.885200
N -6.178400 -7.818100 -49.660600
C -6.123700 -10.624300 -50.103500
N -6.080100 -11.895700 -50.446800
H -5.812800 -12.119800 -51.233600
C -5.788600 -8.357200 -50.805400
N -5.738700 -9.702900 -51.017800
N -5.366600 -7.725300 -51.909300
N -5.289700 -9.971000 -52.260500
C -5.119800 -8.743600 -52.691000
N -4.589700 -8.563500 -54.040100
O -4.416400 -7.453000 -54.423400
O -4.368700 -9.546100 -54.690900
34
Fragment
H -10.364300 -12.279300 -41.989000
H -10.156800 -11.252100 -40.823900
H -10.087600 -12.790900 -40.533300
C -9.888000 -12.104700 -41.174200
O -8.738900 -11.848200 -43.643800
N -8.463800 -12.090900 -41.440000
C -8.025000 -11.951300 -42.631600
H -7.788000 -13.028100 -39.819600
H -7.707500 -11.466600 -39.706700
C -7.582500 -12.218100 -40.291000
H -7.102700 -11.925200 -42.750700
H -6.670500 -12.243600 -40.589700
H -8.005700 -11.618500 -45.210600
N -7.688300 -11.600700 -46.009300
N -7.431100 -10.477800 -46.644900
N -7.429000 -12.667200 -46.673600
C -6.977500 -10.924700 -47.795000
N -6.965400 -12.234600 -47.843600
H -6.816500 -8.355100 -47.921700
C -6.543100 -10.070000 -48.893800
C -6.539200 -8.692100 -48.743500
H -6.319800 -12.501400 -49.885200
N -6.178400 -7.818100 -49.660600
C -6.123700 -10.624300 -50.103500
N -6.080100 -11.895700 -50.446800
H -5.812800 -12.119800 -51.233600
C -5.788600 -8.357200 -50.805400
N -5.738700 -9.702900 -51.017800
N -5.366600 -7.725300 -51.909300
N -5.289700 -9.971000 -52.260500
C -5.119800 -8.743600 -52.691000
N -4.589700 -8.563500 -54.040100
O -4.416400 -7.453000 -54.423400
O -4.368700 -9.546100 -54.690900
