22
Fragment
H -30.275000 -9.300100 -31.954800
H -30.053500 -9.398000 -29.550300
H -29.578500 -10.386000 -32.845700
C -29.488900 -9.862700 -32.033800
N -29.430200 -10.770900 -30.881100
C -29.271500 -9.960300 -29.662200
H -29.216400 -10.550000 -28.893700
H -28.946200 -7.671900 -30.785000
H -28.290500 -12.133400 -31.821300
N -28.286400 -9.002500 -32.141800
C -28.215800 -11.593400 -31.019200
C -28.173500 -8.250500 -30.878800
H -28.155000 -12.195400 -30.261200
N -28.085300 -9.123900 -29.706000
H -27.383900 -7.688300 -30.914900
H -27.170000 -10.401600 -33.054600
C -27.109500 -9.880800 -32.238600
N -26.984400 -10.794700 -31.094300
C -26.915000 -9.980600 -29.874000
H -26.838400 -10.567500 -29.105300
H -26.310700 -9.333100 -32.294800
H -26.118600 -9.427900 -29.906400
29
Fragment
H -34.304400 -4.980900 -38.081700
O -33.795000 -5.567500 -38.776900
H -33.252100 -6.073100 -36.253600
C -33.195600 -6.646000 -38.188500
H -32.967400 -7.617900 -39.940100
C -32.965800 -6.745100 -36.829400
C -32.802900 -7.673600 -39.026400
C -32.305900 -7.852900 -36.336700
C -32.166900 -8.782100 -38.506300
H -32.135400 -7.901000 -35.424000
H -31.918900 -9.471100 -39.079800
C -31.885700 -8.899300 -37.150900
C -31.162700 -10.051000 -36.592700
H -31.029400 -10.048900 -35.672100
H -30.826800 -11.091600 -38.171600
C -30.681300 -11.088400 -37.253200
H -30.104700 -11.827200 -34.736500
C -29.943900 -12.237300 -36.712500
C -29.759700 -12.439600 -35.345200
H -29.527200 -13.038500 -38.518900
C -29.418200 -13.163700 -37.603800
C -29.069400 -13.541100 -34.890900
O -28.915700 -13.675100 -33.541600
C -28.732100 -14.274300 -37.136900
H -28.614100 -14.572900 -33.275800
C -28.539600 -14.464700 -35.785600
O -28.238600 -15.149100 -38.064600
H -28.062100 -15.200100 -35.476500
H -27.617000 -15.877400 -37.595400
51
Fragment
H -30.275000 -9.300100 -31.954800
H -30.053500 -9.398000 -29.550300
H -29.578500 -10.386000 -32.845700
C -29.488900 -9.862700 -32.033800
N -29.430200 -10.770900 -30.881100
C -29.271500 -9.960300 -29.662200
H -29.216400 -10.550000 -28.893700
H -28.946200 -7.671900 -30.785000
H -28.290500 -12.133400 -31.821300
N -28.286400 -9.002500 -32.141800
C -28.215800 -11.593400 -31.019200
C -28.173500 -8.250500 -30.878800
H -28.155000 -12.195400 -30.261200
N -28.085300 -9.123900 -29.706000
H -27.383900 -7.688300 -30.914900
H -27.170000 -10.401600 -33.054600
C -27.109500 -9.880800 -32.238600
N -26.984400 -10.794700 -31.094300
C -26.915000 -9.980600 -29.874000
H -26.838400 -10.567500 -29.105300
H -26.310700 -9.333100 -32.294800
H -26.118600 -9.427900 -29.906400
H -34.304400 -4.980900 -38.081700
O -33.795000 -5.567500 -38.776900
H -33.252100 -6.073100 -36.253600
C -33.195600 -6.646000 -38.188500
H -32.967400 -7.617900 -39.940100
C -32.965800 -6.745100 -36.829400
C -32.802900 -7.673600 -39.026400
C -32.305900 -7.852900 -36.336700
C -32.166900 -8.782100 -38.506300
H -32.135400 -7.901000 -35.424000
H -31.918900 -9.471100 -39.079800
C -31.885700 -8.899300 -37.150900
C -31.162700 -10.051000 -36.592700
H -31.029400 -10.048900 -35.672100
H -30.826800 -11.091600 -38.171600
C -30.681300 -11.088400 -37.253200
H -30.104700 -11.827200 -34.736500
C -29.943900 -12.237300 -36.712500
C -29.759700 -12.439600 -35.345200
H -29.527200 -13.038500 -38.518900
C -29.418200 -13.163700 -37.603800
C -29.069400 -13.541100 -34.890900
O -28.915700 -13.675100 -33.541600
C -28.732100 -14.274300 -37.136900
H -28.614100 -14.572900 -33.275800
C -28.539600 -14.464700 -35.785600
O -28.238600 -15.149100 -38.064600
H -28.062100 -15.200100 -35.476500
H -27.617000 -15.877400 -37.595400
