22
Fragment
H -30.275000 -9.300100 -31.954800
H -30.053500 -9.398000 -29.550300
H -29.578500 -10.386000 -32.845700
C -29.488900 -9.862700 -32.033800
N -29.430200 -10.770900 -30.881100
C -29.271500 -9.960300 -29.662200
H -29.216400 -10.550000 -28.893700
H -28.946200 -7.671900 -30.785000
H -28.290500 -12.133400 -31.821300
N -28.286400 -9.002500 -32.141800
C -28.215800 -11.593400 -31.019200
C -28.173500 -8.250500 -30.878800
H -28.155000 -12.195400 -30.261200
N -28.085300 -9.123900 -29.706000
H -27.383900 -7.688300 -30.914900
H -27.170000 -10.401600 -33.054600
C -27.109500 -9.880800 -32.238600
N -26.984400 -10.794700 -31.094300
C -26.915000 -9.980600 -29.874000
H -26.838400 -10.567500 -29.105300
H -26.310700 -9.333100 -32.294800
H -26.118600 -9.427900 -29.906400
29
Fragment
H -37.376700 -22.853400 -30.896800
H -36.931700 -22.176100 -33.015800
O -36.755200 -22.125100 -30.427700
C -36.454100 -21.440700 -32.706600
H -36.379600 -21.548900 -35.216400
C -36.261700 -21.250300 -31.355300
O -36.078000 -20.651100 -34.950700
C -35.924300 -20.517100 -33.601400
C -35.575600 -20.139700 -30.888400
H -35.466500 -20.014500 -29.973300
C -35.234100 -19.415600 -33.147000
C -35.049800 -19.213300 -31.779700
H -34.889000 -18.803200 -33.755700
C -34.312500 -18.064400 -31.239100
H -34.166900 -18.067600 -30.320600
H -33.964300 -17.024900 -32.820100
C -33.831100 -17.027000 -31.899600
C -33.108100 -15.875300 -31.341400
H -33.074800 -16.447100 -29.412400
H -32.858300 -14.877000 -33.068300
C -32.826900 -15.758100 -29.985900
C -32.687800 -14.828900 -32.155500
C -32.190900 -14.649600 -29.465800
C -32.027900 -13.721100 -31.662800
H -32.026400 -14.593900 -28.552100
C -31.798200 -13.622000 -30.303700
H -31.741600 -13.049100 -32.238600
O -31.198700 -12.543500 -29.715400
H -30.689400 -11.956900 -30.410600
51
Fragment
H -30.275000 -9.300100 -31.954800
H -30.053500 -9.398000 -29.550300
H -29.578500 -10.386000 -32.845700
C -29.488900 -9.862700 -32.033800
N -29.430200 -10.770900 -30.881100
C -29.271500 -9.960300 -29.662200
H -29.216400 -10.550000 -28.893700
H -28.946200 -7.671900 -30.785000
H -28.290500 -12.133400 -31.821300
N -28.286400 -9.002500 -32.141800
C -28.215800 -11.593400 -31.019200
C -28.173500 -8.250500 -30.878800
H -28.155000 -12.195400 -30.261200
N -28.085300 -9.123900 -29.706000
H -27.383900 -7.688300 -30.914900
H -27.170000 -10.401600 -33.054600
C -27.109500 -9.880800 -32.238600
N -26.984400 -10.794700 -31.094300
C -26.915000 -9.980600 -29.874000
H -26.838400 -10.567500 -29.105300
H -26.310700 -9.333100 -32.294800
H -26.118600 -9.427900 -29.906400
H -37.376700 -22.853400 -30.896800
H -36.931700 -22.176100 -33.015800
O -36.755200 -22.125100 -30.427700
C -36.454100 -21.440700 -32.706600
H -36.379600 -21.548900 -35.216400
C -36.261700 -21.250300 -31.355300
O -36.078000 -20.651100 -34.950700
C -35.924300 -20.517100 -33.601400
C -35.575600 -20.139700 -30.888400
H -35.466500 -20.014500 -29.973300
C -35.234100 -19.415600 -33.147000
C -35.049800 -19.213300 -31.779700
H -34.889000 -18.803200 -33.755700
C -34.312500 -18.064400 -31.239100
H -34.166900 -18.067600 -30.320600
H -33.964300 -17.024900 -32.820100
C -33.831100 -17.027000 -31.899600
C -33.108100 -15.875300 -31.341400
H -33.074800 -16.447100 -29.412400
H -32.858300 -14.877000 -33.068300
C -32.826900 -15.758100 -29.985900
C -32.687800 -14.828900 -32.155500
C -32.190900 -14.649600 -29.465800
C -32.027900 -13.721100 -31.662800
H -32.026400 -14.593900 -28.552100
C -31.798200 -13.622000 -30.303700
H -31.741600 -13.049100 -32.238600
O -31.198700 -12.543500 -29.715400
H -30.689400 -11.956900 -30.410600
