22
Fragment
H -30.275000 -9.300100 -31.954800
H -30.053500 -9.398000 -29.550300
H -29.578500 -10.386000 -32.845700
C -29.488900 -9.862700 -32.033800
N -29.430200 -10.770900 -30.881100
C -29.271500 -9.960300 -29.662200
H -29.216400 -10.550000 -28.893700
H -28.946200 -7.671900 -30.785000
H -28.290500 -12.133400 -31.821300
N -28.286400 -9.002500 -32.141800
C -28.215800 -11.593400 -31.019200
C -28.173500 -8.250500 -30.878800
H -28.155000 -12.195400 -30.261200
N -28.085300 -9.123900 -29.706000
H -27.383900 -7.688300 -30.914900
H -27.170000 -10.401600 -33.054600
C -27.109500 -9.880800 -32.238600
N -26.984400 -10.794700 -31.094300
C -26.915000 -9.980600 -29.874000
H -26.838400 -10.567500 -29.105300
H -26.310700 -9.333100 -32.294800
H -26.118600 -9.427900 -29.906400
29
Fragment
H -25.780700 -5.050600 -30.896800
H -25.335700 -5.727900 -33.015800
O -25.159200 -5.778900 -30.427700
C -24.858100 -6.463300 -32.706600
H -24.783600 -6.355100 -35.216400
C -24.665700 -6.653700 -31.355300
O -24.482000 -7.252900 -34.950700
C -24.328300 -7.386900 -33.601400
C -23.979600 -7.764300 -30.888400
H -23.870500 -7.889500 -29.973300
C -23.638100 -8.488400 -33.147000
C -23.453800 -8.690700 -31.779700
H -23.293000 -9.100800 -33.755700
C -22.716500 -9.839600 -31.239100
H -22.570900 -9.836400 -30.320600
H -22.368300 -10.879100 -32.820100
C -22.235100 -10.877000 -31.899600
C -21.512100 -12.028700 -31.341400
H -21.478800 -11.456900 -29.412400
H -21.262300 -13.027000 -33.068300
C -21.230900 -12.145900 -29.985900
C -21.091800 -13.075100 -32.155500
C -20.594900 -13.254400 -29.465800
C -20.431900 -14.182900 -31.662800
H -20.430400 -13.310100 -28.552100
C -20.202200 -14.282000 -30.303700
H -20.145600 -14.854900 -32.238600
O -19.602700 -15.360500 -29.715400
H -19.093400 -15.947100 -30.410600
51
Fragment
H -30.275000 -9.300100 -31.954800
H -30.053500 -9.398000 -29.550300
H -29.578500 -10.386000 -32.845700
C -29.488900 -9.862700 -32.033800
N -29.430200 -10.770900 -30.881100
C -29.271500 -9.960300 -29.662200
H -29.216400 -10.550000 -28.893700
H -28.946200 -7.671900 -30.785000
H -28.290500 -12.133400 -31.821300
N -28.286400 -9.002500 -32.141800
C -28.215800 -11.593400 -31.019200
C -28.173500 -8.250500 -30.878800
H -28.155000 -12.195400 -30.261200
N -28.085300 -9.123900 -29.706000
H -27.383900 -7.688300 -30.914900
H -27.170000 -10.401600 -33.054600
C -27.109500 -9.880800 -32.238600
N -26.984400 -10.794700 -31.094300
C -26.915000 -9.980600 -29.874000
H -26.838400 -10.567500 -29.105300
H -26.310700 -9.333100 -32.294800
H -26.118600 -9.427900 -29.906400
H -25.780700 -5.050600 -30.896800
H -25.335700 -5.727900 -33.015800
O -25.159200 -5.778900 -30.427700
C -24.858100 -6.463300 -32.706600
H -24.783600 -6.355100 -35.216400
C -24.665700 -6.653700 -31.355300
O -24.482000 -7.252900 -34.950700
C -24.328300 -7.386900 -33.601400
C -23.979600 -7.764300 -30.888400
H -23.870500 -7.889500 -29.973300
C -23.638100 -8.488400 -33.147000
C -23.453800 -8.690700 -31.779700
H -23.293000 -9.100800 -33.755700
C -22.716500 -9.839600 -31.239100
H -22.570900 -9.836400 -30.320600
H -22.368300 -10.879100 -32.820100
C -22.235100 -10.877000 -31.899600
C -21.512100 -12.028700 -31.341400
H -21.478800 -11.456900 -29.412400
H -21.262300 -13.027000 -33.068300
C -21.230900 -12.145900 -29.985900
C -21.091800 -13.075100 -32.155500
C -20.594900 -13.254400 -29.465800
C -20.431900 -14.182900 -31.662800
H -20.430400 -13.310100 -28.552100
C -20.202200 -14.282000 -30.303700
H -20.145600 -14.854900 -32.238600
O -19.602700 -15.360500 -29.715400
H -19.093400 -15.947100 -30.410600
