22
Fragment
H -30.275000 -9.300100 -31.954800
H -30.053500 -9.398000 -29.550300
H -29.578500 -10.386000 -32.845700
C -29.488900 -9.862700 -32.033800
N -29.430200 -10.770900 -30.881100
C -29.271500 -9.960300 -29.662200
H -29.216400 -10.550000 -28.893700
H -28.946200 -7.671900 -30.785000
H -28.290500 -12.133400 -31.821300
N -28.286400 -9.002500 -32.141800
C -28.215800 -11.593400 -31.019200
C -28.173500 -8.250500 -30.878800
H -28.155000 -12.195400 -30.261200
N -28.085300 -9.123900 -29.706000
H -27.383900 -7.688300 -30.914900
H -27.170000 -10.401600 -33.054600
C -27.109500 -9.880800 -32.238600
N -26.984400 -10.794700 -31.094300
C -26.915000 -9.980600 -29.874000
H -26.838400 -10.567500 -29.105300
H -26.310700 -9.333100 -32.294800
H -26.118600 -9.427900 -29.906400
22
Fragment
H -27.279200 -11.500100 -38.585800
H -27.087000 -11.594900 -36.197500
H -26.559300 -10.360500 -39.386900
C -26.482800 -10.947400 -38.618200
N -26.413400 -10.133300 -37.397900
C -26.288200 -11.047200 -36.253600
H -26.227700 -10.526400 -35.437700
H -26.013800 -13.239700 -37.577400
N -25.312400 -11.804100 -38.786200
H -25.242800 -8.732600 -38.231000
C -25.224200 -12.677500 -37.613400
C -25.182000 -9.334600 -37.473000
N -25.111300 -11.925500 -36.350400
H -25.107300 -8.794600 -36.671000
H -24.451500 -13.256100 -37.707300
H -24.181300 -10.378000 -39.598600
C -24.126300 -10.967700 -38.830100
N -23.967500 -10.157100 -37.611100
C -23.908800 -11.065300 -36.458400
H -23.819300 -10.542000 -35.646600
H -23.344200 -11.530000 -38.941900
H -23.122800 -11.627900 -36.537400
44
Fragment
H -30.275000 -9.300100 -31.954800
H -30.053500 -9.398000 -29.550300
H -29.578500 -10.386000 -32.845700
C -29.488900 -9.862700 -32.033800
N -29.430200 -10.770900 -30.881100
C -29.271500 -9.960300 -29.662200
H -29.216400 -10.550000 -28.893700
H -28.946200 -7.671900 -30.785000
H -28.290500 -12.133400 -31.821300
N -28.286400 -9.002500 -32.141800
C -28.215800 -11.593400 -31.019200
C -28.173500 -8.250500 -30.878800
H -28.155000 -12.195400 -30.261200
N -28.085300 -9.123900 -29.706000
H -27.383900 -7.688300 -30.914900
H -27.170000 -10.401600 -33.054600
C -27.109500 -9.880800 -32.238600
N -26.984400 -10.794700 -31.094300
C -26.915000 -9.980600 -29.874000
H -26.838400 -10.567500 -29.105300
H -26.310700 -9.333100 -32.294800
H -26.118600 -9.427900 -29.906400
H -27.279200 -11.500100 -38.585800
H -27.087000 -11.594900 -36.197500
H -26.559300 -10.360500 -39.386900
C -26.482800 -10.947400 -38.618200
N -26.413400 -10.133300 -37.397900
C -26.288200 -11.047200 -36.253600
H -26.227700 -10.526400 -35.437700
H -26.013800 -13.239700 -37.577400
N -25.312400 -11.804100 -38.786200
H -25.242800 -8.732600 -38.231000
C -25.224200 -12.677500 -37.613400
C -25.182000 -9.334600 -37.473000
N -25.111300 -11.925500 -36.350400
H -25.107300 -8.794600 -36.671000
H -24.451500 -13.256100 -37.707300
H -24.181300 -10.378000 -39.598600
C -24.126300 -10.967700 -38.830100
N -23.967500 -10.157100 -37.611100
C -23.908800 -11.065300 -36.458400
H -23.819300 -10.542000 -35.646600
H -23.344200 -11.530000 -38.941900
H -23.122800 -11.627900 -36.537400
