22
Fragment
H -30.275000 -9.300100 -31.954800
H -30.053500 -9.398000 -29.550300
H -29.578500 -10.386000 -32.845700
C -29.488900 -9.862700 -32.033800
N -29.430200 -10.770900 -30.881100
C -29.271500 -9.960300 -29.662200
H -29.216400 -10.550000 -28.893700
H -28.946200 -7.671900 -30.785000
H -28.290500 -12.133400 -31.821300
N -28.286400 -9.002500 -32.141800
C -28.215800 -11.593400 -31.019200
C -28.173500 -8.250500 -30.878800
H -28.155000 -12.195400 -30.261200
N -28.085300 -9.123900 -29.706000
H -27.383900 -7.688300 -30.914900
H -27.170000 -10.401600 -33.054600
C -27.109500 -9.880800 -32.238600
N -26.984400 -10.794700 -31.094300
C -26.915000 -9.980600 -29.874000
H -26.838400 -10.567500 -29.105300
H -26.310700 -9.333100 -32.294800
H -26.118600 -9.427900 -29.906400
22
Fragment
H -30.275000 -2.324100 -31.954800
H -30.053500 -2.422000 -29.550300
H -29.578500 -3.410000 -32.845700
C -29.488900 -2.886700 -32.033800
N -29.430200 -3.794900 -30.881100
C -29.271500 -2.984300 -29.662200
H -29.216400 -3.574000 -28.893700
H -28.946200 -0.695900 -30.785000
H -28.290500 -5.157400 -31.821300
N -28.286400 -2.026500 -32.141800
C -28.215800 -4.617400 -31.019200
C -28.173500 -1.274500 -30.878800
H -28.155000 -5.219400 -30.261200
N -28.085300 -2.147900 -29.706000
H -27.383900 -0.712300 -30.914900
H -27.170000 -3.425600 -33.054600
C -27.109500 -2.904800 -32.238600
N -26.984400 -3.818700 -31.094300
C -26.915000 -3.004600 -29.874000
H -26.838400 -3.591500 -29.105300
H -26.310700 -2.357100 -32.294800
H -26.118600 -2.451900 -29.906400
44
Fragment
H -30.275000 -9.300100 -31.954800
H -30.053500 -9.398000 -29.550300
H -29.578500 -10.386000 -32.845700
C -29.488900 -9.862700 -32.033800
N -29.430200 -10.770900 -30.881100
C -29.271500 -9.960300 -29.662200
H -29.216400 -10.550000 -28.893700
H -28.946200 -7.671900 -30.785000
H -28.290500 -12.133400 -31.821300
N -28.286400 -9.002500 -32.141800
C -28.215800 -11.593400 -31.019200
C -28.173500 -8.250500 -30.878800
H -28.155000 -12.195400 -30.261200
N -28.085300 -9.123900 -29.706000
H -27.383900 -7.688300 -30.914900
H -27.170000 -10.401600 -33.054600
C -27.109500 -9.880800 -32.238600
N -26.984400 -10.794700 -31.094300
C -26.915000 -9.980600 -29.874000
H -26.838400 -10.567500 -29.105300
H -26.310700 -9.333100 -32.294800
H -26.118600 -9.427900 -29.906400
H -30.275000 -2.324100 -31.954800
H -30.053500 -2.422000 -29.550300
H -29.578500 -3.410000 -32.845700
C -29.488900 -2.886700 -32.033800
N -29.430200 -3.794900 -30.881100
C -29.271500 -2.984300 -29.662200
H -29.216400 -3.574000 -28.893700
H -28.946200 -0.695900 -30.785000
H -28.290500 -5.157400 -31.821300
N -28.286400 -2.026500 -32.141800
C -28.215800 -4.617400 -31.019200
C -28.173500 -1.274500 -30.878800
H -28.155000 -5.219400 -30.261200
N -28.085300 -2.147900 -29.706000
H -27.383900 -0.712300 -30.914900
H -27.170000 -3.425600 -33.054600
C -27.109500 -2.904800 -32.238600
N -26.984400 -3.818700 -31.094300
C -26.915000 -3.004600 -29.874000
H -26.838400 -3.591500 -29.105300
H -26.310700 -2.357100 -32.294800
H -26.118600 -2.451900 -29.906400
