3
Fragment
H -19.425900 -10.913100 -17.804500
O -19.123000 -11.666800 -17.668100
H -18.295800 -11.598300 -17.562300
35
Fragment
O -27.827300 -8.539100 -21.422700
H -27.806500 -11.642100 -12.707800
H -27.391600 -9.112600 -19.103100
H -26.980300 -11.048700 -10.633000
C -26.914400 -11.394800 -12.614800
N -26.647500 -8.811700 -21.580700
C -26.488600 -9.327400 -19.180900
H -26.417900 -11.560800 -14.567300
C -26.413900 -11.056500 -11.370900
H -26.212800 -9.806300 -17.248800
O -26.083000 -8.751700 -22.675500
C -26.077400 -11.364500 -13.724800
C -25.856300 -9.241200 -20.422200
C -25.779200 -9.730700 -18.068300
C -25.100800 -10.733000 -11.216700
H -24.778000 -10.511200 -10.373000
C -24.745200 -11.044500 -13.580800
C -24.520300 -9.535000 -20.549700
N -24.446900 -10.511200 -15.857000
C -24.395700 -10.031600 -18.160000
C -24.229700 -10.729500 -12.311500
H -24.103800 -9.475700 -21.379400
C -23.849500 -10.985200 -14.792900
C -23.796900 -9.920700 -19.433200
N -23.721600 -10.418700 -17.025700
H -23.329300 -10.523900 -12.203100
H -22.879200 -10.596700 -17.044900
C -22.482700 -11.505000 -14.653900
N -22.385100 -10.192600 -19.628200
H -22.211100 -11.856100 -13.835700
O -21.919100 -10.117100 -20.780400
O -21.669800 -10.470900 -18.664700
N -21.658100 -11.486000 -15.632700
O -20.470400 -12.132300 -15.305200
H -19.959400 -12.107500 -15.946300
38
Fragment
H -19.425900 -10.913100 -17.804500
O -19.123000 -11.666800 -17.668100
H -18.295800 -11.598300 -17.562300
O -27.827300 -8.539100 -21.422700
H -27.806500 -11.642100 -12.707800
H -27.391600 -9.112600 -19.103100
H -26.980300 -11.048700 -10.633000
C -26.914400 -11.394800 -12.614800
N -26.647500 -8.811700 -21.580700
C -26.488600 -9.327400 -19.180900
H -26.417900 -11.560800 -14.567300
C -26.413900 -11.056500 -11.370900
H -26.212800 -9.806300 -17.248800
O -26.083000 -8.751700 -22.675500
C -26.077400 -11.364500 -13.724800
C -25.856300 -9.241200 -20.422200
C -25.779200 -9.730700 -18.068300
C -25.100800 -10.733000 -11.216700
H -24.778000 -10.511200 -10.373000
C -24.745200 -11.044500 -13.580800
C -24.520300 -9.535000 -20.549700
N -24.446900 -10.511200 -15.857000
C -24.395700 -10.031600 -18.160000
C -24.229700 -10.729500 -12.311500
H -24.103800 -9.475700 -21.379400
C -23.849500 -10.985200 -14.792900
C -23.796900 -9.920700 -19.433200
N -23.721600 -10.418700 -17.025700
H -23.329300 -10.523900 -12.203100
H -22.879200 -10.596700 -17.044900
C -22.482700 -11.505000 -14.653900
N -22.385100 -10.192600 -19.628200
H -22.211100 -11.856100 -13.835700
O -21.919100 -10.117100 -20.780400
O -21.669800 -10.470900 -18.664700
N -21.658100 -11.486000 -15.632700
O -20.470400 -12.132300 -15.305200
H -19.959400 -12.107500 -15.946300
