20
Fragment
N -16.105700 -11.174800 -40.366800
C -15.141700 -11.623500 -39.949800
C -13.948400 -12.141800 -39.358900
H -13.935300 -12.877500 -41.888500
C -13.828200 -11.865600 -37.956800
N -13.758600 -11.651400 -36.841400
C -13.177100 -13.173700 -41.440700
C -12.993000 -12.833400 -40.051900
H -12.426900 -14.147600 -42.980800
C -12.269700 -13.910200 -42.095000
C -11.776700 -13.255700 -39.405000
H -11.635300 -13.039100 -38.511800
C -11.052700 -14.341800 -41.449000
C -10.845700 -13.955000 -40.068400
N -10.507000 -16.090000 -44.446700
C -10.339100 -15.627500 -43.414900
C -10.125700 -15.109200 -42.102100
H -10.057300 -14.194100 -39.638300
C -8.886000 -15.493600 -41.493900
N -7.891100 -15.800000 -41.022500
38
Fragment
H -23.711700 -13.486200 -35.416700
H -23.203200 -13.357800 -33.197900
C -22.814900 -13.503300 -35.168100
C -22.518800 -13.439100 -33.821100
N -21.905000 -13.586800 -36.138700
C -21.204200 -13.497100 -33.401800
H -20.980400 -13.407300 -32.503700
C -20.641400 -13.683500 -35.712900
C -20.236200 -13.691200 -34.363300
H -20.055000 -15.270100 -31.954700
H -19.988600 -15.986400 -29.741500
C -19.448200 -13.734600 -36.555500
N -19.437900 -13.832800 -37.890800
C -19.344500 -15.041100 -31.400600
C -19.297400 -15.470400 -30.088600
C -18.753500 -13.710600 -34.315800
C -18.312200 -13.720600 -35.731100
C -18.299300 -14.259000 -31.862800
H -18.233600 -15.393100 -28.398800
C -18.221000 -13.922500 -38.433000
C -18.216000 -15.129300 -29.290600
H -18.160000 -13.944200 -39.359500
C -17.962000 -13.704400 -33.196400
C -17.216800 -14.039300 -30.994300
N -17.145700 -14.443100 -29.718500
C -17.085000 -13.917900 -36.329300
C -17.052200 -13.985200 -37.711300
C -16.599700 -13.161300 -33.061300
H -16.309300 -14.002200 -35.823500
H -16.238800 -14.072600 -38.153400
C -16.167300 -13.337700 -31.730300
H -16.069200 -12.182000 -34.753900
C -15.800100 -12.391700 -33.887400
N -15.005200 -12.912300 -31.227300
C -14.591100 -11.943800 -33.392400
C -14.234500 -12.239300 -32.092400
H -14.021000 -11.444800 -33.931800
H -13.400600 -11.952300 -31.795400
58
Fragment
N -16.105700 -11.174800 -40.366800
C -15.141700 -11.623500 -39.949800
C -13.948400 -12.141800 -39.358900
H -13.935300 -12.877500 -41.888500
C -13.828200 -11.865600 -37.956800
N -13.758600 -11.651400 -36.841400
C -13.177100 -13.173700 -41.440700
C -12.993000 -12.833400 -40.051900
H -12.426900 -14.147600 -42.980800
C -12.269700 -13.910200 -42.095000
C -11.776700 -13.255700 -39.405000
H -11.635300 -13.039100 -38.511800
C -11.052700 -14.341800 -41.449000
C -10.845700 -13.955000 -40.068400
N -10.507000 -16.090000 -44.446700
C -10.339100 -15.627500 -43.414900
C -10.125700 -15.109200 -42.102100
H -10.057300 -14.194100 -39.638300
C -8.886000 -15.493600 -41.493900
N -7.891100 -15.800000 -41.022500
H -23.711700 -13.486200 -35.416700
H -23.203200 -13.357800 -33.197900
C -22.814900 -13.503300 -35.168100
C -22.518800 -13.439100 -33.821100
N -21.905000 -13.586800 -36.138700
C -21.204200 -13.497100 -33.401800
H -20.980400 -13.407300 -32.503700
C -20.641400 -13.683500 -35.712900
C -20.236200 -13.691200 -34.363300
H -20.055000 -15.270100 -31.954700
H -19.988600 -15.986400 -29.741500
C -19.448200 -13.734600 -36.555500
N -19.437900 -13.832800 -37.890800
C -19.344500 -15.041100 -31.400600
C -19.297400 -15.470400 -30.088600
C -18.753500 -13.710600 -34.315800
C -18.312200 -13.720600 -35.731100
C -18.299300 -14.259000 -31.862800
H -18.233600 -15.393100 -28.398800
C -18.221000 -13.922500 -38.433000
C -18.216000 -15.129300 -29.290600
H -18.160000 -13.944200 -39.359500
C -17.962000 -13.704400 -33.196400
C -17.216800 -14.039300 -30.994300
N -17.145700 -14.443100 -29.718500
C -17.085000 -13.917900 -36.329300
C -17.052200 -13.985200 -37.711300
C -16.599700 -13.161300 -33.061300
H -16.309300 -14.002200 -35.823500
H -16.238800 -14.072600 -38.153400
C -16.167300 -13.337700 -31.730300
H -16.069200 -12.182000 -34.753900
C -15.800100 -12.391700 -33.887400
N -15.005200 -12.912300 -31.227300
C -14.591100 -11.943800 -33.392400
C -14.234500 -12.239300 -32.092400
H -14.021000 -11.444800 -33.931800
H -13.400600 -11.952300 -31.795400
