3
Fragment
H -19.425900 -10.913100 -17.804500
O -19.123000 -11.666800 -17.668100
H -18.295800 -11.598300 -17.562300
35
Fragment
H -20.366600 -8.575800 -15.915700
O -19.855600 -8.600500 -16.556700
N -18.667900 -7.954200 -16.229200
O -18.656200 -6.939200 -13.197200
O -18.406900 -6.585300 -11.081600
H -18.114900 -8.324300 -18.026200
N -17.940900 -6.660900 -12.233700
C -17.843300 -7.973300 -17.208000
H -17.446800 -7.064900 -14.817100
H -16.996700 -6.992200 -19.658800
N -16.604400 -6.886900 -14.836200
C -16.529100 -6.388900 -12.428700
C -16.476500 -7.453400 -17.069100
H -16.222200 -5.943900 -10.482600
C -16.096300 -7.197700 -19.550500
C -15.930300 -6.499800 -13.701900
N -15.879100 -6.979400 -16.004900
C -15.805700 -6.003300 -11.312300
C -15.580800 -7.512700 -18.281100
H -15.548000 -6.979400 -21.489000
C -15.225200 -7.201200 -20.645300
C -14.546800 -6.198900 -13.793700
C -14.469700 -5.709400 -11.439700
C -14.248600 -7.832700 -18.137100
O -14.243000 -5.219900 -9.186400
H -14.113200 -6.274500 -14.613200
C -13.912100 -7.524700 -20.491000
H -13.908100 -8.029100 -17.294700
C -13.837400 -5.795600 -12.681100
N -13.678500 -5.280000 -10.281200
C -13.411600 -7.863100 -19.247200
H -13.345700 -7.517000 -21.229000
H -12.934400 -5.580900 -12.758800
H -12.519500 -8.110300 -19.154100
O -12.498700 -5.007300 -10.439200
38
Fragment
H -19.425900 -10.913100 -17.804500
O -19.123000 -11.666800 -17.668100
H -18.295800 -11.598300 -17.562300
H -20.366600 -8.575800 -15.915700
O -19.855600 -8.600500 -16.556700
N -18.667900 -7.954200 -16.229200
O -18.656200 -6.939200 -13.197200
O -18.406900 -6.585300 -11.081600
H -18.114900 -8.324300 -18.026200
N -17.940900 -6.660900 -12.233700
C -17.843300 -7.973300 -17.208000
H -17.446800 -7.064900 -14.817100
H -16.996700 -6.992200 -19.658800
N -16.604400 -6.886900 -14.836200
C -16.529100 -6.388900 -12.428700
C -16.476500 -7.453400 -17.069100
H -16.222200 -5.943900 -10.482600
C -16.096300 -7.197700 -19.550500
C -15.930300 -6.499800 -13.701900
N -15.879100 -6.979400 -16.004900
C -15.805700 -6.003300 -11.312300
C -15.580800 -7.512700 -18.281100
H -15.548000 -6.979400 -21.489000
C -15.225200 -7.201200 -20.645300
C -14.546800 -6.198900 -13.793700
C -14.469700 -5.709400 -11.439700
C -14.248600 -7.832700 -18.137100
O -14.243000 -5.219900 -9.186400
H -14.113200 -6.274500 -14.613200
C -13.912100 -7.524700 -20.491000
H -13.908100 -8.029100 -17.294700
C -13.837400 -5.795600 -12.681100
N -13.678500 -5.280000 -10.281200
C -13.411600 -7.863100 -19.247200
H -13.345700 -7.517000 -21.229000
H -12.934400 -5.580900 -12.758800
H -12.519500 -8.110300 -19.154100
O -12.498700 -5.007300 -10.439200
