20
Fragment
N -16.105700 -11.174800 -40.366800
C -15.141700 -11.623500 -39.949800
C -13.948400 -12.141800 -39.358900
H -13.935300 -12.877500 -41.888500
C -13.828200 -11.865600 -37.956800
N -13.758600 -11.651400 -36.841400
C -13.177100 -13.173700 -41.440700
C -12.993000 -12.833400 -40.051900
H -12.426900 -14.147600 -42.980800
C -12.269700 -13.910200 -42.095000
C -11.776700 -13.255700 -39.405000
H -11.635300 -13.039100 -38.511800
C -11.052700 -14.341800 -41.449000
C -10.845700 -13.955000 -40.068400
N -10.507000 -16.090000 -44.446700
C -10.339100 -15.627500 -43.414900
C -10.125700 -15.109200 -42.102100
H -10.057300 -14.194100 -39.638300
C -8.886000 -15.493600 -41.493900
N -7.891100 -15.800000 -41.022500
38
Fragment
H -22.406500 -13.588400 -49.640300
H -21.898000 -13.716800 -47.421400
C -21.509600 -13.571300 -49.391700
C -21.213600 -13.635500 -48.044700
N -20.599800 -13.487800 -50.362300
C -19.899000 -13.577500 -47.625400
H -19.675200 -13.667300 -46.727300
C -19.336100 -13.391100 -49.936500
C -18.931000 -13.383400 -48.586900
H -18.749800 -11.804500 -46.178300
H -18.683400 -11.088200 -43.965100
C -18.143000 -13.340000 -50.779100
N -18.132700 -13.241800 -52.114400
C -18.039300 -12.033500 -45.624200
C -17.992200 -11.604200 -44.312200
C -17.448300 -13.364000 -48.539400
C -17.007000 -13.354000 -49.954700
C -16.994100 -12.815600 -46.086400
H -16.928400 -11.681500 -42.622400
C -16.915800 -13.152100 -52.656600
C -16.910800 -11.945300 -43.514200
H -16.854800 -13.130400 -53.583100
C -16.656800 -13.370200 -47.420000
C -15.911600 -13.035300 -45.217900
N -15.840500 -12.631500 -43.942100
C -15.779800 -13.156700 -50.552900
C -15.747000 -13.089400 -51.934900
C -15.294500 -13.913300 -47.284900
H -15.004100 -13.072400 -50.047100
H -14.933600 -13.002000 -52.376900
C -14.862100 -13.736900 -45.953900
H -14.764000 -14.892600 -48.977500
C -14.494900 -14.682900 -48.111000
N -13.700000 -14.162300 -45.450900
C -13.285800 -15.130800 -47.616000
C -12.929300 -14.835300 -46.316000
H -12.715800 -15.629800 -48.155400
H -12.095400 -15.122300 -46.019000
58
Fragment
N -16.105700 -11.174800 -40.366800
C -15.141700 -11.623500 -39.949800
C -13.948400 -12.141800 -39.358900
H -13.935300 -12.877500 -41.888500
C -13.828200 -11.865600 -37.956800
N -13.758600 -11.651400 -36.841400
C -13.177100 -13.173700 -41.440700
C -12.993000 -12.833400 -40.051900
H -12.426900 -14.147600 -42.980800
C -12.269700 -13.910200 -42.095000
C -11.776700 -13.255700 -39.405000
H -11.635300 -13.039100 -38.511800
C -11.052700 -14.341800 -41.449000
C -10.845700 -13.955000 -40.068400
N -10.507000 -16.090000 -44.446700
C -10.339100 -15.627500 -43.414900
C -10.125700 -15.109200 -42.102100
H -10.057300 -14.194100 -39.638300
C -8.886000 -15.493600 -41.493900
N -7.891100 -15.800000 -41.022500
H -22.406500 -13.588400 -49.640300
H -21.898000 -13.716800 -47.421400
C -21.509600 -13.571300 -49.391700
C -21.213600 -13.635500 -48.044700
N -20.599800 -13.487800 -50.362300
C -19.899000 -13.577500 -47.625400
H -19.675200 -13.667300 -46.727300
C -19.336100 -13.391100 -49.936500
C -18.931000 -13.383400 -48.586900
H -18.749800 -11.804500 -46.178300
H -18.683400 -11.088200 -43.965100
C -18.143000 -13.340000 -50.779100
N -18.132700 -13.241800 -52.114400
C -18.039300 -12.033500 -45.624200
C -17.992200 -11.604200 -44.312200
C -17.448300 -13.364000 -48.539400
C -17.007000 -13.354000 -49.954700
C -16.994100 -12.815600 -46.086400
H -16.928400 -11.681500 -42.622400
C -16.915800 -13.152100 -52.656600
C -16.910800 -11.945300 -43.514200
H -16.854800 -13.130400 -53.583100
C -16.656800 -13.370200 -47.420000
C -15.911600 -13.035300 -45.217900
N -15.840500 -12.631500 -43.942100
C -15.779800 -13.156700 -50.552900
C -15.747000 -13.089400 -51.934900
C -15.294500 -13.913300 -47.284900
H -15.004100 -13.072400 -50.047100
H -14.933600 -13.002000 -52.376900
C -14.862100 -13.736900 -45.953900
H -14.764000 -14.892600 -48.977500
C -14.494900 -14.682900 -48.111000
N -13.700000 -14.162300 -45.450900
C -13.285800 -15.130800 -47.616000
C -12.929300 -14.835300 -46.316000
H -12.715800 -15.629800 -48.155400
H -12.095400 -15.122300 -46.019000
