3
Fragment
H -19.425900 -10.913100 -17.804500
O -19.123000 -11.666800 -17.668100
H -18.295800 -11.598300 -17.562300
35
Fragment
H -22.639300 -9.083000 -9.543300
O -22.128300 -9.058200 -10.184300
N -20.940600 -9.704500 -9.856800
O -20.929000 -10.719600 -6.824800
O -20.679700 -11.073400 -4.709200
H -20.387600 -9.334400 -11.653800
N -20.213600 -10.997900 -5.861300
C -20.116000 -9.685500 -10.835600
H -19.719600 -10.593800 -8.444700
H -19.269500 -10.666600 -13.286400
N -18.877100 -10.771800 -8.463800
C -18.801900 -11.269800 -6.056300
C -18.749300 -10.205300 -10.696700
H -18.494900 -11.714800 -4.110200
C -18.369100 -10.461000 -13.178100
C -18.203100 -11.158900 -7.329500
N -18.151900 -10.679300 -9.632500
C -18.078400 -11.655500 -4.939900
C -17.853500 -10.146000 -11.908700
H -17.820700 -10.679300 -15.116600
C -17.497900 -10.457500 -14.272900
C -16.819500 -11.459800 -7.421300
C -16.742400 -11.949300 -5.067300
C -16.521300 -9.826000 -11.764700
O -16.515700 -12.438800 -2.814000
H -16.385900 -11.384200 -8.240800
C -16.184900 -10.134000 -14.118700
H -16.180800 -9.629700 -10.922300
C -16.110200 -11.863100 -6.308700
N -15.951200 -12.378800 -3.908800
C -15.684300 -9.795700 -12.874800
H -15.618400 -10.141800 -14.856600
H -15.207200 -12.077900 -6.386400
H -14.792200 -9.548400 -12.781700
O -14.771500 -12.651400 -4.066900
38
Fragment
H -19.425900 -10.913100 -17.804500
O -19.123000 -11.666800 -17.668100
H -18.295800 -11.598300 -17.562300
H -22.639300 -9.083000 -9.543300
O -22.128300 -9.058200 -10.184300
N -20.940600 -9.704500 -9.856800
O -20.929000 -10.719600 -6.824800
O -20.679700 -11.073400 -4.709200
H -20.387600 -9.334400 -11.653800
N -20.213600 -10.997900 -5.861300
C -20.116000 -9.685500 -10.835600
H -19.719600 -10.593800 -8.444700
H -19.269500 -10.666600 -13.286400
N -18.877100 -10.771800 -8.463800
C -18.801900 -11.269800 -6.056300
C -18.749300 -10.205300 -10.696700
H -18.494900 -11.714800 -4.110200
C -18.369100 -10.461000 -13.178100
C -18.203100 -11.158900 -7.329500
N -18.151900 -10.679300 -9.632500
C -18.078400 -11.655500 -4.939900
C -17.853500 -10.146000 -11.908700
H -17.820700 -10.679300 -15.116600
C -17.497900 -10.457500 -14.272900
C -16.819500 -11.459800 -7.421300
C -16.742400 -11.949300 -5.067300
C -16.521300 -9.826000 -11.764700
O -16.515700 -12.438800 -2.814000
H -16.385900 -11.384200 -8.240800
C -16.184900 -10.134000 -14.118700
H -16.180800 -9.629700 -10.922300
C -16.110200 -11.863100 -6.308700
N -15.951200 -12.378800 -3.908800
C -15.684300 -9.795700 -12.874800
H -15.618400 -10.141800 -14.856600
H -15.207200 -12.077900 -6.386400
H -14.792200 -9.548400 -12.781700
O -14.771500 -12.651400 -4.066900
