20
Fragment
N -16.105700 -11.174800 -40.366800
C -15.141700 -11.623500 -39.949800
C -13.948400 -12.141800 -39.358900
H -13.935300 -12.877500 -41.888500
C -13.828200 -11.865600 -37.956800
N -13.758600 -11.651400 -36.841400
C -13.177100 -13.173700 -41.440700
C -12.993000 -12.833400 -40.051900
H -12.426900 -14.147600 -42.980800
C -12.269700 -13.910200 -42.095000
C -11.776700 -13.255700 -39.405000
H -11.635300 -13.039100 -38.511800
C -11.052700 -14.341800 -41.449000
C -10.845700 -13.955000 -40.068400
N -10.507000 -16.090000 -44.446700
C -10.339100 -15.627500 -43.414900
C -10.125700 -15.109200 -42.102100
H -10.057300 -14.194100 -39.638300
C -8.886000 -15.493600 -41.493900
N -7.891100 -15.800000 -41.022500
38
Fragment
H -14.473500 -15.820100 -39.322500
H -13.853100 -15.312600 -37.186200
C -13.639600 -16.107100 -39.025500
C -13.283000 -15.811600 -37.725500
N -12.868800 -16.780100 -39.890600
C -12.073900 -16.259500 -37.230500
H -11.804900 -16.049800 -36.364000
C -11.706700 -17.205500 -39.387700
H -11.635200 -17.940400 -32.964600
H -11.564800 -17.870000 -35.294400
C -11.274400 -17.029100 -38.056600
C -10.821800 -17.853000 -33.406700
C -10.789000 -17.785700 -34.788600
N -10.728300 -18.310900 -41.399500
C -10.657200 -17.907100 -40.123600
C -9.912000 -17.572200 -37.921500
H -9.714000 -17.812000 -31.758400
C -9.658100 -18.997100 -41.827300
C -9.653100 -17.790300 -32.685000
H -9.640400 -19.260900 -42.719100
C -9.574800 -18.126800 -39.255100
C -9.561900 -17.588400 -35.386900
C -9.120600 -17.578400 -36.802100
C -8.576600 -19.338200 -41.029400
C -8.529600 -18.908900 -39.717400
N -8.436100 -17.700600 -33.227200
C -8.425800 -17.602400 -34.562500
H -7.885400 -19.854200 -41.376400
H -7.819000 -19.137900 -39.163200
C -7.637800 -17.559000 -36.754600
C -7.232700 -17.551300 -35.405100
H -6.893600 -17.275100 -38.614200
C -6.669900 -17.364900 -37.716100
N -5.969000 -17.454600 -34.979200
C -5.355300 -17.306900 -37.296800
C -5.059200 -17.371100 -35.949800
H -4.670800 -17.225600 -37.920100
H -4.162400 -17.354000 -35.701200
58
Fragment
N -16.105700 -11.174800 -40.366800
C -15.141700 -11.623500 -39.949800
C -13.948400 -12.141800 -39.358900
H -13.935300 -12.877500 -41.888500
C -13.828200 -11.865600 -37.956800
N -13.758600 -11.651400 -36.841400
C -13.177100 -13.173700 -41.440700
C -12.993000 -12.833400 -40.051900
H -12.426900 -14.147600 -42.980800
C -12.269700 -13.910200 -42.095000
C -11.776700 -13.255700 -39.405000
H -11.635300 -13.039100 -38.511800
C -11.052700 -14.341800 -41.449000
C -10.845700 -13.955000 -40.068400
N -10.507000 -16.090000 -44.446700
C -10.339100 -15.627500 -43.414900
C -10.125700 -15.109200 -42.102100
H -10.057300 -14.194100 -39.638300
C -8.886000 -15.493600 -41.493900
N -7.891100 -15.800000 -41.022500
H -14.473500 -15.820100 -39.322500
H -13.853100 -15.312600 -37.186200
C -13.639600 -16.107100 -39.025500
C -13.283000 -15.811600 -37.725500
N -12.868800 -16.780100 -39.890600
C -12.073900 -16.259500 -37.230500
H -11.804900 -16.049800 -36.364000
C -11.706700 -17.205500 -39.387700
H -11.635200 -17.940400 -32.964600
H -11.564800 -17.870000 -35.294400
C -11.274400 -17.029100 -38.056600
C -10.821800 -17.853000 -33.406700
C -10.789000 -17.785700 -34.788600
N -10.728300 -18.310900 -41.399500
C -10.657200 -17.907100 -40.123600
C -9.912000 -17.572200 -37.921500
H -9.714000 -17.812000 -31.758400
C -9.658100 -18.997100 -41.827300
C -9.653100 -17.790300 -32.685000
H -9.640400 -19.260900 -42.719100
C -9.574800 -18.126800 -39.255100
C -9.561900 -17.588400 -35.386900
C -9.120600 -17.578400 -36.802100
C -8.576600 -19.338200 -41.029400
C -8.529600 -18.908900 -39.717400
N -8.436100 -17.700600 -33.227200
C -8.425800 -17.602400 -34.562500
H -7.885400 -19.854200 -41.376400
H -7.819000 -19.137900 -39.163200
C -7.637800 -17.559000 -36.754600
C -7.232700 -17.551300 -35.405100
H -6.893600 -17.275100 -38.614200
C -6.669900 -17.364900 -37.716100
N -5.969000 -17.454600 -34.979200
C -5.355300 -17.306900 -37.296800
C -5.059200 -17.371100 -35.949800
H -4.670800 -17.225600 -37.920100
H -4.162400 -17.354000 -35.701200
