3
Fragment
H -19.425900 -10.913100 -17.804500
O -19.123000 -11.666800 -17.668100
H -18.295800 -11.598300 -17.562300
3
Fragment
H -19.757400 -9.592200 -20.672000
O -18.930200 -9.523700 -20.566200
H -18.627400 -10.277400 -20.429900
6
Fragment
H -19.425900 -10.913100 -17.804500
O -19.123000 -11.666800 -17.668100
H -18.295800 -11.598300 -17.562300
H -19.757400 -9.592200 -20.672000
O -18.930200 -9.523700 -20.566200
H -18.627400 -10.277400 -20.429900
