3
Fragment
H -19.425900 -10.913100 -17.804500
O -19.123000 -11.666800 -17.668100
H -18.295800 -11.598300 -17.562300
35
Fragment
H -20.366600 -15.639300 -15.915700
O -19.855600 -15.664000 -16.556700
N -18.667900 -15.017700 -16.229200
O -18.656200 -14.002700 -13.197200
O -18.406900 -13.648800 -11.081600
H -18.114900 -15.387800 -18.026200
N -17.940900 -13.724400 -12.233700
C -17.843300 -15.036800 -17.208000
H -17.446800 -14.128400 -14.817100
H -16.996700 -14.055700 -19.658800
N -16.604400 -13.950400 -14.836200
C -16.529100 -13.452400 -12.428700
C -16.476500 -14.516900 -17.069100
H -16.222200 -13.007400 -10.482600
C -16.096300 -14.261200 -19.550500
C -15.930300 -13.563300 -13.701900
N -15.879100 -14.042900 -16.004900
C -15.805700 -13.066800 -11.312300
C -15.580800 -14.576200 -18.281100
H -15.548000 -14.042900 -21.489000
C -15.225200 -14.264700 -20.645300
C -14.546800 -13.262400 -13.793700
C -14.469700 -12.772900 -11.439700
C -14.248600 -14.896200 -18.137100
O -14.243000 -12.283400 -9.186400
H -14.113200 -13.338000 -14.613200
C -13.912100 -14.588200 -20.491000
H -13.908100 -15.092600 -17.294700
C -13.837400 -12.859100 -12.681100
N -13.678500 -12.343500 -10.281200
C -13.411600 -14.926600 -19.247200
H -13.345700 -14.580500 -21.229000
H -12.934400 -12.644400 -12.758800
H -12.519500 -15.173800 -19.154100
O -12.498700 -12.070800 -10.439200
38
Fragment
H -19.425900 -10.913100 -17.804500
O -19.123000 -11.666800 -17.668100
H -18.295800 -11.598300 -17.562300
H -20.366600 -15.639300 -15.915700
O -19.855600 -15.664000 -16.556700
N -18.667900 -15.017700 -16.229200
O -18.656200 -14.002700 -13.197200
O -18.406900 -13.648800 -11.081600
H -18.114900 -15.387800 -18.026200
N -17.940900 -13.724400 -12.233700
C -17.843300 -15.036800 -17.208000
H -17.446800 -14.128400 -14.817100
H -16.996700 -14.055700 -19.658800
N -16.604400 -13.950400 -14.836200
C -16.529100 -13.452400 -12.428700
C -16.476500 -14.516900 -17.069100
H -16.222200 -13.007400 -10.482600
C -16.096300 -14.261200 -19.550500
C -15.930300 -13.563300 -13.701900
N -15.879100 -14.042900 -16.004900
C -15.805700 -13.066800 -11.312300
C -15.580800 -14.576200 -18.281100
H -15.548000 -14.042900 -21.489000
C -15.225200 -14.264700 -20.645300
C -14.546800 -13.262400 -13.793700
C -14.469700 -12.772900 -11.439700
C -14.248600 -14.896200 -18.137100
O -14.243000 -12.283400 -9.186400
H -14.113200 -13.338000 -14.613200
C -13.912100 -14.588200 -20.491000
H -13.908100 -15.092600 -17.294700
C -13.837400 -12.859100 -12.681100
N -13.678500 -12.343500 -10.281200
C -13.411600 -14.926600 -19.247200
H -13.345700 -14.580500 -21.229000
H -12.934400 -12.644400 -12.758800
H -12.519500 -15.173800 -19.154100
O -12.498700 -12.070800 -10.439200
