17
Fragment
H -15.679300 -13.049800 -12.714100
O -15.166400 -13.764600 -14.972300
N -14.869300 -13.263800 -12.799000
C -14.429700 -13.662300 -13.982700
H -14.353100 -13.145600 -12.173500
C -12.950000 -13.988200 -14.081600
H -12.788500 -14.479300 -14.913900
H -12.679700 -14.551200 -13.348000
O -12.393500 -12.004400 -15.285200
H -12.224200 -12.179300 -13.329300
H -12.128700 -11.204900 -15.174900
C -12.086000 -12.723100 -14.104900
C -10.618900 -13.156800 -14.036800
H -10.249500 -12.714300 -15.836700
O -10.170700 -13.614400 -12.963000
N -9.898400 -13.049800 -15.133000
H -9.062300 -13.321300 -15.109700
17
Fragment
H -20.246700 -17.314500 -12.854000
N -19.410600 -17.043000 -12.830600
O -19.138300 -17.607600 -15.000600
H -19.059400 -16.707500 -12.126900
C -18.690100 -17.150000 -13.926800
C -17.223000 -16.716300 -13.858800
H -17.180300 -15.198100 -12.788700
H -17.084800 -16.172500 -14.634300
O -16.915500 -15.997600 -12.678400
H -16.629300 -18.544400 -14.615700
H -16.520400 -18.472500 -13.049700
C -16.358900 -17.981400 -13.882100
H -14.955800 -17.138800 -15.790100
C -14.879200 -17.655500 -13.980900
N -14.439600 -17.257000 -15.164700
O -14.142600 -17.757800 -12.991300
H -13.629700 -17.043000 -15.249500
34
Fragment
H -15.679300 -13.049800 -12.714100
O -15.166400 -13.764600 -14.972300
N -14.869300 -13.263800 -12.799000
C -14.429700 -13.662300 -13.982700
H -14.353100 -13.145600 -12.173500
C -12.950000 -13.988200 -14.081600
H -12.788500 -14.479300 -14.913900
H -12.679700 -14.551200 -13.348000
O -12.393500 -12.004400 -15.285200
H -12.224200 -12.179300 -13.329300
H -12.128700 -11.204900 -15.174900
C -12.086000 -12.723100 -14.104900
C -10.618900 -13.156800 -14.036800
H -10.249500 -12.714300 -15.836700
O -10.170700 -13.614400 -12.963000
N -9.898400 -13.049800 -15.133000
H -9.062300 -13.321300 -15.109700
H -20.246700 -17.314500 -12.854000
N -19.410600 -17.043000 -12.830600
O -19.138300 -17.607600 -15.000600
H -19.059400 -16.707500 -12.126900
C -18.690100 -17.150000 -13.926800
C -17.223000 -16.716300 -13.858800
H -17.180300 -15.198100 -12.788700
H -17.084800 -16.172500 -14.634300
O -16.915500 -15.997600 -12.678400
H -16.629300 -18.544400 -14.615700
H -16.520400 -18.472500 -13.049700
C -16.358900 -17.981400 -13.882100
H -14.955800 -17.138800 -15.790100
C -14.879200 -17.655500 -13.980900
N -14.439600 -17.257000 -15.164700
O -14.142600 -17.757800 -12.991300
H -13.629700 -17.043000 -15.249500
