17
Fragment
H -15.679300 -13.049800 -12.714100
O -15.166400 -13.764600 -14.972300
N -14.869300 -13.263800 -12.799000
C -14.429700 -13.662300 -13.982700
H -14.353100 -13.145600 -12.173500
C -12.950000 -13.988200 -14.081600
H -12.788500 -14.479300 -14.913900
H -12.679700 -14.551200 -13.348000
O -12.393500 -12.004400 -15.285200
H -12.224200 -12.179300 -13.329300
H -12.128700 -11.204900 -15.174900
C -12.086000 -12.723100 -14.104900
C -10.618900 -13.156800 -14.036800
H -10.249500 -12.714300 -15.836700
O -10.170700 -13.614400 -12.963000
N -9.898400 -13.049800 -15.133000
H -9.062300 -13.321300 -15.109700
18
Fragment
H -16.130700 -12.394900 -8.100100
O -15.577900 -11.620200 -10.378600
N -15.344500 -12.109800 -8.171900
C -14.895200 -11.694500 -9.355700
H -14.828000 -12.131300 -7.484900
H -13.746700 -10.645900 -11.092200
C -13.413500 -11.310300 -9.410700
H -13.181400 -10.837500 -8.631400
O -13.143300 -10.514900 -10.536400
O -12.853600 -13.304500 -10.614500
H -12.757700 -13.089700 -8.696700
C -12.546500 -12.584200 -9.439600
H -12.512500 -14.032100 -10.514300
C -11.085300 -12.133700 -9.360400
O -10.700400 -11.605800 -8.295800
H -10.645100 -12.714300 -11.138800
N -10.328000 -12.305400 -10.423000
H -9.486500 -12.035500 -10.365200
35
Fragment
H -15.679300 -13.049800 -12.714100
O -15.166400 -13.764600 -14.972300
N -14.869300 -13.263800 -12.799000
C -14.429700 -13.662300 -13.982700
H -14.353100 -13.145600 -12.173500
C -12.950000 -13.988200 -14.081600
H -12.788500 -14.479300 -14.913900
H -12.679700 -14.551200 -13.348000
O -12.393500 -12.004400 -15.285200
H -12.224200 -12.179300 -13.329300
H -12.128700 -11.204900 -15.174900
C -12.086000 -12.723100 -14.104900
C -10.618900 -13.156800 -14.036800
H -10.249500 -12.714300 -15.836700
O -10.170700 -13.614400 -12.963000
N -9.898400 -13.049800 -15.133000
H -9.062300 -13.321300 -15.109700
H -16.130700 -12.394900 -8.100100
O -15.577900 -11.620200 -10.378600
N -15.344500 -12.109800 -8.171900
C -14.895200 -11.694500 -9.355700
H -14.828000 -12.131300 -7.484900
H -13.746700 -10.645900 -11.092200
C -13.413500 -11.310300 -9.410700
H -13.181400 -10.837500 -8.631400
O -13.143300 -10.514900 -10.536400
O -12.853600 -13.304500 -10.614500
H -12.757700 -13.089700 -8.696700
C -12.546500 -12.584200 -9.439600
H -12.512500 -14.032100 -10.514300
C -11.085300 -12.133700 -9.360400
O -10.700400 -11.605800 -8.295800
H -10.645100 -12.714300 -11.138800
N -10.328000 -12.305400 -10.423000
H -9.486500 -12.035500 -10.365200
