17
Fragment
H -15.679300 -13.049800 -12.714100
O -15.166400 -13.764600 -14.972300
N -14.869300 -13.263800 -12.799000
C -14.429700 -13.662300 -13.982700
H -14.353100 -13.145600 -12.173500
C -12.950000 -13.988200 -14.081600
H -12.788500 -14.479300 -14.913900
H -12.679700 -14.551200 -13.348000
O -12.393500 -12.004400 -15.285200
H -12.224200 -12.179300 -13.329300
H -12.128700 -11.204900 -15.174900
C -12.086000 -12.723100 -14.104900
C -10.618900 -13.156800 -14.036800
H -10.249500 -12.714300 -15.836700
O -10.170700 -13.614400 -12.963000
N -9.898400 -13.049800 -15.133000
H -9.062300 -13.321300 -15.109700
18
Fragment
H -20.750500 -16.028700 -8.277200
N -19.909000 -16.298600 -8.219400
H -19.592000 -16.707500 -7.503600
O -19.536700 -15.599000 -10.346600
C -19.151700 -16.126900 -9.282100
H -17.724500 -18.025300 -8.128100
C -17.690500 -16.577400 -9.202800
H -17.479400 -17.082900 -9.945700
O -17.383400 -17.297700 -8.027900
O -17.093800 -14.508100 -8.106000
H -17.055700 -14.830700 -10.011000
C -16.823600 -15.303500 -9.231700
H -16.490300 -14.639100 -7.550200
H -15.409100 -16.124500 -11.157500
C -15.341800 -15.687700 -9.286700
N -14.892600 -16.103000 -10.470500
O -14.659100 -15.613400 -8.263800
H -14.106400 -16.388100 -10.542300
35
Fragment
H -15.679300 -13.049800 -12.714100
O -15.166400 -13.764600 -14.972300
N -14.869300 -13.263800 -12.799000
C -14.429700 -13.662300 -13.982700
H -14.353100 -13.145600 -12.173500
C -12.950000 -13.988200 -14.081600
H -12.788500 -14.479300 -14.913900
H -12.679700 -14.551200 -13.348000
O -12.393500 -12.004400 -15.285200
H -12.224200 -12.179300 -13.329300
H -12.128700 -11.204900 -15.174900
C -12.086000 -12.723100 -14.104900
C -10.618900 -13.156800 -14.036800
H -10.249500 -12.714300 -15.836700
O -10.170700 -13.614400 -12.963000
N -9.898400 -13.049800 -15.133000
H -9.062300 -13.321300 -15.109700
H -20.750500 -16.028700 -8.277200
N -19.909000 -16.298600 -8.219400
H -19.592000 -16.707500 -7.503600
O -19.536700 -15.599000 -10.346600
C -19.151700 -16.126900 -9.282100
H -17.724500 -18.025300 -8.128100
C -17.690500 -16.577400 -9.202800
H -17.479400 -17.082900 -9.945700
O -17.383400 -17.297700 -8.027900
O -17.093800 -14.508100 -8.106000
H -17.055700 -14.830700 -10.011000
C -16.823600 -15.303500 -9.231700
H -16.490300 -14.639100 -7.550200
H -15.409100 -16.124500 -11.157500
C -15.341800 -15.687700 -9.286700
N -14.892600 -16.103000 -10.470500
O -14.659100 -15.613400 -8.263800
H -14.106400 -16.388100 -10.542300
