17
Fragment
H -15.679300 -13.049800 -12.714100
O -15.166400 -13.764600 -14.972300
N -14.869300 -13.263800 -12.799000
C -14.429700 -13.662300 -13.982700
H -14.353100 -13.145600 -12.173500
C -12.950000 -13.988200 -14.081600
H -12.788500 -14.479300 -14.913900
H -12.679700 -14.551200 -13.348000
O -12.393500 -12.004400 -15.285200
H -12.224200 -12.179300 -13.329300
H -12.128700 -11.204900 -15.174900
C -12.086000 -12.723100 -14.104900
C -10.618900 -13.156800 -14.036800
H -10.249500 -12.714300 -15.836700
O -10.170700 -13.614400 -12.963000
N -9.898400 -13.049800 -15.133000
H -9.062300 -13.321300 -15.109700
18
Fragment
H -15.202600 -12.394900 -17.421300
O -14.649800 -11.620200 -19.699800
N -14.416400 -12.109800 -17.493100
C -13.967200 -11.694500 -18.676900
H -13.899900 -12.131300 -16.806100
H -12.818600 -10.645900 -20.413500
C -12.485400 -11.310300 -18.731900
H -12.253300 -10.837500 -17.952700
O -12.215200 -10.514900 -19.857600
O -11.925500 -13.304500 -19.935700
H -11.829600 -13.089700 -18.017900
C -11.618400 -12.584200 -18.760800
H -11.584400 -14.032100 -19.835500
C -10.157200 -12.133700 -18.681600
O -9.772300 -11.605800 -17.617000
H -9.717000 -12.714300 -20.460100
N -9.399900 -12.305400 -19.744200
H -8.558400 -12.035500 -19.686400
35
Fragment
H -15.679300 -13.049800 -12.714100
O -15.166400 -13.764600 -14.972300
N -14.869300 -13.263800 -12.799000
C -14.429700 -13.662300 -13.982700
H -14.353100 -13.145600 -12.173500
C -12.950000 -13.988200 -14.081600
H -12.788500 -14.479300 -14.913900
H -12.679700 -14.551200 -13.348000
O -12.393500 -12.004400 -15.285200
H -12.224200 -12.179300 -13.329300
H -12.128700 -11.204900 -15.174900
C -12.086000 -12.723100 -14.104900
C -10.618900 -13.156800 -14.036800
H -10.249500 -12.714300 -15.836700
O -10.170700 -13.614400 -12.963000
N -9.898400 -13.049800 -15.133000
H -9.062300 -13.321300 -15.109700
H -15.202600 -12.394900 -17.421300
O -14.649800 -11.620200 -19.699800
N -14.416400 -12.109800 -17.493100
C -13.967200 -11.694500 -18.676900
H -13.899900 -12.131300 -16.806100
H -12.818600 -10.645900 -20.413500
C -12.485400 -11.310300 -18.731900
H -12.253300 -10.837500 -17.952700
O -12.215200 -10.514900 -19.857600
O -11.925500 -13.304500 -19.935700
H -11.829600 -13.089700 -18.017900
C -11.618400 -12.584200 -18.760800
H -11.584400 -14.032100 -19.835500
C -10.157200 -12.133700 -18.681600
O -9.772300 -11.605800 -17.617000
H -9.717000 -12.714300 -20.460100
N -9.399900 -12.305400 -19.744200
H -8.558400 -12.035500 -19.686400
