17
Fragment
H -15.679300 -13.049800 -12.714100
O -15.166400 -13.764600 -14.972300
N -14.869300 -13.263800 -12.799000
C -14.429700 -13.662300 -13.982700
H -14.353100 -13.145600 -12.173500
C -12.950000 -13.988200 -14.081600
H -12.788500 -14.479300 -14.913900
H -12.679700 -14.551200 -13.348000
O -12.393500 -12.004400 -15.285200
H -12.224200 -12.179300 -13.329300
H -12.128700 -11.204900 -15.174900
C -12.086000 -12.723100 -14.104900
C -10.618900 -13.156800 -14.036800
H -10.249500 -12.714300 -15.836700
O -10.170700 -13.614400 -12.963000
N -9.898400 -13.049800 -15.133000
H -9.062300 -13.321300 -15.109700
17
Fragment
H -12.223400 -9.328100 -12.854000
N -11.387300 -9.056600 -12.830600
O -11.115000 -9.621200 -15.000600
H -11.036100 -8.721100 -12.126900
C -10.666800 -9.163600 -13.926800
C -9.199700 -8.729900 -13.858800
H -9.157000 -7.211700 -12.788700
H -9.061500 -8.186100 -14.634300
O -8.892200 -8.011200 -12.678400
H -8.606000 -10.558000 -14.615700
H -8.497100 -10.486100 -13.049700
C -8.335600 -9.995000 -13.882100
H -6.932500 -9.152400 -15.790100
C -6.855900 -9.669100 -13.980900
N -6.416300 -9.270600 -15.164700
O -6.119300 -9.771400 -12.991300
H -5.606400 -9.056600 -15.249500
34
Fragment
H -15.679300 -13.049800 -12.714100
O -15.166400 -13.764600 -14.972300
N -14.869300 -13.263800 -12.799000
C -14.429700 -13.662300 -13.982700
H -14.353100 -13.145600 -12.173500
C -12.950000 -13.988200 -14.081600
H -12.788500 -14.479300 -14.913900
H -12.679700 -14.551200 -13.348000
O -12.393500 -12.004400 -15.285200
H -12.224200 -12.179300 -13.329300
H -12.128700 -11.204900 -15.174900
C -12.086000 -12.723100 -14.104900
C -10.618900 -13.156800 -14.036800
H -10.249500 -12.714300 -15.836700
O -10.170700 -13.614400 -12.963000
N -9.898400 -13.049800 -15.133000
H -9.062300 -13.321300 -15.109700
H -12.223400 -9.328100 -12.854000
N -11.387300 -9.056600 -12.830600
O -11.115000 -9.621200 -15.000600
H -11.036100 -8.721100 -12.126900
C -10.666800 -9.163600 -13.926800
C -9.199700 -8.729900 -13.858800
H -9.157000 -7.211700 -12.788700
H -9.061500 -8.186100 -14.634300
O -8.892200 -8.011200 -12.678400
H -8.606000 -10.558000 -14.615700
H -8.497100 -10.486100 -13.049700
C -8.335600 -9.995000 -13.882100
H -6.932500 -9.152400 -15.790100
C -6.855900 -9.669100 -13.980900
N -6.416300 -9.270600 -15.164700
O -6.119300 -9.771400 -12.991300
H -5.606400 -9.056600 -15.249500
