17
Fragment
H -15.679300 -13.049800 -12.714100
O -15.166400 -13.764600 -14.972300
N -14.869300 -13.263800 -12.799000
C -14.429700 -13.662300 -13.982700
H -14.353100 -13.145600 -12.173500
C -12.950000 -13.988200 -14.081600
H -12.788500 -14.479300 -14.913900
H -12.679700 -14.551200 -13.348000
O -12.393500 -12.004400 -15.285200
H -12.224200 -12.179300 -13.329300
H -12.128700 -11.204900 -15.174900
C -12.086000 -12.723100 -14.104900
C -10.618900 -13.156800 -14.036800
H -10.249500 -12.714300 -15.836700
O -10.170700 -13.614400 -12.963000
N -9.898400 -13.049800 -15.133000
H -9.062300 -13.321300 -15.109700
17
Fragment
H -7.656000 -13.049800 -12.714100
O -7.143100 -13.764600 -14.972300
N -6.846000 -13.263800 -12.799000
C -6.406400 -13.662300 -13.982700
H -6.329800 -13.145600 -12.173500
C -4.926700 -13.988200 -14.081600
H -4.765200 -14.479300 -14.913900
H -4.656400 -14.551200 -13.348000
O -4.370200 -12.004400 -15.285200
H -4.200900 -12.179300 -13.329300
H -4.105400 -11.204900 -15.174900
C -4.062700 -12.723100 -14.104900
C -2.595600 -13.156800 -14.036800
H -2.226200 -12.714300 -15.836700
O -2.147400 -13.614400 -12.963000
N -1.875100 -13.049800 -15.133000
H -1.039000 -13.321300 -15.109700
34
Fragment
H -15.679300 -13.049800 -12.714100
O -15.166400 -13.764600 -14.972300
N -14.869300 -13.263800 -12.799000
C -14.429700 -13.662300 -13.982700
H -14.353100 -13.145600 -12.173500
C -12.950000 -13.988200 -14.081600
H -12.788500 -14.479300 -14.913900
H -12.679700 -14.551200 -13.348000
O -12.393500 -12.004400 -15.285200
H -12.224200 -12.179300 -13.329300
H -12.128700 -11.204900 -15.174900
C -12.086000 -12.723100 -14.104900
C -10.618900 -13.156800 -14.036800
H -10.249500 -12.714300 -15.836700
O -10.170700 -13.614400 -12.963000
N -9.898400 -13.049800 -15.133000
H -9.062300 -13.321300 -15.109700
H -7.656000 -13.049800 -12.714100
O -7.143100 -13.764600 -14.972300
N -6.846000 -13.263800 -12.799000
C -6.406400 -13.662300 -13.982700
H -6.329800 -13.145600 -12.173500
C -4.926700 -13.988200 -14.081600
H -4.765200 -14.479300 -14.913900
H -4.656400 -14.551200 -13.348000
O -4.370200 -12.004400 -15.285200
H -4.200900 -12.179300 -13.329300
H -4.105400 -11.204900 -15.174900
C -4.062700 -12.723100 -14.104900
C -2.595600 -13.156800 -14.036800
H -2.226200 -12.714300 -15.836700
O -2.147400 -13.614400 -12.963000
N -1.875100 -13.049800 -15.133000
H -1.039000 -13.321300 -15.109700
