12
Fragment
H -11.548200 -12.803300 -30.263200
H -11.452000 -12.762600 -28.698000
C -10.946900 -12.776400 -29.515000
H -10.404000 -11.986300 -29.569900
H -10.387100 -14.627800 -31.377500
N -10.100000 -13.943600 -29.537400
O -10.063400 -14.183100 -27.311300
C -9.723100 -14.536600 -28.440500
C -9.634200 -14.399700 -30.826500
H -9.160700 -15.273700 -28.515100
H -9.128900 -13.701700 -31.249900
H -9.076400 -15.172700 -30.709700
30
Fragment
N -8.453000 -17.855700 -29.828700
N -8.126100 -17.629300 -28.581500
N -7.971500 -19.050600 -30.235900
N -7.425200 -18.688900 -28.189800
C -7.331600 -19.565300 -29.195000
H -7.083300 -18.794800 -27.407200
H -6.948800 -21.256300 -27.198800
C -6.670300 -20.855500 -29.156700
C -6.591800 -21.599200 -27.984600
H -6.171400 -20.907700 -31.113800
C -6.120800 -21.385800 -30.317000
C -5.991200 -22.836400 -27.975000
H -5.965200 -23.324300 -27.183900
C -5.501900 -22.614900 -30.296100
C -5.419400 -23.373200 -29.131400
H -5.171600 -25.209100 -31.030900
H -5.129300 -22.947200 -31.079800
C -4.745400 -24.689400 -29.121800
C -4.734600 -25.497400 -30.262500
C -4.090600 -26.711000 -30.267600
H -4.088900 -27.229100 -31.039400
C -4.086400 -25.159400 -27.990700
H -4.072600 -24.636500 -27.222200
C -3.455000 -26.381200 -27.988200
C -3.439800 -27.170400 -29.124800
H -3.034800 -26.680100 -27.213700
C -2.739600 -28.481000 -29.103800
O -2.630400 -29.028400 -30.290600
O -2.299100 -28.979000 -28.093900
H -2.278200 -29.765500 -30.220600
42
Fragment
H -11.548200 -12.803300 -30.263200
H -11.452000 -12.762600 -28.698000
C -10.946900 -12.776400 -29.515000
H -10.404000 -11.986300 -29.569900
H -10.387100 -14.627800 -31.377500
N -10.100000 -13.943600 -29.537400
O -10.063400 -14.183100 -27.311300
C -9.723100 -14.536600 -28.440500
C -9.634200 -14.399700 -30.826500
H -9.160700 -15.273700 -28.515100
H -9.128900 -13.701700 -31.249900
H -9.076400 -15.172700 -30.709700
N -8.453000 -17.855700 -29.828700
N -8.126100 -17.629300 -28.581500
N -7.971500 -19.050600 -30.235900
N -7.425200 -18.688900 -28.189800
C -7.331600 -19.565300 -29.195000
H -7.083300 -18.794800 -27.407200
H -6.948800 -21.256300 -27.198800
C -6.670300 -20.855500 -29.156700
C -6.591800 -21.599200 -27.984600
H -6.171400 -20.907700 -31.113800
C -6.120800 -21.385800 -30.317000
C -5.991200 -22.836400 -27.975000
H -5.965200 -23.324300 -27.183900
C -5.501900 -22.614900 -30.296100
C -5.419400 -23.373200 -29.131400
H -5.171600 -25.209100 -31.030900
H -5.129300 -22.947200 -31.079800
C -4.745400 -24.689400 -29.121800
C -4.734600 -25.497400 -30.262500
C -4.090600 -26.711000 -30.267600
H -4.088900 -27.229100 -31.039400
C -4.086400 -25.159400 -27.990700
H -4.072600 -24.636500 -27.222200
C -3.455000 -26.381200 -27.988200
C -3.439800 -27.170400 -29.124800
H -3.034800 -26.680100 -27.213700
C -2.739600 -28.481000 -29.103800
O -2.630400 -29.028400 -30.290600
O -2.299100 -28.979000 -28.093900
H -2.278200 -29.765500 -30.220600
