12
Fragment
H -11.548200 -12.803300 -30.263200
H -11.452000 -12.762600 -28.698000
C -10.946900 -12.776400 -29.515000
H -10.404000 -11.986300 -29.569900
H -10.387100 -14.627800 -31.377500
N -10.100000 -13.943600 -29.537400
O -10.063400 -14.183100 -27.311300
C -9.723100 -14.536600 -28.440500
C -9.634200 -14.399700 -30.826500
H -9.160700 -15.273700 -28.515100
H -9.128900 -13.701700 -31.249900
H -9.076400 -15.172700 -30.709700
30
Fragment
H -14.046600 -17.547800 -22.943500
O -14.025700 -16.761400 -25.070300
O -13.694400 -16.810800 -22.873600
C -13.585200 -16.263300 -24.060400
H -13.290000 -14.462400 -25.950500
C -12.885000 -14.952800 -24.039300
C -12.869800 -14.163500 -25.176000
H -12.252200 -12.418800 -25.942000
C -12.238400 -12.941700 -25.173400
H -12.235900 -15.011400 -22.124800
C -12.234200 -14.493400 -22.896500
C -11.590200 -13.279800 -22.901600
C -11.579400 -12.471800 -24.042300
H -11.195500 -10.729500 -22.084400
H -11.153200 -12.991400 -22.133300
C -10.905400 -11.155500 -24.032800
C -10.822900 -10.397200 -22.868000
H -10.359600 -11.106700 -25.980300
C -10.333600 -10.618800 -25.189200
C -10.204000 -9.168100 -22.847200
H -10.153400 -8.690000 -22.050400
C -9.733000 -9.381500 -25.179600
C -9.654500 -8.637900 -24.007400
H -9.376000 -9.038600 -25.965400
H -9.241500 -6.577200 -25.757000
C -8.993200 -7.347700 -23.969200
N -8.899600 -6.471300 -24.974400
N -8.353300 -6.832900 -22.928200
N -8.198700 -5.411600 -24.582700
N -7.871800 -5.638000 -23.335500
42
Fragment
H -11.548200 -12.803300 -30.263200
H -11.452000 -12.762600 -28.698000
C -10.946900 -12.776400 -29.515000
H -10.404000 -11.986300 -29.569900
H -10.387100 -14.627800 -31.377500
N -10.100000 -13.943600 -29.537400
O -10.063400 -14.183100 -27.311300
C -9.723100 -14.536600 -28.440500
C -9.634200 -14.399700 -30.826500
H -9.160700 -15.273700 -28.515100
H -9.128900 -13.701700 -31.249900
H -9.076400 -15.172700 -30.709700
H -14.046600 -17.547800 -22.943500
O -14.025700 -16.761400 -25.070300
O -13.694400 -16.810800 -22.873600
C -13.585200 -16.263300 -24.060400
H -13.290000 -14.462400 -25.950500
C -12.885000 -14.952800 -24.039300
C -12.869800 -14.163500 -25.176000
H -12.252200 -12.418800 -25.942000
C -12.238400 -12.941700 -25.173400
H -12.235900 -15.011400 -22.124800
C -12.234200 -14.493400 -22.896500
C -11.590200 -13.279800 -22.901600
C -11.579400 -12.471800 -24.042300
H -11.195500 -10.729500 -22.084400
H -11.153200 -12.991400 -22.133300
C -10.905400 -11.155500 -24.032800
C -10.822900 -10.397200 -22.868000
H -10.359600 -11.106700 -25.980300
C -10.333600 -10.618800 -25.189200
C -10.204000 -9.168100 -22.847200
H -10.153400 -8.690000 -22.050400
C -9.733000 -9.381500 -25.179600
C -9.654500 -8.637900 -24.007400
H -9.376000 -9.038600 -25.965400
H -9.241500 -6.577200 -25.757000
C -8.993200 -7.347700 -23.969200
N -8.899600 -6.471300 -24.974400
N -8.353300 -6.832900 -22.928200
N -8.198700 -5.411600 -24.582700
N -7.871800 -5.638000 -23.335500
