12
Fragment
H -11.548200 -12.803300 -30.263200
H -11.452000 -12.762600 -28.698000
C -10.946900 -12.776400 -29.515000
H -10.404000 -11.986300 -29.569900
H -10.387100 -14.627800 -31.377500
N -10.100000 -13.943600 -29.537400
O -10.063400 -14.183100 -27.311300
C -9.723100 -14.536600 -28.440500
C -9.634200 -14.399700 -30.826500
H -9.160700 -15.273700 -28.515100
H -9.128900 -13.701700 -31.249900
H -9.076400 -15.172700 -30.709700
12
Fragment
O -13.516300 -6.935300 -30.311900
H -13.350100 -7.033300 -28.459800
C -13.136900 -7.460100 -29.258200
H -12.593900 -10.114600 -30.437500
N -12.453700 -8.580000 -29.189300
H -12.388800 -10.043700 -27.841000
H -12.359400 -8.612600 -27.200900
H -12.288100 -8.756000 -31.156300
C -12.091600 -9.297600 -30.389100
C -12.033900 -9.155900 -27.921800
H -11.154000 -9.499600 -30.371600
H -11.075500 -9.190100 -27.887800
24
Fragment
H -11.548200 -12.803300 -30.263200
H -11.452000 -12.762600 -28.698000
C -10.946900 -12.776400 -29.515000
H -10.404000 -11.986300 -29.569900
H -10.387100 -14.627800 -31.377500
N -10.100000 -13.943600 -29.537400
O -10.063400 -14.183100 -27.311300
C -9.723100 -14.536600 -28.440500
C -9.634200 -14.399700 -30.826500
H -9.160700 -15.273700 -28.515100
H -9.128900 -13.701700 -31.249900
H -9.076400 -15.172700 -30.709700
O -13.516300 -6.935300 -30.311900
H -13.350100 -7.033300 -28.459800
C -13.136900 -7.460100 -29.258200
H -12.593900 -10.114600 -30.437500
N -12.453700 -8.580000 -29.189300
H -12.388800 -10.043700 -27.841000
H -12.359400 -8.612600 -27.200900
H -12.288100 -8.756000 -31.156300
C -12.091600 -9.297600 -30.389100
C -12.033900 -9.155900 -27.921800
H -11.154000 -9.499600 -30.371600
H -11.075500 -9.190100 -27.887800
