16
Fragment
N -3.589100 -3.305800 -24.234500
C -3.224900 -3.420600 -23.155700
H -3.162200 -1.616900 -21.284900
C -2.883200 -2.438000 -20.948500
C -2.803900 -3.545300 -21.784500
N -2.676900 -0.486000 -18.071900
C -2.614700 -1.415300 -18.741800
C -2.542300 -2.566500 -19.605500
C -2.354700 -4.784100 -21.288500
C -2.204800 -5.907100 -22.177500
C -2.142700 -3.820500 -19.095300
N -2.055700 -6.808000 -22.871400
C -2.041700 -4.917500 -19.937300
C -1.841500 -3.951300 -17.692800
H -1.766100 -5.739400 -19.600600
N -1.612600 -4.040100 -16.574800
16
Fragment
H -0.848800 -6.590700 -15.099000
H -0.656100 -2.533700 -13.046500
H -0.530900 -4.491200 -14.301100
C -0.430200 -3.338100 -12.637300
C -0.350000 -4.507400 -13.388300
Cl -0.257300 -1.915900 -10.333100
C -0.171500 -3.379900 -11.275900
C 0.003900 -5.702800 -12.765100
C 0.027200 -6.883200 -14.837500
O 0.117800 -6.903700 -13.404100
C 0.171900 -4.568400 -10.641200
H 0.185600 -7.765300 -15.181200
C 0.262600 -5.726000 -11.388200
H 0.338500 -4.583300 -9.726800
H 0.496900 -6.525800 -10.975100
H 0.684300 -6.279300 -15.190600
32
Fragment
N -3.589100 -3.305800 -24.234500
C -3.224900 -3.420600 -23.155700
H -3.162200 -1.616900 -21.284900
C -2.883200 -2.438000 -20.948500
C -2.803900 -3.545300 -21.784500
N -2.676900 -0.486000 -18.071900
C -2.614700 -1.415300 -18.741800
C -2.542300 -2.566500 -19.605500
C -2.354700 -4.784100 -21.288500
C -2.204800 -5.907100 -22.177500
C -2.142700 -3.820500 -19.095300
N -2.055700 -6.808000 -22.871400
C -2.041700 -4.917500 -19.937300
C -1.841500 -3.951300 -17.692800
H -1.766100 -5.739400 -19.600600
N -1.612600 -4.040100 -16.574800
H -0.848800 -6.590700 -15.099000
H -0.656100 -2.533700 -13.046500
H -0.530900 -4.491200 -14.301100
C -0.430200 -3.338100 -12.637300
C -0.350000 -4.507400 -13.388300
Cl -0.257300 -1.915900 -10.333100
C -0.171500 -3.379900 -11.275900
C 0.003900 -5.702800 -12.765100
C 0.027200 -6.883200 -14.837500
O 0.117800 -6.903700 -13.404100
C 0.171900 -4.568400 -10.641200
H 0.185600 -7.765300 -15.181200
C 0.262600 -5.726000 -11.388200
H 0.338500 -4.583300 -9.726800
H 0.496900 -6.525800 -10.975100
H 0.684300 -6.279300 -15.190600
