16
Fragment
N -3.589100 -3.305800 -24.234500
C -3.224900 -3.420600 -23.155700
H -3.162200 -1.616900 -21.284900
C -2.883200 -2.438000 -20.948500
C -2.803900 -3.545300 -21.784500
N -2.676900 -0.486000 -18.071900
C -2.614700 -1.415300 -18.741800
C -2.542300 -2.566500 -19.605500
C -2.354700 -4.784100 -21.288500
C -2.204800 -5.907100 -22.177500
C -2.142700 -3.820500 -19.095300
N -2.055700 -6.808000 -22.871400
C -2.041700 -4.917500 -19.937300
C -1.841500 -3.951300 -17.692800
H -1.766100 -5.739400 -19.600600
N -1.612600 -4.040100 -16.574800
16
Fragment
N -7.449200 -7.034300 -30.826800
H -7.295700 -5.334900 -27.801000
C -7.220300 -7.123100 -29.708800
C -7.020100 -6.156900 -27.464300
N -7.006200 -4.266400 -24.530200
C -6.919100 -7.253900 -28.306300
C -6.857100 -5.167300 -25.224100
C -6.707200 -6.290200 -26.113100
C -6.519500 -8.507800 -27.796100
C -6.447100 -9.659000 -28.659800
N -6.384900 -10.588400 -29.329700
C -6.257900 -7.529100 -25.617100
C -6.178700 -8.636400 -26.453100
H -5.899700 -9.457500 -26.116700
C -5.837000 -7.653700 -24.245900
N -5.472700 -7.768600 -23.167100
32
Fragment
N -3.589100 -3.305800 -24.234500
C -3.224900 -3.420600 -23.155700
H -3.162200 -1.616900 -21.284900
C -2.883200 -2.438000 -20.948500
C -2.803900 -3.545300 -21.784500
N -2.676900 -0.486000 -18.071900
C -2.614700 -1.415300 -18.741800
C -2.542300 -2.566500 -19.605500
C -2.354700 -4.784100 -21.288500
C -2.204800 -5.907100 -22.177500
C -2.142700 -3.820500 -19.095300
N -2.055700 -6.808000 -22.871400
C -2.041700 -4.917500 -19.937300
C -1.841500 -3.951300 -17.692800
H -1.766100 -5.739400 -19.600600
N -1.612600 -4.040100 -16.574800
N -7.449200 -7.034300 -30.826800
H -7.295700 -5.334900 -27.801000
C -7.220300 -7.123100 -29.708800
C -7.020100 -6.156900 -27.464300
N -7.006200 -4.266400 -24.530200
C -6.919100 -7.253900 -28.306300
C -6.857100 -5.167300 -25.224100
C -6.707200 -6.290200 -26.113100
C -6.519500 -8.507800 -27.796100
C -6.447100 -9.659000 -28.659800
N -6.384900 -10.588400 -29.329700
C -6.257900 -7.529100 -25.617100
C -6.178700 -8.636400 -26.453100
H -5.899700 -9.457500 -26.116700
C -5.837000 -7.653700 -24.245900
N -5.472700 -7.768600 -23.167100
