16
Fragment
N -11.844900 -12.261900 -38.885600
C -11.457100 -11.233700 -38.555900
H -11.277400 -10.372500 -36.119400
C -10.993400 -9.714500 -36.713500
C -10.987900 -9.955500 -38.085900
C -10.569100 -8.478200 -36.243300
C -10.561300 -8.235400 -34.819200
C -10.555200 -8.968200 -38.986200
N -10.554000 -8.063400 -33.686400
C -10.512800 -9.239600 -40.404500
N -10.446500 -9.448500 -41.527800
C -10.151900 -7.478500 -37.138900
C -10.147700 -7.723600 -38.509900
H -9.874800 -7.061200 -39.102200
C -9.731100 -6.197500 -36.633900
N -9.399900 -5.182400 -36.210700
12
Fragment
H -14.644500 -10.429200 -35.345200
H -14.644200 -10.563000 -37.662400
C -14.417400 -9.768800 -37.234800
C -14.415400 -9.685200 -35.852300
C -14.074000 -8.642900 -37.967200
C -14.073900 -8.499000 -35.220700
H -14.065600 -8.452400 -34.291100
Cl -14.040700 -8.751500 -39.705800
C -13.744700 -7.379000 -35.973500
C -13.743000 -7.441000 -37.362700
H -13.524900 -6.694600 -37.874300
H -13.524100 -6.583300 -35.546200
28
Fragment
N -11.844900 -12.261900 -38.885600
C -11.457100 -11.233700 -38.555900
H -11.277400 -10.372500 -36.119400
C -10.993400 -9.714500 -36.713500
C -10.987900 -9.955500 -38.085900
C -10.569100 -8.478200 -36.243300
C -10.561300 -8.235400 -34.819200
C -10.555200 -8.968200 -38.986200
N -10.554000 -8.063400 -33.686400
C -10.512800 -9.239600 -40.404500
N -10.446500 -9.448500 -41.527800
C -10.151900 -7.478500 -37.138900
C -10.147700 -7.723600 -38.509900
H -9.874800 -7.061200 -39.102200
C -9.731100 -6.197500 -36.633900
N -9.399900 -5.182400 -36.210700
H -14.644500 -10.429200 -35.345200
H -14.644200 -10.563000 -37.662400
C -14.417400 -9.768800 -37.234800
C -14.415400 -9.685200 -35.852300
C -14.074000 -8.642900 -37.967200
C -14.073900 -8.499000 -35.220700
H -14.065600 -8.452400 -34.291100
Cl -14.040700 -8.751500 -39.705800
C -13.744700 -7.379000 -35.973500
C -13.743000 -7.441000 -37.362700
H -13.524900 -6.694600 -37.874300
H -13.524100 -6.583300 -35.546200
