16
Fragment
N -11.844900 -12.261900 -38.885600
C -11.457100 -11.233700 -38.555900
H -11.277400 -10.372500 -36.119400
C -10.993400 -9.714500 -36.713500
C -10.987900 -9.955500 -38.085900
C -10.569100 -8.478200 -36.243300
C -10.561300 -8.235400 -34.819200
C -10.555200 -8.968200 -38.986200
N -10.554000 -8.063400 -33.686400
C -10.512800 -9.239600 -40.404500
N -10.446500 -9.448500 -41.527800
C -10.151900 -7.478500 -37.138900
C -10.147700 -7.723600 -38.509900
H -9.874800 -7.061200 -39.102200
C -9.731100 -6.197500 -36.633900
N -9.399900 -5.182400 -36.210700
16
Fragment
N -13.331500 -8.818800 -31.703300
C -13.000300 -9.833900 -31.280100
H -12.856600 -10.697600 -28.811800
C -12.583700 -11.360000 -29.404000
C -12.579500 -11.114900 -30.775100
N -12.284900 -13.084900 -26.386200
C -12.218600 -12.876000 -27.509500
N -12.177400 -11.699800 -34.227600
C -12.176200 -12.604600 -28.927800
C -12.170100 -11.871800 -33.094800
C -12.162300 -12.114600 -31.670700
C -11.743500 -13.591900 -29.828100
C -11.738000 -13.350900 -31.200500
H -11.454000 -14.008900 -31.794600
C -11.274300 -14.870100 -29.358100
N -10.886500 -15.898300 -29.028300
32
Fragment
N -11.844900 -12.261900 -38.885600
C -11.457100 -11.233700 -38.555900
H -11.277400 -10.372500 -36.119400
C -10.993400 -9.714500 -36.713500
C -10.987900 -9.955500 -38.085900
C -10.569100 -8.478200 -36.243300
C -10.561300 -8.235400 -34.819200
C -10.555200 -8.968200 -38.986200
N -10.554000 -8.063400 -33.686400
C -10.512800 -9.239600 -40.404500
N -10.446500 -9.448500 -41.527800
C -10.151900 -7.478500 -37.138900
C -10.147700 -7.723600 -38.509900
H -9.874800 -7.061200 -39.102200
C -9.731100 -6.197500 -36.633900
N -9.399900 -5.182400 -36.210700
N -13.331500 -8.818800 -31.703300
C -13.000300 -9.833900 -31.280100
H -12.856600 -10.697600 -28.811800
C -12.583700 -11.360000 -29.404000
C -12.579500 -11.114900 -30.775100
N -12.284900 -13.084900 -26.386200
C -12.218600 -12.876000 -27.509500
N -12.177400 -11.699800 -34.227600
C -12.176200 -12.604600 -28.927800
C -12.170100 -11.871800 -33.094800
C -12.162300 -12.114600 -31.670700
C -11.743500 -13.591900 -29.828100
C -11.738000 -13.350900 -31.200500
H -11.454000 -14.008900 -31.794600
C -11.274300 -14.870100 -29.358100
N -10.886500 -15.898300 -29.028300
