16
Fragment
N -3.589100 -3.305800 -24.234500
C -3.224900 -3.420600 -23.155700
H -3.162200 -1.616900 -21.284900
C -2.883200 -2.438000 -20.948500
C -2.803900 -3.545300 -21.784500
N -2.676900 -0.486000 -18.071900
C -2.614700 -1.415300 -18.741800
C -2.542300 -2.566500 -19.605500
C -2.354700 -4.784100 -21.288500
C -2.204800 -5.907100 -22.177500
C -2.142700 -3.820500 -19.095300
N -2.055700 -6.808000 -22.871400
C -2.041700 -4.917500 -19.937300
C -1.841500 -3.951300 -17.692800
H -1.766100 -5.739400 -19.600600
N -1.612600 -4.040100 -16.574800
16
Fragment
N -6.140700 3.471000 -24.234500
C -5.776400 3.356100 -23.155700
H -5.713700 5.159900 -21.284900
C -5.434700 4.338800 -20.948500
C -5.355400 3.231500 -21.784500
N -5.228500 6.290800 -18.071900
C -5.166300 5.361400 -18.741800
C -5.093900 4.210200 -19.605500
C -4.906200 1.992600 -21.288500
C -4.756300 0.869700 -22.177500
C -4.694300 2.956300 -19.095300
N -4.607200 -0.031200 -22.871400
C -4.593300 1.859300 -19.937300
C -4.393100 2.825500 -17.692800
H -4.317700 1.037300 -19.600600
N -4.164100 2.736700 -16.574800
32
Fragment
N -3.589100 -3.305800 -24.234500
C -3.224900 -3.420600 -23.155700
H -3.162200 -1.616900 -21.284900
C -2.883200 -2.438000 -20.948500
C -2.803900 -3.545300 -21.784500
N -2.676900 -0.486000 -18.071900
C -2.614700 -1.415300 -18.741800
C -2.542300 -2.566500 -19.605500
C -2.354700 -4.784100 -21.288500
C -2.204800 -5.907100 -22.177500
C -2.142700 -3.820500 -19.095300
N -2.055700 -6.808000 -22.871400
C -2.041700 -4.917500 -19.937300
C -1.841500 -3.951300 -17.692800
H -1.766100 -5.739400 -19.600600
N -1.612600 -4.040100 -16.574800
N -6.140700 3.471000 -24.234500
C -5.776400 3.356100 -23.155700
H -5.713700 5.159900 -21.284900
C -5.434700 4.338800 -20.948500
C -5.355400 3.231500 -21.784500
N -5.228500 6.290800 -18.071900
C -5.166300 5.361400 -18.741800
C -5.093900 4.210200 -19.605500
C -4.906200 1.992600 -21.288500
C -4.756300 0.869700 -22.177500
C -4.694300 2.956300 -19.095300
N -4.607200 -0.031200 -22.871400
C -4.593300 1.859300 -19.937300
C -4.393100 2.825500 -17.692800
H -4.317700 1.037300 -19.600600
N -4.164100 2.736700 -16.574800
