12
Fragment
H -5.628400 -13.483000 -15.284300
H -5.302100 -12.875900 -17.499800
C -4.769900 -13.296600 -15.591300
C -4.576300 -12.941500 -16.922700
H -3.794800 -13.602300 -13.800100
C -3.668500 -13.378600 -14.693600
C -3.292600 -12.686500 -17.382500
Br -3.063000 -12.199400 -19.194000
C -2.400300 -13.116200 -15.191600
C -2.201400 -12.780200 -16.520300
H -1.667900 -13.165400 -14.621300
Br -0.453900 -12.449600 -17.150700
12
Fragment
Br -7.965800 -13.852400 -23.774900
H -6.751800 -13.136600 -26.304200
C -6.218300 -13.521700 -24.405300
C -6.019400 -13.185700 -25.734000
Br -5.356700 -14.102500 -21.731600
C -5.127000 -13.615400 -23.543100
C -4.751200 -12.923300 -26.231900
H -4.624900 -12.699600 -27.125500
C -3.843300 -13.360400 -24.002800
C -3.649700 -13.005300 -25.334300
H -3.117600 -13.426000 -23.425800
H -2.791300 -12.818900 -25.641200
24
Fragment
H -5.628400 -13.483000 -15.284300
H -5.302100 -12.875900 -17.499800
C -4.769900 -13.296600 -15.591300
C -4.576300 -12.941500 -16.922700
H -3.794800 -13.602300 -13.800100
C -3.668500 -13.378600 -14.693600
C -3.292600 -12.686500 -17.382500
Br -3.063000 -12.199400 -19.194000
C -2.400300 -13.116200 -15.191600
C -2.201400 -12.780200 -16.520300
H -1.667900 -13.165400 -14.621300
Br -0.453900 -12.449600 -17.150700
Br -7.965800 -13.852400 -23.774900
H -6.751800 -13.136600 -26.304200
C -6.218300 -13.521700 -24.405300
C -6.019400 -13.185700 -25.734000
Br -5.356700 -14.102500 -21.731600
C -5.127000 -13.615400 -23.543100
C -4.751200 -12.923300 -26.231900
H -4.624900 -12.699600 -27.125500
C -3.843300 -13.360400 -24.002800
C -3.649700 -13.005300 -25.334300
H -3.117600 -13.426000 -23.425800
H -2.791300 -12.818900 -25.641200
