16
Fragment
N -3.589100 -3.305800 -24.234500
C -3.224900 -3.420600 -23.155700
H -3.162200 -1.616900 -21.284900
C -2.883200 -2.438000 -20.948500
C -2.803900 -3.545300 -21.784500
N -2.676900 -0.486000 -18.071900
C -2.614700 -1.415300 -18.741800
C -2.542300 -2.566500 -19.605500
C -2.354700 -4.784100 -21.288500
C -2.204800 -5.907100 -22.177500
C -2.142700 -3.820500 -19.095300
N -2.055700 -6.808000 -22.871400
C -2.041700 -4.917500 -19.937300
C -1.841500 -3.951300 -17.692800
H -1.766100 -5.739400 -19.600600
N -1.612600 -4.040100 -16.574800
16
Fragment
H -6.725500 -1.103600 -16.410400
H -6.538100 -0.857100 -20.626000
H -6.379700 -2.799600 -21.874300
C -6.303800 -1.657000 -20.212800
H -6.226900 0.382400 -16.419900
C -6.213100 -2.814500 -20.959900
O -6.159000 -0.479300 -18.197000
C -6.068400 -0.499700 -16.763600
C -6.045100 -1.680200 -18.836000
C -5.869700 -4.003000 -20.325200
Cl -5.783900 -5.467000 -21.268000
C -5.691300 -2.875600 -18.212800
C -5.611000 -4.044800 -18.963800
H -5.510400 -2.891800 -17.300000
H -5.385100 -4.849200 -18.554600
H -5.192400 -0.792300 -16.502100
32
Fragment
N -3.589100 -3.305800 -24.234500
C -3.224900 -3.420600 -23.155700
H -3.162200 -1.616900 -21.284900
C -2.883200 -2.438000 -20.948500
C -2.803900 -3.545300 -21.784500
N -2.676900 -0.486000 -18.071900
C -2.614700 -1.415300 -18.741800
C -2.542300 -2.566500 -19.605500
C -2.354700 -4.784100 -21.288500
C -2.204800 -5.907100 -22.177500
C -2.142700 -3.820500 -19.095300
N -2.055700 -6.808000 -22.871400
C -2.041700 -4.917500 -19.937300
C -1.841500 -3.951300 -17.692800
H -1.766100 -5.739400 -19.600600
N -1.612600 -4.040100 -16.574800
H -6.725500 -1.103600 -16.410400
H -6.538100 -0.857100 -20.626000
H -6.379700 -2.799600 -21.874300
C -6.303800 -1.657000 -20.212800
H -6.226900 0.382400 -16.419900
C -6.213100 -2.814500 -20.959900
O -6.159000 -0.479300 -18.197000
C -6.068400 -0.499700 -16.763600
C -6.045100 -1.680200 -18.836000
C -5.869700 -4.003000 -20.325200
Cl -5.783900 -5.467000 -21.268000
C -5.691300 -2.875600 -18.212800
C -5.611000 -4.044800 -18.963800
H -5.510400 -2.891800 -17.300000
H -5.385100 -4.849200 -18.554600
H -5.192400 -0.792300 -16.502100
