12
Fragment
H -5.628400 -13.483000 -15.284300
H -5.302100 -12.875900 -17.499800
C -4.769900 -13.296600 -15.591300
C -4.576300 -12.941500 -16.922700
H -3.794800 -13.602300 -13.800100
C -3.668500 -13.378600 -14.693600
C -3.292600 -12.686500 -17.382500
Br -3.063000 -12.199400 -19.194000
C -2.400300 -13.116200 -15.191600
C -2.201400 -12.780200 -16.520300
H -1.667900 -13.165400 -14.621300
Br -0.453900 -12.449600 -17.150700
16
Fragment
N -10.033200 -10.986700 -21.951100
C -8.994500 -10.746400 -22.375400
H -8.337800 -10.141400 -24.836400
C -7.697300 -10.463000 -22.940100
C -7.580400 -10.170400 -24.297500
N -6.685300 -11.018400 -19.595200
C -6.653300 -10.801100 -20.719300
C -6.549000 -10.501500 -22.128500
C -6.327100 -9.924400 -24.840500
C -6.185100 -9.665000 -26.253800
N -6.071200 -9.488700 -27.372400
C -5.288600 -10.258400 -22.667300
C -5.175400 -9.969900 -24.028800
H -4.531700 -10.288900 -22.128500
C -3.880700 -9.699400 -24.607200
N -2.857200 -9.479000 -25.071000
28
Fragment
H -5.628400 -13.483000 -15.284300
H -5.302100 -12.875900 -17.499800
C -4.769900 -13.296600 -15.591300
C -4.576300 -12.941500 -16.922700
H -3.794800 -13.602300 -13.800100
C -3.668500 -13.378600 -14.693600
C -3.292600 -12.686500 -17.382500
Br -3.063000 -12.199400 -19.194000
C -2.400300 -13.116200 -15.191600
C -2.201400 -12.780200 -16.520300
H -1.667900 -13.165400 -14.621300
Br -0.453900 -12.449600 -17.150700
N -10.033200 -10.986700 -21.951100
C -8.994500 -10.746400 -22.375400
H -8.337800 -10.141400 -24.836400
C -7.697300 -10.463000 -22.940100
C -7.580400 -10.170400 -24.297500
N -6.685300 -11.018400 -19.595200
C -6.653300 -10.801100 -20.719300
C -6.549000 -10.501500 -22.128500
C -6.327100 -9.924400 -24.840500
C -6.185100 -9.665000 -26.253800
N -6.071200 -9.488700 -27.372400
C -5.288600 -10.258400 -22.667300
C -5.175400 -9.969900 -24.028800
H -4.531700 -10.288900 -22.128500
C -3.880700 -9.699400 -24.607200
N -2.857200 -9.479000 -25.071000
