16
Fragment
N -11.844900 -12.261900 -38.885600
C -11.457100 -11.233700 -38.555900
H -11.277400 -10.372500 -36.119400
C -10.993400 -9.714500 -36.713500
C -10.987900 -9.955500 -38.085900
C -10.569100 -8.478200 -36.243300
C -10.561300 -8.235400 -34.819200
C -10.555200 -8.968200 -38.986200
N -10.554000 -8.063400 -33.686400
C -10.512800 -9.239600 -40.404500
N -10.446500 -9.448500 -41.527800
C -10.151900 -7.478500 -37.138900
C -10.147700 -7.723600 -38.509900
H -9.874800 -7.061200 -39.102200
C -9.731100 -6.197500 -36.633900
N -9.399900 -5.182400 -36.210700
12
Fragment
H -9.207300 -10.219700 -32.367800
H -9.206500 -10.331000 -30.039700
C -8.988400 -11.077400 -30.551200
C -8.986700 -11.015400 -31.940500
Cl -8.690700 -12.387900 -28.208200
H -8.665800 -12.088800 -33.622900
C -8.657500 -12.135400 -32.693300
C -8.657400 -12.279300 -29.946800
C -8.316000 -13.321600 -32.061700
C -8.314000 -13.405200 -30.679200
H -8.087200 -14.199400 -30.251600
H -8.086900 -14.065600 -32.568800
28
Fragment
N -11.844900 -12.261900 -38.885600
C -11.457100 -11.233700 -38.555900
H -11.277400 -10.372500 -36.119400
C -10.993400 -9.714500 -36.713500
C -10.987900 -9.955500 -38.085900
C -10.569100 -8.478200 -36.243300
C -10.561300 -8.235400 -34.819200
C -10.555200 -8.968200 -38.986200
N -10.554000 -8.063400 -33.686400
C -10.512800 -9.239600 -40.404500
N -10.446500 -9.448500 -41.527800
C -10.151900 -7.478500 -37.138900
C -10.147700 -7.723600 -38.509900
H -9.874800 -7.061200 -39.102200
C -9.731100 -6.197500 -36.633900
N -9.399900 -5.182400 -36.210700
H -9.207300 -10.219700 -32.367800
H -9.206500 -10.331000 -30.039700
C -8.988400 -11.077400 -30.551200
C -8.986700 -11.015400 -31.940500
Cl -8.690700 -12.387900 -28.208200
H -8.665800 -12.088800 -33.622900
C -8.657500 -12.135400 -32.693300
C -8.657400 -12.279300 -29.946800
C -8.316000 -13.321600 -32.061700
C -8.314000 -13.405200 -30.679200
H -8.087200 -14.199400 -30.251600
H -8.086900 -14.065600 -32.568800
