12
Fragment
H -5.628400 -13.483000 -15.284300
H -5.302100 -12.875900 -17.499800
C -4.769900 -13.296600 -15.591300
C -4.576300 -12.941500 -16.922700
H -3.794800 -13.602300 -13.800100
C -3.668500 -13.378600 -14.693600
C -3.292600 -12.686500 -17.382500
Br -3.063000 -12.199400 -19.194000
C -2.400300 -13.116200 -15.191600
C -2.201400 -12.780200 -16.520300
H -1.667900 -13.165400 -14.621300
Br -0.453900 -12.449600 -17.150700
12
Fragment
H -13.575400 -13.483000 -15.284300
H -13.249100 -12.875900 -17.499800
C -12.716900 -13.296600 -15.591300
C -12.523300 -12.941500 -16.922700
H -11.741800 -13.602300 -13.800100
C -11.615500 -13.378600 -14.693600
C -11.239600 -12.686500 -17.382500
Br -11.010000 -12.199400 -19.194000
C -10.347300 -13.116200 -15.191600
C -10.148400 -12.780200 -16.520300
H -9.614900 -13.165400 -14.621300
Br -8.400900 -12.449600 -17.150700
24
Fragment
H -5.628400 -13.483000 -15.284300
H -5.302100 -12.875900 -17.499800
C -4.769900 -13.296600 -15.591300
C -4.576300 -12.941500 -16.922700
H -3.794800 -13.602300 -13.800100
C -3.668500 -13.378600 -14.693600
C -3.292600 -12.686500 -17.382500
Br -3.063000 -12.199400 -19.194000
C -2.400300 -13.116200 -15.191600
C -2.201400 -12.780200 -16.520300
H -1.667900 -13.165400 -14.621300
Br -0.453900 -12.449600 -17.150700
H -13.575400 -13.483000 -15.284300
H -13.249100 -12.875900 -17.499800
C -12.716900 -13.296600 -15.591300
C -12.523300 -12.941500 -16.922700
H -11.741800 -13.602300 -13.800100
C -11.615500 -13.378600 -14.693600
C -11.239600 -12.686500 -17.382500
Br -11.010000 -12.199400 -19.194000
C -10.347300 -13.116200 -15.191600
C -10.148400 -12.780200 -16.520300
H -9.614900 -13.165400 -14.621300
Br -8.400900 -12.449600 -17.150700
