50
Fragment
H -14.731000 -11.858800 -20.167500
H -14.202400 -12.554600 -21.502700
H -14.080900 -9.932600 -21.024100
C -13.948600 -11.942900 -20.766100
N -13.665100 -10.644700 -21.331500
H -13.433900 -8.792100 -23.266900
O -12.893100 -13.766500 -19.656800
C -12.811800 -12.579300 -19.985900
O -12.800600 -9.400900 -25.603500
C -12.764100 -10.516700 -22.329300
C -12.590700 -9.089100 -22.840900
H -12.407500 -8.488700 -22.075700
H -12.268800 -11.440900 -17.278000
O -12.126400 -11.472000 -22.757000
H -11.789600 -10.965000 -19.958900
N -11.760100 -11.807900 -19.708100
C -11.692600 -9.156200 -25.106200
O -11.602900 -11.757700 -16.875500
N -11.511800 -8.980200 -23.799200
H -11.377700 -9.275700 -27.812600
H -10.742500 -10.607900 -27.188500
H -10.704000 -8.790000 -23.505500
H -10.667900 -13.250300 -18.851800
C -10.592300 -9.639900 -27.332500
C -10.569700 -12.269600 -19.018300
C -10.452600 -8.943400 -25.988300
C -10.430000 -11.573100 -17.674100
H -10.354400 -7.962700 -26.154800
H -10.318200 -12.423000 -21.501200
H -10.279800 -10.605100 -17.818100
H -9.644500 -11.937300 -17.194000
N -9.510400 -12.232800 -21.207400
O -9.419400 -9.455300 -28.131100
C -9.329600 -12.056800 -19.900400
N -9.262200 -9.405100 -25.298500
H -9.232700 -10.248000 -25.047700
O -8.895800 -9.741000 -22.249600
H -8.753400 -9.772100 -27.728600
H -8.614800 -12.724300 -22.930900
C -8.431600 -12.123900 -22.165800
C -8.258200 -10.696300 -22.677300
O -8.221700 -11.812100 -19.403100
C -8.210400 -8.633700 -25.020700
O -8.129200 -7.446500 -25.349800
H -7.588300 -12.420900 -21.739700
N -7.357200 -10.568300 -23.675100
C -7.073700 -9.270100 -24.240600
H -6.941400 -11.280400 -23.982500
H -6.819800 -8.658400 -23.504000
H -6.291200 -9.354200 -24.839200
3
Fragment
O -5.247400 -8.461200 -27.813800
H -4.851500 -8.789300 -27.154000
H -4.645100 -8.237700 -28.354200
53
Fragment
H -14.731000 -11.858800 -20.167500
H -14.202400 -12.554600 -21.502700
H -14.080900 -9.932600 -21.024100
C -13.948600 -11.942900 -20.766100
N -13.665100 -10.644700 -21.331500
H -13.433900 -8.792100 -23.266900
O -12.893100 -13.766500 -19.656800
C -12.811800 -12.579300 -19.985900
O -12.800600 -9.400900 -25.603500
C -12.764100 -10.516700 -22.329300
C -12.590700 -9.089100 -22.840900
H -12.407500 -8.488700 -22.075700
H -12.268800 -11.440900 -17.278000
O -12.126400 -11.472000 -22.757000
H -11.789600 -10.965000 -19.958900
N -11.760100 -11.807900 -19.708100
C -11.692600 -9.156200 -25.106200
O -11.602900 -11.757700 -16.875500
N -11.511800 -8.980200 -23.799200
H -11.377700 -9.275700 -27.812600
H -10.742500 -10.607900 -27.188500
H -10.704000 -8.790000 -23.505500
H -10.667900 -13.250300 -18.851800
C -10.592300 -9.639900 -27.332500
C -10.569700 -12.269600 -19.018300
C -10.452600 -8.943400 -25.988300
C -10.430000 -11.573100 -17.674100
H -10.354400 -7.962700 -26.154800
H -10.318200 -12.423000 -21.501200
H -10.279800 -10.605100 -17.818100
H -9.644500 -11.937300 -17.194000
N -9.510400 -12.232800 -21.207400
O -9.419400 -9.455300 -28.131100
C -9.329600 -12.056800 -19.900400
N -9.262200 -9.405100 -25.298500
H -9.232700 -10.248000 -25.047700
O -8.895800 -9.741000 -22.249600
H -8.753400 -9.772100 -27.728600
H -8.614800 -12.724300 -22.930900
C -8.431600 -12.123900 -22.165800
C -8.258200 -10.696300 -22.677300
O -8.221700 -11.812100 -19.403100
C -8.210400 -8.633700 -25.020700
O -8.129200 -7.446500 -25.349800
H -7.588300 -12.420900 -21.739700
N -7.357200 -10.568300 -23.675100
C -7.073700 -9.270100 -24.240600
H -6.941400 -11.280400 -23.982500
H -6.819800 -8.658400 -23.504000
H -6.291200 -9.354200 -24.839200
O -5.247400 -8.461200 -27.813800
H -4.851500 -8.789300 -27.154000
H -4.645100 -8.237700 -28.354200
