22
Fragment
H -13.845500 -19.119200 -8.391200
H -13.648600 -23.809300 -8.336000
N -13.018400 -21.573400 -8.555800
N -12.990800 -19.199300 -8.584600
N -12.828200 -23.724900 -8.643100
N -12.446500 -26.076000 -8.940600
C -12.340300 -20.366000 -8.735100
O -12.277500 -28.751000 -9.254200
N -12.250100 -22.541000 -8.827400
N -12.141700 -18.171000 -8.773600
C -12.044700 -24.807000 -8.969600
C -11.324700 -26.681700 -9.376600
N -11.256300 -28.123300 -9.527300
N -11.058600 -20.155500 -9.027600
C -11.025100 -18.814500 -9.029300
N -10.775500 -24.699400 -9.390200
H -10.328200 -23.946200 -9.474400
N -10.291600 -25.934900 -9.664900
O -10.212800 -28.612400 -9.916800
O -9.900300 -16.839100 -9.290500
N -9.811700 -18.064900 -9.322900
O -8.810600 -18.698400 -9.572400
3
Fragment
O -11.958900 -25.476900 -12.477400
H -11.587200 -26.237100 -12.570100
H -11.354400 -24.875400 -12.390300
25
Fragment
H -13.845500 -19.119200 -8.391200
H -13.648600 -23.809300 -8.336000
N -13.018400 -21.573400 -8.555800
N -12.990800 -19.199300 -8.584600
N -12.828200 -23.724900 -8.643100
N -12.446500 -26.076000 -8.940600
C -12.340300 -20.366000 -8.735100
O -12.277500 -28.751000 -9.254200
N -12.250100 -22.541000 -8.827400
N -12.141700 -18.171000 -8.773600
C -12.044700 -24.807000 -8.969600
C -11.324700 -26.681700 -9.376600
N -11.256300 -28.123300 -9.527300
N -11.058600 -20.155500 -9.027600
C -11.025100 -18.814500 -9.029300
N -10.775500 -24.699400 -9.390200
H -10.328200 -23.946200 -9.474400
N -10.291600 -25.934900 -9.664900
O -10.212800 -28.612400 -9.916800
O -9.900300 -16.839100 -9.290500
N -9.811700 -18.064900 -9.322900
O -8.810600 -18.698400 -9.572400
O -11.958900 -25.476900 -12.477400
H -11.587200 -26.237100 -12.570100
H -11.354400 -24.875400 -12.390300
