21
Fragment
O -15.753100 -23.876100 -16.081800
O -15.711900 -28.802500 -15.277800
H -15.405700 -26.391200 -15.515200
N -14.663900 -28.883600 -15.897000
C -14.610100 -26.437700 -16.031500
N -14.540100 -24.034800 -15.975000
O -14.087000 -29.935800 -16.146800
C -14.048900 -27.645100 -16.379600
C -13.967000 -25.299200 -16.465500
O -13.781400 -23.233200 -15.458500
C -12.914200 -27.720800 -17.150400
H -12.903600 -23.267100 -17.688300
C -12.808200 -25.270300 -17.261200
H -12.548400 -28.563100 -17.393200
C -12.313200 -26.540100 -17.565200
C -12.232800 -23.976400 -17.767600
H -11.975500 -24.079700 -18.707700
H -11.443100 -23.740700 -17.237100
N -11.069400 -26.720200 -18.334900
O -10.822200 -27.833800 -18.774600
O -10.328700 -25.760800 -18.487500
19
Fragment
H -18.503300 -34.508000 -12.347800
H -18.251700 -32.278900 -12.763400
H -17.802900 -36.775100 -12.536800
C -17.769800 -34.216900 -12.875800
C -17.625300 -32.897700 -13.120000
H -17.112900 -37.122500 -13.938400
C -17.010700 -36.632500 -13.096200
C -16.863200 -35.188300 -13.381100
C -16.576000 -32.450400 -13.882900
H -16.476500 -31.520900 -14.056000
H -16.215100 -36.955200 -12.624200
C -15.787100 -34.738000 -14.174500
C -15.649600 -33.366000 -14.407300
H -15.038500 -36.384000 -14.670700
N -14.795400 -35.597300 -14.660500
N -14.621300 -32.919200 -15.224500
H -14.514500 -32.046800 -15.213200
H -14.381600 -35.390100 -15.394000
H -13.861800 -33.342000 -15.077600
40
Fragment
O -15.753100 -23.876100 -16.081800
O -15.711900 -28.802500 -15.277800
H -15.405700 -26.391200 -15.515200
N -14.663900 -28.883600 -15.897000
C -14.610100 -26.437700 -16.031500
N -14.540100 -24.034800 -15.975000
O -14.087000 -29.935800 -16.146800
C -14.048900 -27.645100 -16.379600
C -13.967000 -25.299200 -16.465500
O -13.781400 -23.233200 -15.458500
C -12.914200 -27.720800 -17.150400
H -12.903600 -23.267100 -17.688300
C -12.808200 -25.270300 -17.261200
H -12.548400 -28.563100 -17.393200
C -12.313200 -26.540100 -17.565200
C -12.232800 -23.976400 -17.767600
H -11.975500 -24.079700 -18.707700
H -11.443100 -23.740700 -17.237100
N -11.069400 -26.720200 -18.334900
O -10.822200 -27.833800 -18.774600
O -10.328700 -25.760800 -18.487500
H -18.503300 -34.508000 -12.347800
H -18.251700 -32.278900 -12.763400
H -17.802900 -36.775100 -12.536800
C -17.769800 -34.216900 -12.875800
C -17.625300 -32.897700 -13.120000
H -17.112900 -37.122500 -13.938400
C -17.010700 -36.632500 -13.096200
C -16.863200 -35.188300 -13.381100
C -16.576000 -32.450400 -13.882900
H -16.476500 -31.520900 -14.056000
H -16.215100 -36.955200 -12.624200
C -15.787100 -34.738000 -14.174500
C -15.649600 -33.366000 -14.407300
H -15.038500 -36.384000 -14.670700
N -14.795400 -35.597300 -14.660500
N -14.621300 -32.919200 -15.224500
H -14.514500 -32.046800 -15.213200
H -14.381600 -35.390100 -15.394000
H -13.861800 -33.342000 -15.077600
