21
Fragment
O -15.753100 -23.876100 -16.081800
O -15.711900 -28.802500 -15.277800
H -15.405700 -26.391200 -15.515200
N -14.663900 -28.883600 -15.897000
C -14.610100 -26.437700 -16.031500
N -14.540100 -24.034800 -15.975000
O -14.087000 -29.935800 -16.146800
C -14.048900 -27.645100 -16.379600
C -13.967000 -25.299200 -16.465500
O -13.781400 -23.233200 -15.458500
C -12.914200 -27.720800 -17.150400
H -12.903600 -23.267100 -17.688300
C -12.808200 -25.270300 -17.261200
H -12.548400 -28.563100 -17.393200
C -12.313200 -26.540100 -17.565200
C -12.232800 -23.976400 -17.767600
H -11.975500 -24.079700 -18.707700
H -11.443100 -23.740700 -17.237100
N -11.069400 -26.720200 -18.334900
O -10.822200 -27.833800 -18.774600
O -10.328700 -25.760800 -18.487500
21
Fragment
O -11.780500 -19.418000 -15.420000
O -11.287000 -17.345000 -15.132900
N -11.039900 -18.458600 -15.572600
H -10.666100 -21.438100 -16.670400
H -10.133700 -21.099100 -15.199900
C -9.876400 -21.202400 -16.140000
C -9.796100 -18.638700 -16.342300
H -9.560800 -16.615700 -16.514300
C -9.301000 -19.908500 -16.646400
H -9.205600 -21.911700 -16.219200
C -9.195000 -17.458000 -16.757100
O -8.327800 -21.945600 -18.449100
C -8.142300 -19.879600 -17.442000
C -8.060300 -17.533700 -17.527900
O -8.022300 -15.243000 -17.760800
N -7.569100 -21.144000 -17.932600
C -7.499100 -18.741100 -17.876100
N -7.445300 -16.295200 -18.010600
H -6.703600 -18.787600 -18.392400
O -6.397300 -16.376300 -18.629700
O -6.356100 -21.302700 -17.825800
42
Fragment
O -15.753100 -23.876100 -16.081800
O -15.711900 -28.802500 -15.277800
H -15.405700 -26.391200 -15.515200
N -14.663900 -28.883600 -15.897000
C -14.610100 -26.437700 -16.031500
N -14.540100 -24.034800 -15.975000
O -14.087000 -29.935800 -16.146800
C -14.048900 -27.645100 -16.379600
C -13.967000 -25.299200 -16.465500
O -13.781400 -23.233200 -15.458500
C -12.914200 -27.720800 -17.150400
H -12.903600 -23.267100 -17.688300
C -12.808200 -25.270300 -17.261200
H -12.548400 -28.563100 -17.393200
C -12.313200 -26.540100 -17.565200
C -12.232800 -23.976400 -17.767600
H -11.975500 -24.079700 -18.707700
H -11.443100 -23.740700 -17.237100
N -11.069400 -26.720200 -18.334900
O -10.822200 -27.833800 -18.774600
O -10.328700 -25.760800 -18.487500
O -11.780500 -19.418000 -15.420000
O -11.287000 -17.345000 -15.132900
N -11.039900 -18.458600 -15.572600
H -10.666100 -21.438100 -16.670400
H -10.133700 -21.099100 -15.199900
C -9.876400 -21.202400 -16.140000
C -9.796100 -18.638700 -16.342300
H -9.560800 -16.615700 -16.514300
C -9.301000 -19.908500 -16.646400
H -9.205600 -21.911700 -16.219200
C -9.195000 -17.458000 -16.757100
O -8.327800 -21.945600 -18.449100
C -8.142300 -19.879600 -17.442000
C -8.060300 -17.533700 -17.527900
O -8.022300 -15.243000 -17.760800
N -7.569100 -21.144000 -17.932600
C -7.499100 -18.741100 -17.876100
N -7.445300 -16.295200 -18.010600
H -6.703600 -18.787600 -18.392400
O -6.397300 -16.376300 -18.629700
O -6.356100 -21.302700 -17.825800
