21
Fragment
O -15.753100 -23.876100 -16.081800
O -15.711900 -28.802500 -15.277800
H -15.405700 -26.391200 -15.515200
N -14.663900 -28.883600 -15.897000
C -14.610100 -26.437700 -16.031500
N -14.540100 -24.034800 -15.975000
O -14.087000 -29.935800 -16.146800
C -14.048900 -27.645100 -16.379600
C -13.967000 -25.299200 -16.465500
O -13.781400 -23.233200 -15.458500
C -12.914200 -27.720800 -17.150400
H -12.903600 -23.267100 -17.688300
C -12.808200 -25.270300 -17.261200
H -12.548400 -28.563100 -17.393200
C -12.313200 -26.540100 -17.565200
C -12.232800 -23.976400 -17.767600
H -11.975500 -24.079700 -18.707700
H -11.443100 -23.740700 -17.237100
N -11.069400 -26.720200 -18.334900
O -10.822200 -27.833800 -18.774600
O -10.328700 -25.760800 -18.487500
21
Fragment
O -21.025000 -28.832500 -10.430500
O -20.983800 -23.906100 -9.626600
H -20.677600 -26.317400 -9.863900
N -19.935800 -23.825000 -10.245700
C -19.882000 -26.270900 -10.380200
N -19.812000 -28.673800 -10.323700
O -19.358900 -22.772800 -10.495500
C -19.320800 -25.063500 -10.728400
C -19.238900 -27.409400 -10.814300
O -19.053400 -29.475400 -9.807200
C -18.186100 -24.987800 -11.499200
H -18.175500 -29.441500 -12.037100
C -18.080100 -27.438300 -11.609900
H -17.820400 -24.145500 -11.742000
C -17.585100 -26.168500 -11.914000
C -17.504700 -28.732200 -12.116300
H -17.247400 -28.628900 -13.056400
H -16.715100 -28.967900 -11.585900
N -16.341300 -25.988400 -12.683700
O -16.094200 -24.874800 -13.123400
O -15.600600 -26.947800 -12.836300
42
Fragment
O -15.753100 -23.876100 -16.081800
O -15.711900 -28.802500 -15.277800
H -15.405700 -26.391200 -15.515200
N -14.663900 -28.883600 -15.897000
C -14.610100 -26.437700 -16.031500
N -14.540100 -24.034800 -15.975000
O -14.087000 -29.935800 -16.146800
C -14.048900 -27.645100 -16.379600
C -13.967000 -25.299200 -16.465500
O -13.781400 -23.233200 -15.458500
C -12.914200 -27.720800 -17.150400
H -12.903600 -23.267100 -17.688300
C -12.808200 -25.270300 -17.261200
H -12.548400 -28.563100 -17.393200
C -12.313200 -26.540100 -17.565200
C -12.232800 -23.976400 -17.767600
H -11.975500 -24.079700 -18.707700
H -11.443100 -23.740700 -17.237100
N -11.069400 -26.720200 -18.334900
O -10.822200 -27.833800 -18.774600
O -10.328700 -25.760800 -18.487500
O -21.025000 -28.832500 -10.430500
O -20.983800 -23.906100 -9.626600
H -20.677600 -26.317400 -9.863900
N -19.935800 -23.825000 -10.245700
C -19.882000 -26.270900 -10.380200
N -19.812000 -28.673800 -10.323700
O -19.358900 -22.772800 -10.495500
C -19.320800 -25.063500 -10.728400
C -19.238900 -27.409400 -10.814300
O -19.053400 -29.475400 -9.807200
C -18.186100 -24.987800 -11.499200
H -18.175500 -29.441500 -12.037100
C -18.080100 -27.438300 -11.609900
H -17.820400 -24.145500 -11.742000
C -17.585100 -26.168500 -11.914000
C -17.504700 -28.732200 -12.116300
H -17.247400 -28.628900 -13.056400
H -16.715100 -28.967900 -11.585900
N -16.341300 -25.988400 -12.683700
O -16.094200 -24.874800 -13.123400
O -15.600600 -26.947800 -12.836300
