21
Fragment
O -15.753100 -23.876100 -16.081800
O -15.711900 -28.802500 -15.277800
H -15.405700 -26.391200 -15.515200
N -14.663900 -28.883600 -15.897000
C -14.610100 -26.437700 -16.031500
N -14.540100 -24.034800 -15.975000
O -14.087000 -29.935800 -16.146800
C -14.048900 -27.645100 -16.379600
C -13.967000 -25.299200 -16.465500
O -13.781400 -23.233200 -15.458500
C -12.914200 -27.720800 -17.150400
H -12.903600 -23.267100 -17.688300
C -12.808200 -25.270300 -17.261200
H -12.548400 -28.563100 -17.393200
C -12.313200 -26.540100 -17.565200
C -12.232800 -23.976400 -17.767600
H -11.975500 -24.079700 -18.707700
H -11.443100 -23.740700 -17.237100
N -11.069400 -26.720200 -18.334900
O -10.822200 -27.833800 -18.774600
O -10.328700 -25.760800 -18.487500
21
Fragment
O -20.737300 -34.477600 -15.420000
O -20.243800 -32.404600 -15.132900
N -19.996700 -33.518200 -15.572600
H -19.622900 -36.497700 -16.670400
H -19.090500 -36.158700 -15.199900
C -18.833200 -36.262000 -16.140000
C -18.752900 -33.698300 -16.342300
H -18.517600 -31.675300 -16.514300
C -18.257800 -34.968100 -16.646400
H -18.162400 -36.971300 -16.219200
C -18.151800 -32.517600 -16.757100
O -17.284600 -37.005200 -18.449100
C -17.099100 -34.939200 -17.442000
C -17.017100 -32.593300 -17.527900
O -16.979100 -30.302600 -17.760800
N -16.525900 -36.203600 -17.932600
C -16.455900 -33.800700 -17.876100
N -16.402100 -31.354800 -18.010600
H -15.660400 -33.847200 -18.392400
O -15.354100 -31.435900 -18.629700
O -15.312900 -36.362300 -17.825800
42
Fragment
O -15.753100 -23.876100 -16.081800
O -15.711900 -28.802500 -15.277800
H -15.405700 -26.391200 -15.515200
N -14.663900 -28.883600 -15.897000
C -14.610100 -26.437700 -16.031500
N -14.540100 -24.034800 -15.975000
O -14.087000 -29.935800 -16.146800
C -14.048900 -27.645100 -16.379600
C -13.967000 -25.299200 -16.465500
O -13.781400 -23.233200 -15.458500
C -12.914200 -27.720800 -17.150400
H -12.903600 -23.267100 -17.688300
C -12.808200 -25.270300 -17.261200
H -12.548400 -28.563100 -17.393200
C -12.313200 -26.540100 -17.565200
C -12.232800 -23.976400 -17.767600
H -11.975500 -24.079700 -18.707700
H -11.443100 -23.740700 -17.237100
N -11.069400 -26.720200 -18.334900
O -10.822200 -27.833800 -18.774600
O -10.328700 -25.760800 -18.487500
O -20.737300 -34.477600 -15.420000
O -20.243800 -32.404600 -15.132900
N -19.996700 -33.518200 -15.572600
H -19.622900 -36.497700 -16.670400
H -19.090500 -36.158700 -15.199900
C -18.833200 -36.262000 -16.140000
C -18.752900 -33.698300 -16.342300
H -18.517600 -31.675300 -16.514300
C -18.257800 -34.968100 -16.646400
H -18.162400 -36.971300 -16.219200
C -18.151800 -32.517600 -16.757100
O -17.284600 -37.005200 -18.449100
C -17.099100 -34.939200 -17.442000
C -17.017100 -32.593300 -17.527900
O -16.979100 -30.302600 -17.760800
N -16.525900 -36.203600 -17.932600
C -16.455900 -33.800700 -17.876100
N -16.402100 -31.354800 -18.010600
H -15.660400 -33.847200 -18.392400
O -15.354100 -31.435900 -18.629700
O -15.312900 -36.362300 -17.825800
