21
Fragment
O -15.753100 -23.876100 -16.081800
O -15.711900 -28.802500 -15.277800
H -15.405700 -26.391200 -15.515200
N -14.663900 -28.883600 -15.897000
C -14.610100 -26.437700 -16.031500
N -14.540100 -24.034800 -15.975000
O -14.087000 -29.935800 -16.146800
C -14.048900 -27.645100 -16.379600
C -13.967000 -25.299200 -16.465500
O -13.781400 -23.233200 -15.458500
C -12.914200 -27.720800 -17.150400
H -12.903600 -23.267100 -17.688300
C -12.808200 -25.270300 -17.261200
H -12.548400 -28.563100 -17.393200
C -12.313200 -26.540100 -17.565200
C -12.232800 -23.976400 -17.767600
H -11.975500 -24.079700 -18.707700
H -11.443100 -23.740700 -17.237100
N -11.069400 -26.720200 -18.334900
O -10.822200 -27.833800 -18.774600
O -10.328700 -25.760800 -18.487500
19
Fragment
H -8.247400 -26.896400 -18.830000
H -7.727600 -24.848300 -18.513500
H -7.594700 -28.191600 -18.694400
N -7.487900 -27.319200 -18.683100
N -7.313800 -24.641100 -19.247100
H -7.070700 -23.854400 -19.236900
C -6.459600 -26.872400 -19.500200
C -6.322100 -25.500400 -19.733100
H -5.894100 -23.283200 -21.283300
H -5.632700 -28.717500 -19.851500
C -5.533300 -27.788000 -20.024700
C -5.246000 -25.050100 -20.526500
C -5.098600 -23.605900 -20.811300
H -4.996300 -23.115900 -19.969200
C -4.483900 -27.340700 -20.787600
C -4.339400 -26.021500 -21.031700
H -4.306300 -23.463300 -21.370800
H -3.857500 -27.959500 -21.144200
H -3.605900 -25.730400 -21.559800
40
Fragment
O -15.753100 -23.876100 -16.081800
O -15.711900 -28.802500 -15.277800
H -15.405700 -26.391200 -15.515200
N -14.663900 -28.883600 -15.897000
C -14.610100 -26.437700 -16.031500
N -14.540100 -24.034800 -15.975000
O -14.087000 -29.935800 -16.146800
C -14.048900 -27.645100 -16.379600
C -13.967000 -25.299200 -16.465500
O -13.781400 -23.233200 -15.458500
C -12.914200 -27.720800 -17.150400
H -12.903600 -23.267100 -17.688300
C -12.808200 -25.270300 -17.261200
H -12.548400 -28.563100 -17.393200
C -12.313200 -26.540100 -17.565200
C -12.232800 -23.976400 -17.767600
H -11.975500 -24.079700 -18.707700
H -11.443100 -23.740700 -17.237100
N -11.069400 -26.720200 -18.334900
O -10.822200 -27.833800 -18.774600
O -10.328700 -25.760800 -18.487500
H -8.247400 -26.896400 -18.830000
H -7.727600 -24.848300 -18.513500
H -7.594700 -28.191600 -18.694400
N -7.487900 -27.319200 -18.683100
N -7.313800 -24.641100 -19.247100
H -7.070700 -23.854400 -19.236900
C -6.459600 -26.872400 -19.500200
C -6.322100 -25.500400 -19.733100
H -5.894100 -23.283200 -21.283300
H -5.632700 -28.717500 -19.851500
C -5.533300 -27.788000 -20.024700
C -5.246000 -25.050100 -20.526500
C -5.098600 -23.605900 -20.811300
H -4.996300 -23.115900 -19.969200
C -4.483900 -27.340700 -20.787600
C -4.339400 -26.021500 -21.031700
H -4.306300 -23.463300 -21.370800
H -3.857500 -27.959500 -21.144200
H -3.605900 -25.730400 -21.559800
