21
Fragment
O -15.753100 -23.876100 -16.081800
O -15.711900 -28.802500 -15.277800
H -15.405700 -26.391200 -15.515200
N -14.663900 -28.883600 -15.897000
C -14.610100 -26.437700 -16.031500
N -14.540100 -24.034800 -15.975000
O -14.087000 -29.935800 -16.146800
C -14.048900 -27.645100 -16.379600
C -13.967000 -25.299200 -16.465500
O -13.781400 -23.233200 -15.458500
C -12.914200 -27.720800 -17.150400
H -12.903600 -23.267100 -17.688300
C -12.808200 -25.270300 -17.261200
H -12.548400 -28.563100 -17.393200
C -12.313200 -26.540100 -17.565200
C -12.232800 -23.976400 -17.767600
H -11.975500 -24.079700 -18.707700
H -11.443100 -23.740700 -17.237100
N -11.069400 -26.720200 -18.334900
O -10.822200 -27.833800 -18.774600
O -10.328700 -25.760800 -18.487500
19
Fragment
H -22.476200 -25.812200 -13.178700
H -21.956300 -27.860300 -12.862300
H -21.823400 -24.517000 -13.043100
N -21.716700 -25.389400 -13.031800
N -21.542500 -28.067500 -13.595800
H -21.299400 -28.854200 -13.585600
C -20.688300 -25.836200 -13.849000
C -20.550800 -27.208200 -14.081800
H -20.122800 -29.425400 -15.632100
H -19.861500 -23.991100 -14.200300
C -19.762000 -24.920600 -14.373400
C -19.474800 -27.658500 -14.875200
C -19.327300 -29.102700 -15.160100
H -19.225000 -29.592700 -14.317900
C -18.712600 -25.367900 -15.136300
C -18.568200 -26.687100 -15.380500
H -18.535100 -29.245300 -15.719500
H -18.086300 -24.749100 -15.492900
H -17.834600 -26.978200 -15.908500
40
Fragment
O -15.753100 -23.876100 -16.081800
O -15.711900 -28.802500 -15.277800
H -15.405700 -26.391200 -15.515200
N -14.663900 -28.883600 -15.897000
C -14.610100 -26.437700 -16.031500
N -14.540100 -24.034800 -15.975000
O -14.087000 -29.935800 -16.146800
C -14.048900 -27.645100 -16.379600
C -13.967000 -25.299200 -16.465500
O -13.781400 -23.233200 -15.458500
C -12.914200 -27.720800 -17.150400
H -12.903600 -23.267100 -17.688300
C -12.808200 -25.270300 -17.261200
H -12.548400 -28.563100 -17.393200
C -12.313200 -26.540100 -17.565200
C -12.232800 -23.976400 -17.767600
H -11.975500 -24.079700 -18.707700
H -11.443100 -23.740700 -17.237100
N -11.069400 -26.720200 -18.334900
O -10.822200 -27.833800 -18.774600
O -10.328700 -25.760800 -18.487500
H -22.476200 -25.812200 -13.178700
H -21.956300 -27.860300 -12.862300
H -21.823400 -24.517000 -13.043100
N -21.716700 -25.389400 -13.031800
N -21.542500 -28.067500 -13.595800
H -21.299400 -28.854200 -13.585600
C -20.688300 -25.836200 -13.849000
C -20.550800 -27.208200 -14.081800
H -20.122800 -29.425400 -15.632100
H -19.861500 -23.991100 -14.200300
C -19.762000 -24.920600 -14.373400
C -19.474800 -27.658500 -14.875200
C -19.327300 -29.102700 -15.160100
H -19.225000 -29.592700 -14.317900
C -18.712600 -25.367900 -15.136300
C -18.568200 -26.687100 -15.380500
H -18.535100 -29.245300 -15.719500
H -18.086300 -24.749100 -15.492900
H -17.834600 -26.978200 -15.908500
