40
Fragment
O -14.332600 -15.945700 -14.925800
H -13.831100 -22.917600 -15.516700
H -13.670400 -20.667500 -14.982000
C -13.341600 -22.658000 -14.750800
C -13.279600 -21.318300 -14.412700
C -13.274600 -16.165000 -14.438600
H -13.064700 -18.825900 -14.688200
H -12.885100 -17.329300 -12.583800
N -12.778700 -18.552400 -13.790500
H -12.714500 -24.519200 -14.223700
C -12.702400 -23.603000 -13.948200
C -12.637300 -17.143500 -13.478300
C -12.632400 -20.914400 -13.251400
C -12.510700 -19.475500 -12.860400
O -12.162200 -19.154700 -11.721800
O -12.128200 -15.440300 -14.602800
C -12.068400 -23.216500 -12.797700
C -12.040400 -21.866400 -12.421800
O -11.470500 -24.169600 -12.032900
O -11.421000 -21.564100 -11.257300
H -11.363100 -20.531300 -11.119000
C -11.339600 -16.393500 -13.787200
H -11.040200 -23.731100 -11.097400
H -10.820000 -16.123400 -13.053800
H -10.703900 -17.448100 -15.380600
C -10.273500 -17.067300 -14.625500
H -10.043300 -19.650900 -15.190500
H -9.659000 -16.418800 -14.879400
C -9.611600 -19.474400 -14.353300
C -9.570900 -18.164700 -13.870400
H -9.116100 -21.414100 -13.934200
C -9.088500 -20.514000 -13.609000
C -8.917900 -17.916600 -12.694000
H -8.816000 -17.045400 -12.398000
C -8.503800 -20.232500 -12.404500
C -8.375000 -18.936700 -11.928100
O -8.126700 -22.457200 -11.969200
N -8.008500 -21.320600 -11.557600
H -7.982500 -18.753200 -11.086600
O -7.525500 -21.064400 -10.484900
40
Fragment
O -14.567700 -26.833900 -11.120100
H -14.110600 -24.522700 -10.518400
N -14.084700 -27.090100 -10.047400
O -13.966400 -28.226700 -9.635800
C -13.718200 -24.706200 -9.676900
C -13.589300 -26.002000 -9.200500
H -13.277100 -22.814900 -9.207000
C -13.175200 -23.686100 -8.911000
C -13.004600 -26.283500 -7.996000
H -12.977000 -27.183600 -7.670900
C -12.522200 -23.934200 -7.734600
C -12.481500 -25.243900 -7.251700
H -12.434100 -22.188300 -6.725600
H -12.049800 -25.420400 -6.414500
C -11.819600 -22.836800 -6.979500
H -11.389200 -23.217600 -6.224400
H -11.273100 -21.892900 -8.551300
H -11.052900 -29.500600 -10.507600
C -10.753500 -22.163000 -7.817800
H -10.730000 -26.300800 -10.486000
O -10.672100 -27.333600 -10.347700
O -10.622600 -29.939100 -9.572100
C -10.052700 -27.635900 -9.183200
C -10.024700 -28.986000 -8.807300
O -9.965000 -21.209800 -7.002200
O -9.930900 -24.924200 -9.883200
C -9.582400 -25.245000 -8.744600
C -9.460800 -26.683900 -8.353600
C -9.455800 -22.913000 -8.126700
C -9.390700 -29.372500 -7.656800
H -9.378600 -30.288700 -7.381400
N -9.314400 -24.321900 -7.814500
H -9.208100 -23.098800 -9.021200
H -9.028400 -24.595400 -6.916800
C -8.818600 -21.934500 -7.166400
C -8.813500 -27.087800 -7.192300
C -8.751600 -28.427500 -6.854200
H -8.422700 -26.437000 -6.623000
H -8.262000 -28.687100 -6.088300
O -7.760600 -21.715200 -6.679200
80
Fragment
O -14.332600 -15.945700 -14.925800
H -13.831100 -22.917600 -15.516700
H -13.670400 -20.667500 -14.982000
C -13.341600 -22.658000 -14.750800
C -13.279600 -21.318300 -14.412700
C -13.274600 -16.165000 -14.438600
H -13.064700 -18.825900 -14.688200
H -12.885100 -17.329300 -12.583800
N -12.778700 -18.552400 -13.790500
H -12.714500 -24.519200 -14.223700
C -12.702400 -23.603000 -13.948200
C -12.637300 -17.143500 -13.478300
C -12.632400 -20.914400 -13.251400
C -12.510700 -19.475500 -12.860400
O -12.162200 -19.154700 -11.721800
O -12.128200 -15.440300 -14.602800
C -12.068400 -23.216500 -12.797700
C -12.040400 -21.866400 -12.421800
O -11.470500 -24.169600 -12.032900
O -11.421000 -21.564100 -11.257300
H -11.363100 -20.531300 -11.119000
C -11.339600 -16.393500 -13.787200
H -11.040200 -23.731100 -11.097400
H -10.820000 -16.123400 -13.053800
H -10.703900 -17.448100 -15.380600
C -10.273500 -17.067300 -14.625500
H -10.043300 -19.650900 -15.190500
H -9.659000 -16.418800 -14.879400
C -9.611600 -19.474400 -14.353300
C -9.570900 -18.164700 -13.870400
H -9.116100 -21.414100 -13.934200
C -9.088500 -20.514000 -13.609000
C -8.917900 -17.916600 -12.694000
H -8.816000 -17.045400 -12.398000
C -8.503800 -20.232500 -12.404500
C -8.375000 -18.936700 -11.928100
O -8.126700 -22.457200 -11.969200
N -8.008500 -21.320600 -11.557600
H -7.982500 -18.753200 -11.086600
O -7.525500 -21.064400 -10.484900
O -14.567700 -26.833900 -11.120100
H -14.110600 -24.522700 -10.518400
N -14.084700 -27.090100 -10.047400
O -13.966400 -28.226700 -9.635800
C -13.718200 -24.706200 -9.676900
C -13.589300 -26.002000 -9.200500
H -13.277100 -22.814900 -9.207000
C -13.175200 -23.686100 -8.911000
C -13.004600 -26.283500 -7.996000
H -12.977000 -27.183600 -7.670900
C -12.522200 -23.934200 -7.734600
C -12.481500 -25.243900 -7.251700
H -12.434100 -22.188300 -6.725600
H -12.049800 -25.420400 -6.414500
C -11.819600 -22.836800 -6.979500
H -11.389200 -23.217600 -6.224400
H -11.273100 -21.892900 -8.551300
H -11.052900 -29.500600 -10.507600
C -10.753500 -22.163000 -7.817800
H -10.730000 -26.300800 -10.486000
O -10.672100 -27.333600 -10.347700
O -10.622600 -29.939100 -9.572100
C -10.052700 -27.635900 -9.183200
C -10.024700 -28.986000 -8.807300
O -9.965000 -21.209800 -7.002200
O -9.930900 -24.924200 -9.883200
C -9.582400 -25.245000 -8.744600
C -9.460800 -26.683900 -8.353600
C -9.455800 -22.913000 -8.126700
C -9.390700 -29.372500 -7.656800
H -9.378600 -30.288700 -7.381400
N -9.314400 -24.321900 -7.814500
H -9.208100 -23.098800 -9.021200
H -9.028400 -24.595400 -6.916800
C -8.818600 -21.934500 -7.166400
C -8.813500 -27.087800 -7.192300
C -8.751600 -28.427500 -6.854200
H -8.422700 -26.437000 -6.623000
H -8.262000 -28.687100 -6.088300
O -7.760600 -21.715200 -6.679200
