40
Fragment
O -14.332600 -15.945700 -14.925800
H -13.831100 -22.917600 -15.516700
H -13.670400 -20.667500 -14.982000
C -13.341600 -22.658000 -14.750800
C -13.279600 -21.318300 -14.412700
C -13.274600 -16.165000 -14.438600
H -13.064700 -18.825900 -14.688200
H -12.885100 -17.329300 -12.583800
N -12.778700 -18.552400 -13.790500
H -12.714500 -24.519200 -14.223700
C -12.702400 -23.603000 -13.948200
C -12.637300 -17.143500 -13.478300
C -12.632400 -20.914400 -13.251400
C -12.510700 -19.475500 -12.860400
O -12.162200 -19.154700 -11.721800
O -12.128200 -15.440300 -14.602800
C -12.068400 -23.216500 -12.797700
C -12.040400 -21.866400 -12.421800
O -11.470500 -24.169600 -12.032900
O -11.421000 -21.564100 -11.257300
H -11.363100 -20.531300 -11.119000
C -11.339600 -16.393500 -13.787200
H -11.040200 -23.731100 -11.097400
H -10.820000 -16.123400 -13.053800
H -10.703900 -17.448100 -15.380600
C -10.273500 -17.067300 -14.625500
H -10.043300 -19.650900 -15.190500
H -9.659000 -16.418800 -14.879400
C -9.611600 -19.474400 -14.353300
C -9.570900 -18.164700 -13.870400
H -9.116100 -21.414100 -13.934200
C -9.088500 -20.514000 -13.609000
C -8.917900 -17.916600 -12.694000
H -8.816000 -17.045400 -12.398000
C -8.503800 -20.232500 -12.404500
C -8.375000 -18.936700 -11.928100
O -8.126700 -22.457200 -11.969200
N -8.008500 -21.320600 -11.557600
H -7.982500 -18.753200 -11.086600
O -7.525500 -21.064400 -10.484900
40
Fragment
O -14.332600 -27.484700 -14.925800
H -13.831100 -34.456600 -15.516700
H -13.670400 -32.206500 -14.982000
C -13.341600 -34.197000 -14.750800
C -13.279600 -32.857300 -14.412700
C -13.274600 -27.704000 -14.438600
H -13.064700 -30.364900 -14.688200
H -12.885100 -28.868300 -12.583800
N -12.778700 -30.091400 -13.790500
H -12.714500 -36.058200 -14.223700
C -12.702400 -35.142000 -13.948200
C -12.637300 -28.682500 -13.478300
C -12.632400 -32.453400 -13.251400
C -12.510700 -31.014500 -12.860400
O -12.162200 -30.693700 -11.721800
O -12.128200 -26.979300 -14.602800
C -12.068400 -34.755500 -12.797700
C -12.040400 -33.405400 -12.421800
O -11.470500 -35.708600 -12.032900
O -11.421000 -33.103100 -11.257300
H -11.363100 -32.070300 -11.119000
C -11.339600 -27.932500 -13.787200
H -11.040200 -35.270100 -11.097400
H -10.820000 -27.662400 -13.053800
H -10.703900 -28.987100 -15.380600
C -10.273500 -28.606300 -14.625500
H -10.043300 -31.189900 -15.190500
H -9.659000 -27.957800 -14.879400
C -9.611600 -31.013400 -14.353300
C -9.570900 -29.703700 -13.870400
H -9.116100 -32.953100 -13.934200
C -9.088500 -32.053000 -13.609000
C -8.917900 -29.455600 -12.694000
H -8.816000 -28.584400 -12.398000
C -8.503800 -31.771500 -12.404500
C -8.375000 -30.475700 -11.928100
O -8.126700 -33.996200 -11.969200
N -8.008500 -32.859600 -11.557600
H -7.982500 -30.292200 -11.086600
O -7.525500 -32.603400 -10.484900
80
Fragment
O -14.332600 -15.945700 -14.925800
H -13.831100 -22.917600 -15.516700
H -13.670400 -20.667500 -14.982000
C -13.341600 -22.658000 -14.750800
C -13.279600 -21.318300 -14.412700
C -13.274600 -16.165000 -14.438600
H -13.064700 -18.825900 -14.688200
H -12.885100 -17.329300 -12.583800
N -12.778700 -18.552400 -13.790500
H -12.714500 -24.519200 -14.223700
C -12.702400 -23.603000 -13.948200
C -12.637300 -17.143500 -13.478300
C -12.632400 -20.914400 -13.251400
C -12.510700 -19.475500 -12.860400
O -12.162200 -19.154700 -11.721800
O -12.128200 -15.440300 -14.602800
C -12.068400 -23.216500 -12.797700
C -12.040400 -21.866400 -12.421800
O -11.470500 -24.169600 -12.032900
O -11.421000 -21.564100 -11.257300
H -11.363100 -20.531300 -11.119000
C -11.339600 -16.393500 -13.787200
H -11.040200 -23.731100 -11.097400
H -10.820000 -16.123400 -13.053800
H -10.703900 -17.448100 -15.380600
C -10.273500 -17.067300 -14.625500
H -10.043300 -19.650900 -15.190500
H -9.659000 -16.418800 -14.879400
C -9.611600 -19.474400 -14.353300
C -9.570900 -18.164700 -13.870400
H -9.116100 -21.414100 -13.934200
C -9.088500 -20.514000 -13.609000
C -8.917900 -17.916600 -12.694000
H -8.816000 -17.045400 -12.398000
C -8.503800 -20.232500 -12.404500
C -8.375000 -18.936700 -11.928100
O -8.126700 -22.457200 -11.969200
N -8.008500 -21.320600 -11.557600
H -7.982500 -18.753200 -11.086600
O -7.525500 -21.064400 -10.484900
O -14.332600 -27.484700 -14.925800
H -13.831100 -34.456600 -15.516700
H -13.670400 -32.206500 -14.982000
C -13.341600 -34.197000 -14.750800
C -13.279600 -32.857300 -14.412700
C -13.274600 -27.704000 -14.438600
H -13.064700 -30.364900 -14.688200
H -12.885100 -28.868300 -12.583800
N -12.778700 -30.091400 -13.790500
H -12.714500 -36.058200 -14.223700
C -12.702400 -35.142000 -13.948200
C -12.637300 -28.682500 -13.478300
C -12.632400 -32.453400 -13.251400
C -12.510700 -31.014500 -12.860400
O -12.162200 -30.693700 -11.721800
O -12.128200 -26.979300 -14.602800
C -12.068400 -34.755500 -12.797700
C -12.040400 -33.405400 -12.421800
O -11.470500 -35.708600 -12.032900
O -11.421000 -33.103100 -11.257300
H -11.363100 -32.070300 -11.119000
C -11.339600 -27.932500 -13.787200
H -11.040200 -35.270100 -11.097400
H -10.820000 -27.662400 -13.053800
H -10.703900 -28.987100 -15.380600
C -10.273500 -28.606300 -14.625500
H -10.043300 -31.189900 -15.190500
H -9.659000 -27.957800 -14.879400
C -9.611600 -31.013400 -14.353300
C -9.570900 -29.703700 -13.870400
H -9.116100 -32.953100 -13.934200
C -9.088500 -32.053000 -13.609000
C -8.917900 -29.455600 -12.694000
H -8.816000 -28.584400 -12.398000
C -8.503800 -31.771500 -12.404500
C -8.375000 -30.475700 -11.928100
O -8.126700 -33.996200 -11.969200
N -8.008500 -32.859600 -11.557600
H -7.982500 -30.292200 -11.086600
O -7.525500 -32.603400 -10.484900
