42
Fragment
H -10.943100 -7.901400 -22.170500
H -10.910400 -8.697600 -24.379000
C -10.137900 -7.879100 -22.674600
C -10.120100 -8.340400 -23.991300
H -8.987200 -7.087400 -21.208500
C -8.975200 -7.389200 -22.109300
H -8.954900 -8.587800 -25.632500
C -8.954400 -8.279200 -24.734000
H -7.818600 -2.385000 -16.252800
C -7.784600 -7.328900 -22.834900
C -7.769500 -7.766800 -24.178300
C -7.063800 -2.960400 -16.212300
H -6.692400 -9.427600 -25.961600
N -6.690200 -3.630700 -15.121500
N -6.585000 -6.285000 -21.041000
C -6.556200 -7.694900 -25.007400
C -6.547600 -6.905400 -22.162300
H -6.266000 -2.854200 -18.167200
N -6.224400 -8.688700 -25.864800
C -6.207600 -3.209700 -17.288200
H -6.125000 -5.230800 -19.015400
H -5.708000 -7.094400 -22.564700
C -5.588300 -6.719100 -25.161000
N -5.579700 -4.306900 -15.500600
H -5.531300 -5.887400 -24.705500
C -5.298500 -5.504400 -19.395700
N -5.280900 -6.066200 -20.546100
C -5.256000 -4.086600 -16.796500
H -5.119700 -4.831400 -14.964200
N -5.096700 -8.420700 -26.554600
C -4.715800 -7.214800 -26.124900
C -4.043900 -5.281100 -18.660400
C -4.038500 -4.668100 -17.390800
H -3.946400 -6.753800 -26.437800
C -2.841800 -5.768000 -19.184600
C -2.838300 -4.610300 -16.669500
H -2.838000 -6.169800 -20.045400
H -2.830800 -4.220900 -15.803000
C -1.663600 -5.112500 -17.202500
C -1.658200 -5.675700 -18.474000
H -0.859400 -5.072400 -16.698400
H -0.847000 -5.994800 -18.852200
42
Fragment
H -7.001300 -10.128500 -21.505300
H -6.989000 -11.050900 -23.659000
C -6.190100 -10.447700 -21.883400
C -6.184700 -11.010900 -23.155000
H -5.017500 -11.902400 -24.554400
H -5.010300 -9.953600 -20.312100
C -5.010000 -11.513100 -23.688000
C -5.006500 -10.355400 -21.172900
H -3.902000 -9.369600 -13.919700
C -3.809800 -11.455300 -22.966600
C -3.804400 -10.842300 -21.697100
C -3.132500 -8.908600 -14.232600
N -2.751600 -7.702700 -13.802900
H -2.728600 -11.292000 -25.393300
C -2.592300 -12.036800 -23.561000
N -2.567500 -10.057200 -19.811400
C -2.549800 -10.619000 -20.961800
H -2.317000 -10.236000 -15.652000
N -2.268600 -11.816400 -24.856800
C -2.260000 -9.404300 -15.196500
H -2.140300 -9.028900 -17.792800
H -1.723400 -10.892600 -21.342100
C -1.640800 -12.913600 -23.069300
N -1.624000 -7.434700 -14.492600
H -1.582300 -13.269200 -22.190300
C -1.300700 -9.218000 -18.195200
C -1.292100 -8.428500 -15.350100
N -1.263300 -9.838400 -19.316400
N -1.158100 -12.492700 -25.235900
H -1.155900 -6.695800 -14.395900
C -0.784500 -13.162900 -24.145200
C -0.078800 -8.356600 -16.179200
C -0.063800 -8.794500 -17.522500
H -0.029800 -13.738400 -24.104700
C 1.106100 -7.844200 -15.623500
H 1.106600 -7.535500 -14.725000
C 1.126900 -8.734200 -18.248200
H 1.138800 -9.036000 -19.149000
C 2.271800 -7.783000 -16.366200
C 2.289600 -8.244300 -17.682900
H 3.062100 -7.425800 -15.978500
H 3.094800 -8.221900 -18.187000
84
Fragment
H -10.943100 -7.901400 -22.170500
H -10.910400 -8.697600 -24.379000
C -10.137900 -7.879100 -22.674600
C -10.120100 -8.340400 -23.991300
H -8.987200 -7.087400 -21.208500
C -8.975200 -7.389200 -22.109300
H -8.954900 -8.587800 -25.632500
C -8.954400 -8.279200 -24.734000
H -7.818600 -2.385000 -16.252800
C -7.784600 -7.328900 -22.834900
C -7.769500 -7.766800 -24.178300
C -7.063800 -2.960400 -16.212300
H -6.692400 -9.427600 -25.961600
N -6.690200 -3.630700 -15.121500
N -6.585000 -6.285000 -21.041000
C -6.556200 -7.694900 -25.007400
C -6.547600 -6.905400 -22.162300
H -6.266000 -2.854200 -18.167200
N -6.224400 -8.688700 -25.864800
C -6.207600 -3.209700 -17.288200
H -6.125000 -5.230800 -19.015400
H -5.708000 -7.094400 -22.564700
C -5.588300 -6.719100 -25.161000
N -5.579700 -4.306900 -15.500600
H -5.531300 -5.887400 -24.705500
C -5.298500 -5.504400 -19.395700
N -5.280900 -6.066200 -20.546100
C -5.256000 -4.086600 -16.796500
H -5.119700 -4.831400 -14.964200
N -5.096700 -8.420700 -26.554600
C -4.715800 -7.214800 -26.124900
C -4.043900 -5.281100 -18.660400
C -4.038500 -4.668100 -17.390800
H -3.946400 -6.753800 -26.437800
C -2.841800 -5.768000 -19.184600
C -2.838300 -4.610300 -16.669500
H -2.838000 -6.169800 -20.045400
H -2.830800 -4.220900 -15.803000
C -1.663600 -5.112500 -17.202500
C -1.658200 -5.675700 -18.474000
H -0.859400 -5.072400 -16.698400
H -0.847000 -5.994800 -18.852200
H -7.001300 -10.128500 -21.505300
H -6.989000 -11.050900 -23.659000
C -6.190100 -10.447700 -21.883400
C -6.184700 -11.010900 -23.155000
H -5.017500 -11.902400 -24.554400
H -5.010300 -9.953600 -20.312100
C -5.010000 -11.513100 -23.688000
C -5.006500 -10.355400 -21.172900
H -3.902000 -9.369600 -13.919700
C -3.809800 -11.455300 -22.966600
C -3.804400 -10.842300 -21.697100
C -3.132500 -8.908600 -14.232600
N -2.751600 -7.702700 -13.802900
H -2.728600 -11.292000 -25.393300
C -2.592300 -12.036800 -23.561000
N -2.567500 -10.057200 -19.811400
C -2.549800 -10.619000 -20.961800
H -2.317000 -10.236000 -15.652000
N -2.268600 -11.816400 -24.856800
C -2.260000 -9.404300 -15.196500
H -2.140300 -9.028900 -17.792800
H -1.723400 -10.892600 -21.342100
C -1.640800 -12.913600 -23.069300
N -1.624000 -7.434700 -14.492600
H -1.582300 -13.269200 -22.190300
C -1.300700 -9.218000 -18.195200
C -1.292100 -8.428500 -15.350100
N -1.263300 -9.838400 -19.316400
N -1.158100 -12.492700 -25.235900
H -1.155900 -6.695800 -14.395900
C -0.784500 -13.162900 -24.145200
C -0.078800 -8.356600 -16.179200
C -0.063800 -8.794500 -17.522500
H -0.029800 -13.738400 -24.104700
C 1.106100 -7.844200 -15.623500
H 1.106600 -7.535500 -14.725000
C 1.126900 -8.734200 -18.248200
H 1.138800 -9.036000 -19.149000
C 2.271800 -7.783000 -16.366200
C 2.289600 -8.244300 -17.682900
H 3.062100 -7.425800 -15.978500
H 3.094800 -8.221900 -18.187000
