24
Fragment
H -20.778900 -23.378100 -10.740800
H -20.019500 -22.458100 -11.725300
H -19.958400 -25.770600 -11.099100
C -19.928800 -22.996300 -10.960900
H -19.682300 -22.422800 -10.216900
C -19.090100 -25.357800 -11.182300
N -18.915200 -24.038900 -11.154100
N -17.953000 -26.062300 -11.324400
C -17.546700 -23.836100 -11.309300
O -17.168100 -21.492900 -11.301500
C -17.018700 -25.080200 -11.401700
C -16.768900 -22.641200 -11.357200
H -15.768100 -27.300800 -11.789400
N -15.659400 -25.298600 -11.539900
N -15.393800 -22.945600 -11.474400
C -15.082000 -26.647000 -11.627700
H -14.893500 -20.967300 -11.334200
C -14.806400 -24.217900 -11.530100
H -14.658700 -26.887900 -10.797200
H -14.441900 -26.709000 -12.318000
C -14.440800 -21.795800 -11.488200
H -13.989600 -21.733800 -12.327800
H -13.772900 -21.891600 -10.805000
O -13.579500 -24.340500 -11.569400
24
Fragment
O -22.948300 -17.929500 -8.079700
H -22.754800 -20.378400 -8.844000
H -22.538200 -20.536200 -7.321200
C -22.086900 -20.474200 -8.160900
H -22.085800 -15.561000 -7.331100
H -21.869000 -15.382100 -8.851900
C -21.721300 -18.052100 -8.119000
H -21.634300 -21.302700 -8.314800
C -21.445700 -15.623000 -8.021400
N -21.133900 -19.324400 -8.174700
N -20.868300 -16.971400 -8.109200
H -20.759600 -14.969200 -7.859600
C -19.758800 -19.628800 -8.291900
C -19.509100 -17.189800 -8.247400
O -19.359700 -20.777100 -8.347600
C -18.981000 -18.433900 -8.339700
N -18.574700 -16.207700 -8.324700
N -17.612600 -18.231100 -8.494900
C -17.437700 -16.912200 -8.466800
H -16.845400 -19.847200 -9.432200
C -16.598900 -19.273700 -8.688200
H -16.569300 -16.499400 -8.550000
H -16.508200 -19.811900 -7.923800
H -15.748800 -18.891900 -8.908200
48
Fragment
H -20.778900 -23.378100 -10.740800
H -20.019500 -22.458100 -11.725300
H -19.958400 -25.770600 -11.099100
C -19.928800 -22.996300 -10.960900
H -19.682300 -22.422800 -10.216900
C -19.090100 -25.357800 -11.182300
N -18.915200 -24.038900 -11.154100
N -17.953000 -26.062300 -11.324400
C -17.546700 -23.836100 -11.309300
O -17.168100 -21.492900 -11.301500
C -17.018700 -25.080200 -11.401700
C -16.768900 -22.641200 -11.357200
H -15.768100 -27.300800 -11.789400
N -15.659400 -25.298600 -11.539900
N -15.393800 -22.945600 -11.474400
C -15.082000 -26.647000 -11.627700
H -14.893500 -20.967300 -11.334200
C -14.806400 -24.217900 -11.530100
H -14.658700 -26.887900 -10.797200
H -14.441900 -26.709000 -12.318000
C -14.440800 -21.795800 -11.488200
H -13.989600 -21.733800 -12.327800
H -13.772900 -21.891600 -10.805000
O -13.579500 -24.340500 -11.569400
O -22.948300 -17.929500 -8.079700
H -22.754800 -20.378400 -8.844000
H -22.538200 -20.536200 -7.321200
C -22.086900 -20.474200 -8.160900
H -22.085800 -15.561000 -7.331100
H -21.869000 -15.382100 -8.851900
C -21.721300 -18.052100 -8.119000
H -21.634300 -21.302700 -8.314800
C -21.445700 -15.623000 -8.021400
N -21.133900 -19.324400 -8.174700
N -20.868300 -16.971400 -8.109200
H -20.759600 -14.969200 -7.859600
C -19.758800 -19.628800 -8.291900
C -19.509100 -17.189800 -8.247400
O -19.359700 -20.777100 -8.347600
C -18.981000 -18.433900 -8.339700
N -18.574700 -16.207700 -8.324700
N -17.612600 -18.231100 -8.494900
C -17.437700 -16.912200 -8.466800
H -16.845400 -19.847200 -9.432200
C -16.598900 -19.273700 -8.688200
H -16.569300 -16.499400 -8.550000
H -16.508200 -19.811900 -7.923800
H -15.748800 -18.891900 -8.908200
