24
Fragment
H -20.778900 -23.378100 -10.740800
H -20.019500 -22.458100 -11.725300
H -19.958400 -25.770600 -11.099100
C -19.928800 -22.996300 -10.960900
H -19.682300 -22.422800 -10.216900
C -19.090100 -25.357800 -11.182300
N -18.915200 -24.038900 -11.154100
N -17.953000 -26.062300 -11.324400
C -17.546700 -23.836100 -11.309300
O -17.168100 -21.492900 -11.301500
C -17.018700 -25.080200 -11.401700
C -16.768900 -22.641200 -11.357200
H -15.768100 -27.300800 -11.789400
N -15.659400 -25.298600 -11.539900
N -15.393800 -22.945600 -11.474400
C -15.082000 -26.647000 -11.627700
H -14.893500 -20.967300 -11.334200
C -14.806400 -24.217900 -11.530100
H -14.658700 -26.887900 -10.797200
H -14.441900 -26.709000 -12.318000
C -14.440800 -21.795800 -11.488200
H -13.989600 -21.733800 -12.327800
H -13.772900 -21.891600 -10.805000
O -13.579500 -24.340500 -11.569400
17
Fragment
O -23.689600 -31.622200 -11.499300
O -23.111300 -33.731500 -11.500600
N -22.848400 -32.547900 -11.511100
H -21.748300 -30.192100 -11.449500
C -21.406500 -32.178700 -11.560900
C -21.060000 -30.868400 -11.523500
H -20.741900 -34.089300 -11.682000
C -20.481600 -33.158000 -11.662400
O -20.261500 -28.226500 -11.329000
C -19.711100 -30.521800 -11.587100
C -19.395900 -29.038100 -11.500600
C -19.114800 -32.845200 -11.744900
C -18.708000 -31.470000 -11.707600
H -18.452100 -33.549700 -11.855600
O -18.137900 -28.740800 -11.628300
H -18.070700 -27.734800 -11.517600
H -17.780700 -31.203700 -11.761900
41
Fragment
H -20.778900 -23.378100 -10.740800
H -20.019500 -22.458100 -11.725300
H -19.958400 -25.770600 -11.099100
C -19.928800 -22.996300 -10.960900
H -19.682300 -22.422800 -10.216900
C -19.090100 -25.357800 -11.182300
N -18.915200 -24.038900 -11.154100
N -17.953000 -26.062300 -11.324400
C -17.546700 -23.836100 -11.309300
O -17.168100 -21.492900 -11.301500
C -17.018700 -25.080200 -11.401700
C -16.768900 -22.641200 -11.357200
H -15.768100 -27.300800 -11.789400
N -15.659400 -25.298600 -11.539900
N -15.393800 -22.945600 -11.474400
C -15.082000 -26.647000 -11.627700
H -14.893500 -20.967300 -11.334200
C -14.806400 -24.217900 -11.530100
H -14.658700 -26.887900 -10.797200
H -14.441900 -26.709000 -12.318000
C -14.440800 -21.795800 -11.488200
H -13.989600 -21.733800 -12.327800
H -13.772900 -21.891600 -10.805000
O -13.579500 -24.340500 -11.569400
O -23.689600 -31.622200 -11.499300
O -23.111300 -33.731500 -11.500600
N -22.848400 -32.547900 -11.511100
H -21.748300 -30.192100 -11.449500
C -21.406500 -32.178700 -11.560900
C -21.060000 -30.868400 -11.523500
H -20.741900 -34.089300 -11.682000
C -20.481600 -33.158000 -11.662400
O -20.261500 -28.226500 -11.329000
C -19.711100 -30.521800 -11.587100
C -19.395900 -29.038100 -11.500600
C -19.114800 -32.845200 -11.744900
C -18.708000 -31.470000 -11.707600
H -18.452100 -33.549700 -11.855600
O -18.137900 -28.740800 -11.628300
H -18.070700 -27.734800 -11.517600
H -17.780700 -31.203700 -11.761900
