24
Fragment
H -20.778900 -23.378100 -10.740800
H -20.019500 -22.458100 -11.725300
H -19.958400 -25.770600 -11.099100
C -19.928800 -22.996300 -10.960900
H -19.682300 -22.422800 -10.216900
C -19.090100 -25.357800 -11.182300
N -18.915200 -24.038900 -11.154100
N -17.953000 -26.062300 -11.324400
C -17.546700 -23.836100 -11.309300
O -17.168100 -21.492900 -11.301500
C -17.018700 -25.080200 -11.401700
C -16.768900 -22.641200 -11.357200
H -15.768100 -27.300800 -11.789400
N -15.659400 -25.298600 -11.539900
N -15.393800 -22.945600 -11.474400
C -15.082000 -26.647000 -11.627700
H -14.893500 -20.967300 -11.334200
C -14.806400 -24.217900 -11.530100
H -14.658700 -26.887900 -10.797200
H -14.441900 -26.709000 -12.318000
C -14.440800 -21.795800 -11.488200
H -13.989600 -21.733800 -12.327800
H -13.772900 -21.891600 -10.805000
O -13.579500 -24.340500 -11.569400
24
Fragment
O -17.364200 -17.929500 -14.629400
H -17.170700 -20.378400 -15.393700
H -16.954100 -20.536200 -13.870900
C -16.502800 -20.474200 -14.710600
H -16.501700 -15.561000 -13.880800
H -16.284900 -15.382100 -15.401600
C -16.137200 -18.052100 -14.668700
H -16.050200 -21.302700 -14.864500
C -15.861700 -15.623000 -14.571100
N -15.549800 -19.324400 -14.724400
N -15.284200 -16.971400 -14.658900
H -15.175500 -14.969200 -14.409300
C -14.174700 -19.628800 -14.841600
C -13.925000 -17.189800 -14.797100
O -13.775600 -20.777100 -14.897300
C -13.396900 -18.433900 -14.889400
N -12.990600 -16.207700 -14.874300
N -12.028500 -18.231100 -15.044600
C -11.853600 -16.912200 -15.016500
H -11.261400 -19.847200 -15.981900
C -11.014800 -19.273700 -15.237900
H -10.985200 -16.499400 -15.099700
H -10.924100 -19.811900 -14.473500
H -10.164700 -18.891900 -15.457900
48
Fragment
H -20.778900 -23.378100 -10.740800
H -20.019500 -22.458100 -11.725300
H -19.958400 -25.770600 -11.099100
C -19.928800 -22.996300 -10.960900
H -19.682300 -22.422800 -10.216900
C -19.090100 -25.357800 -11.182300
N -18.915200 -24.038900 -11.154100
N -17.953000 -26.062300 -11.324400
C -17.546700 -23.836100 -11.309300
O -17.168100 -21.492900 -11.301500
C -17.018700 -25.080200 -11.401700
C -16.768900 -22.641200 -11.357200
H -15.768100 -27.300800 -11.789400
N -15.659400 -25.298600 -11.539900
N -15.393800 -22.945600 -11.474400
C -15.082000 -26.647000 -11.627700
H -14.893500 -20.967300 -11.334200
C -14.806400 -24.217900 -11.530100
H -14.658700 -26.887900 -10.797200
H -14.441900 -26.709000 -12.318000
C -14.440800 -21.795800 -11.488200
H -13.989600 -21.733800 -12.327800
H -13.772900 -21.891600 -10.805000
O -13.579500 -24.340500 -11.569400
O -17.364200 -17.929500 -14.629400
H -17.170700 -20.378400 -15.393700
H -16.954100 -20.536200 -13.870900
C -16.502800 -20.474200 -14.710600
H -16.501700 -15.561000 -13.880800
H -16.284900 -15.382100 -15.401600
C -16.137200 -18.052100 -14.668700
H -16.050200 -21.302700 -14.864500
C -15.861700 -15.623000 -14.571100
N -15.549800 -19.324400 -14.724400
N -15.284200 -16.971400 -14.658900
H -15.175500 -14.969200 -14.409300
C -14.174700 -19.628800 -14.841600
C -13.925000 -17.189800 -14.797100
O -13.775600 -20.777100 -14.897300
C -13.396900 -18.433900 -14.889400
N -12.990600 -16.207700 -14.874300
N -12.028500 -18.231100 -15.044600
C -11.853600 -16.912200 -15.016500
H -11.261400 -19.847200 -15.981900
C -11.014800 -19.273700 -15.237900
H -10.985200 -16.499400 -15.099700
H -10.924100 -19.811900 -14.473500
H -10.164700 -18.891900 -15.457900
