34
Fragment
H -36.654300 -17.559400 -9.891600
H -36.216300 -17.040400 -7.401800
C -35.947500 -17.837900 -9.441700
N -35.654800 -17.511300 -8.172100
N -35.165000 -18.765900 -9.903900
C -34.645400 -18.350700 -7.808500
H -34.543800 -15.343900 -11.919200
C -34.334800 -19.100100 -8.880900
H -34.285000 -18.496300 -7.044300
H -33.667800 -13.331000 -13.533900
H -33.647900 -20.686400 -9.984100
C -33.574200 -14.907200 -11.796000
H -33.468700 -16.331400 -9.417100
C -33.311400 -20.169900 -9.065800
H -33.309400 -20.876300 -8.400200
N -33.180000 -13.903200 -12.634200
C -32.654400 -14.961600 -10.797600
C -32.622500 -15.859200 -9.602000
H -32.532900 -15.268000 -8.591200
C -32.043200 -13.379100 -12.104100
C -31.881900 -19.643300 -9.300000
O -31.854000 -19.715400 -11.678900
C -31.736500 -19.000100 -10.680500
N -31.686800 -14.014600 -11.001000
H -31.557400 -19.141900 -7.352500
H -31.457800 -12.660000 -12.547900
N -31.445900 -17.705000 -10.729800
N -31.443900 -18.812800 -8.215300
C -31.390100 -16.755500 -9.608100
H -31.338300 -20.509200 -9.361600
C -31.250700 -17.477100 -8.270700
H -31.238800 -17.356900 -11.568000
O -30.964000 -16.821300 -7.284700
H -30.522000 -16.217500 -9.848500
34
Fragment
H -29.208000 -21.762500 -9.848500
O -28.766000 -21.158700 -7.284700
H -28.491200 -20.623100 -11.568000
C -28.479300 -20.502900 -8.270700
H -28.391700 -17.470800 -9.361600
C -28.339900 -21.224500 -9.608100
N -28.286100 -19.167200 -8.215300
N -28.284100 -20.275000 -10.729800
H -28.272200 -25.320000 -12.547900
H -28.172600 -18.838100 -7.352500
N -28.043200 -23.965400 -11.001000
C -27.993500 -18.979900 -10.680500
O -27.876000 -18.264600 -11.678900
C -27.848100 -18.336700 -9.300000
C -27.686800 -24.600900 -12.104100
H -27.197100 -22.712000 -8.591200
C -27.107500 -22.120800 -9.602000
C -27.075600 -23.018400 -10.797600
N -26.550000 -24.076800 -12.634200
H -26.420600 -17.103700 -8.400200
C -26.418600 -17.810100 -9.065800
H -26.261300 -21.648600 -9.417100
C -26.155800 -23.072900 -11.796000
H -26.082100 -17.293600 -9.984100
H -26.062200 -24.649000 -13.533900
H -25.445000 -19.483700 -7.044300
C -25.395200 -18.879900 -8.880900
H -25.186200 -22.636100 -11.919200
C -25.084600 -19.629300 -7.808500
N -24.565000 -19.214100 -9.903900
N -24.075200 -20.468700 -8.172100
C -23.782500 -20.142100 -9.441700
H -23.513700 -20.939600 -7.401800
H -23.075700 -20.420600 -9.891600
68
Fragment
H -36.654300 -17.559400 -9.891600
H -36.216300 -17.040400 -7.401800
C -35.947500 -17.837900 -9.441700
N -35.654800 -17.511300 -8.172100
N -35.165000 -18.765900 -9.903900
C -34.645400 -18.350700 -7.808500
H -34.543800 -15.343900 -11.919200
C -34.334800 -19.100100 -8.880900
H -34.285000 -18.496300 -7.044300
H -33.667800 -13.331000 -13.533900
H -33.647900 -20.686400 -9.984100
C -33.574200 -14.907200 -11.796000
H -33.468700 -16.331400 -9.417100
C -33.311400 -20.169900 -9.065800
H -33.309400 -20.876300 -8.400200
N -33.180000 -13.903200 -12.634200
C -32.654400 -14.961600 -10.797600
C -32.622500 -15.859200 -9.602000
H -32.532900 -15.268000 -8.591200
C -32.043200 -13.379100 -12.104100
C -31.881900 -19.643300 -9.300000
O -31.854000 -19.715400 -11.678900
C -31.736500 -19.000100 -10.680500
N -31.686800 -14.014600 -11.001000
H -31.557400 -19.141900 -7.352500
H -31.457800 -12.660000 -12.547900
N -31.445900 -17.705000 -10.729800
N -31.443900 -18.812800 -8.215300
C -31.390100 -16.755500 -9.608100
H -31.338300 -20.509200 -9.361600
C -31.250700 -17.477100 -8.270700
H -31.238800 -17.356900 -11.568000
O -30.964000 -16.821300 -7.284700
H -30.522000 -16.217500 -9.848500
H -29.208000 -21.762500 -9.848500
O -28.766000 -21.158700 -7.284700
H -28.491200 -20.623100 -11.568000
C -28.479300 -20.502900 -8.270700
H -28.391700 -17.470800 -9.361600
C -28.339900 -21.224500 -9.608100
N -28.286100 -19.167200 -8.215300
N -28.284100 -20.275000 -10.729800
H -28.272200 -25.320000 -12.547900
H -28.172600 -18.838100 -7.352500
N -28.043200 -23.965400 -11.001000
C -27.993500 -18.979900 -10.680500
O -27.876000 -18.264600 -11.678900
C -27.848100 -18.336700 -9.300000
C -27.686800 -24.600900 -12.104100
H -27.197100 -22.712000 -8.591200
C -27.107500 -22.120800 -9.602000
C -27.075600 -23.018400 -10.797600
N -26.550000 -24.076800 -12.634200
H -26.420600 -17.103700 -8.400200
C -26.418600 -17.810100 -9.065800
H -26.261300 -21.648600 -9.417100
C -26.155800 -23.072900 -11.796000
H -26.082100 -17.293600 -9.984100
H -26.062200 -24.649000 -13.533900
H -25.445000 -19.483700 -7.044300
C -25.395200 -18.879900 -8.880900
H -25.186200 -22.636100 -11.919200
C -25.084600 -19.629300 -7.808500
N -24.565000 -19.214100 -9.903900
N -24.075200 -20.468700 -8.172100
C -23.782500 -20.142100 -9.441700
H -23.513700 -20.939600 -7.401800
H -23.075700 -20.420600 -9.891600
