34
Fragment
H -36.654300 -17.559400 -9.891600
H -36.216300 -17.040400 -7.401800
C -35.947500 -17.837900 -9.441700
N -35.654800 -17.511300 -8.172100
N -35.165000 -18.765900 -9.903900
C -34.645400 -18.350700 -7.808500
H -34.543800 -15.343900 -11.919200
C -34.334800 -19.100100 -8.880900
H -34.285000 -18.496300 -7.044300
H -33.667800 -13.331000 -13.533900
H -33.647900 -20.686400 -9.984100
C -33.574200 -14.907200 -11.796000
H -33.468700 -16.331400 -9.417100
C -33.311400 -20.169900 -9.065800
H -33.309400 -20.876300 -8.400200
N -33.180000 -13.903200 -12.634200
C -32.654400 -14.961600 -10.797600
C -32.622500 -15.859200 -9.602000
H -32.532900 -15.268000 -8.591200
C -32.043200 -13.379100 -12.104100
C -31.881900 -19.643300 -9.300000
O -31.854000 -19.715400 -11.678900
C -31.736500 -19.000100 -10.680500
N -31.686800 -14.014600 -11.001000
H -31.557400 -19.141900 -7.352500
H -31.457800 -12.660000 -12.547900
N -31.445900 -17.705000 -10.729800
N -31.443900 -18.812800 -8.215300
C -31.390100 -16.755500 -9.608100
H -31.338300 -20.509200 -9.361600
C -31.250700 -17.477100 -8.270700
H -31.238800 -17.356900 -11.568000
O -30.964000 -16.821300 -7.284700
H -30.522000 -16.217500 -9.848500
34
Fragment
H -36.654300 -17.559400 -3.728600
H -36.216300 -17.040400 -1.238800
C -35.947500 -17.837900 -3.278700
N -35.654800 -17.511300 -2.009100
N -35.165000 -18.765900 -3.740900
C -34.645400 -18.350700 -1.645500
H -34.543800 -15.343900 -5.756200
C -34.334800 -19.100100 -2.717900
H -34.285000 -18.496300 -0.881300
H -33.667800 -13.331000 -7.370900
H -33.647900 -20.686400 -3.821100
C -33.574200 -14.907200 -5.633000
H -33.468700 -16.331400 -3.254100
C -33.311400 -20.169900 -2.902800
H -33.309400 -20.876300 -2.237200
N -33.180000 -13.903200 -6.471200
C -32.654400 -14.961600 -4.634600
C -32.622500 -15.859200 -3.439000
H -32.532900 -15.268000 -2.428200
C -32.043200 -13.379100 -5.941100
C -31.881900 -19.643300 -3.137000
O -31.854000 -19.715400 -5.515900
C -31.736500 -19.000100 -4.517500
N -31.686800 -14.014600 -4.838000
H -31.557400 -19.141900 -1.189500
H -31.457800 -12.660000 -6.384900
N -31.445900 -17.705000 -4.566800
N -31.443900 -18.812800 -2.052300
C -31.390100 -16.755500 -3.445100
H -31.338300 -20.509200 -3.198600
C -31.250700 -17.477100 -2.107700
H -31.238800 -17.356900 -5.405000
O -30.964000 -16.821300 -1.121700
H -30.522000 -16.217500 -3.685500
68
Fragment
H -36.654300 -17.559400 -9.891600
H -36.216300 -17.040400 -7.401800
C -35.947500 -17.837900 -9.441700
N -35.654800 -17.511300 -8.172100
N -35.165000 -18.765900 -9.903900
C -34.645400 -18.350700 -7.808500
H -34.543800 -15.343900 -11.919200
C -34.334800 -19.100100 -8.880900
H -34.285000 -18.496300 -7.044300
H -33.667800 -13.331000 -13.533900
H -33.647900 -20.686400 -9.984100
C -33.574200 -14.907200 -11.796000
H -33.468700 -16.331400 -9.417100
C -33.311400 -20.169900 -9.065800
H -33.309400 -20.876300 -8.400200
N -33.180000 -13.903200 -12.634200
C -32.654400 -14.961600 -10.797600
C -32.622500 -15.859200 -9.602000
H -32.532900 -15.268000 -8.591200
C -32.043200 -13.379100 -12.104100
C -31.881900 -19.643300 -9.300000
O -31.854000 -19.715400 -11.678900
C -31.736500 -19.000100 -10.680500
N -31.686800 -14.014600 -11.001000
H -31.557400 -19.141900 -7.352500
H -31.457800 -12.660000 -12.547900
N -31.445900 -17.705000 -10.729800
N -31.443900 -18.812800 -8.215300
C -31.390100 -16.755500 -9.608100
H -31.338300 -20.509200 -9.361600
C -31.250700 -17.477100 -8.270700
H -31.238800 -17.356900 -11.568000
O -30.964000 -16.821300 -7.284700
H -30.522000 -16.217500 -9.848500
H -36.654300 -17.559400 -3.728600
H -36.216300 -17.040400 -1.238800
C -35.947500 -17.837900 -3.278700
N -35.654800 -17.511300 -2.009100
N -35.165000 -18.765900 -3.740900
C -34.645400 -18.350700 -1.645500
H -34.543800 -15.343900 -5.756200
C -34.334800 -19.100100 -2.717900
H -34.285000 -18.496300 -0.881300
H -33.667800 -13.331000 -7.370900
H -33.647900 -20.686400 -3.821100
C -33.574200 -14.907200 -5.633000
H -33.468700 -16.331400 -3.254100
C -33.311400 -20.169900 -2.902800
H -33.309400 -20.876300 -2.237200
N -33.180000 -13.903200 -6.471200
C -32.654400 -14.961600 -4.634600
C -32.622500 -15.859200 -3.439000
H -32.532900 -15.268000 -2.428200
C -32.043200 -13.379100 -5.941100
C -31.881900 -19.643300 -3.137000
O -31.854000 -19.715400 -5.515900
C -31.736500 -19.000100 -4.517500
N -31.686800 -14.014600 -4.838000
H -31.557400 -19.141900 -1.189500
H -31.457800 -12.660000 -6.384900
N -31.445900 -17.705000 -4.566800
N -31.443900 -18.812800 -2.052300
C -31.390100 -16.755500 -3.445100
H -31.338300 -20.509200 -3.198600
C -31.250700 -17.477100 -2.107700
H -31.238800 -17.356900 -5.405000
O -30.964000 -16.821300 -1.121700
H -30.522000 -16.217500 -3.685500
