13
Fragment
H -2.878100 -7.147400 -20.737500
H -2.559900 -7.198500 -22.192000
N -2.548000 -7.564200 -21.413000
C -2.021700 -8.768600 -21.255000
N -2.003200 -9.337800 -20.042500
F -1.528500 -8.861400 -23.586300
C -1.486200 -9.466300 -22.376100
C -1.462100 -10.569000 -19.889800
O -1.391800 -11.131500 -18.765600
C -0.978400 -10.697700 -22.228200
N -0.968600 -11.241300 -20.979300
H -0.642600 -11.167400 -22.957800
H -0.623100 -12.016600 -20.810800
13
Fragment
H 0.748400 -7.147400 -20.737500
H 1.066600 -7.198500 -22.192000
N 1.078500 -7.564200 -21.413000
C 1.604800 -8.768600 -21.255000
N 1.623300 -9.337800 -20.042500
F 2.098000 -8.861400 -23.586300
C 2.140300 -9.466300 -22.376100
C 2.164400 -10.569000 -19.889800
O 2.234700 -11.131500 -18.765600
C 2.648100 -10.697700 -22.228200
N 2.657900 -11.241300 -20.979300
H 2.983900 -11.167400 -22.957800
H 3.003400 -12.016600 -20.810800
26
Fragment
H -2.878100 -7.147400 -20.737500
H -2.559900 -7.198500 -22.192000
N -2.548000 -7.564200 -21.413000
C -2.021700 -8.768600 -21.255000
N -2.003200 -9.337800 -20.042500
F -1.528500 -8.861400 -23.586300
C -1.486200 -9.466300 -22.376100
C -1.462100 -10.569000 -19.889800
O -1.391800 -11.131500 -18.765600
C -0.978400 -10.697700 -22.228200
N -0.968600 -11.241300 -20.979300
H -0.642600 -11.167400 -22.957800
H -0.623100 -12.016600 -20.810800
H 0.748400 -7.147400 -20.737500
H 1.066600 -7.198500 -22.192000
N 1.078500 -7.564200 -21.413000
C 1.604800 -8.768600 -21.255000
N 1.623300 -9.337800 -20.042500
F 2.098000 -8.861400 -23.586300
C 2.140300 -9.466300 -22.376100
C 2.164400 -10.569000 -19.889800
O 2.234700 -11.131500 -18.765600
C 2.648100 -10.697700 -22.228200
N 2.657900 -11.241300 -20.979300
H 2.983900 -11.167400 -22.957800
H 3.003400 -12.016600 -20.810800
