13
Fragment
H -2.878100 -7.147400 -20.737500
H -2.559900 -7.198500 -22.192000
N -2.548000 -7.564200 -21.413000
C -2.021700 -8.768600 -21.255000
N -2.003200 -9.337800 -20.042500
F -1.528500 -8.861400 -23.586300
C -1.486200 -9.466300 -22.376100
C -1.462100 -10.569000 -19.889800
O -1.391800 -11.131500 -18.765600
C -0.978400 -10.697700 -22.228200
N -0.968600 -11.241300 -20.979300
H -0.642600 -11.167400 -22.957800
H -0.623100 -12.016600 -20.810800
18
Fragment
H 0.599900 -14.462900 -21.940600
O 0.787500 -14.894200 -22.755000
O 0.928100 -12.784200 -23.485600
C 1.057900 -13.975300 -23.672400
H 1.235400 -16.504500 -24.556200
C 1.544200 -15.916600 -25.207300
C 1.547400 -14.542700 -24.965300
C 2.002400 -16.403300 -26.421300
H 2.002600 -17.318600 -26.584000
H 2.007400 -12.749300 -25.780200
C 2.007500 -13.664600 -25.942900
C 2.462500 -15.525100 -27.398900
C 2.465800 -14.151300 -27.156900
H 2.774600 -13.563400 -27.808000
C 2.952100 -16.092600 -28.691800
O 3.081900 -17.283600 -28.878600
O 3.222400 -15.173700 -29.609200
H 3.410100 -15.605000 -30.423600
31
Fragment
H -2.878100 -7.147400 -20.737500
H -2.559900 -7.198500 -22.192000
N -2.548000 -7.564200 -21.413000
C -2.021700 -8.768600 -21.255000
N -2.003200 -9.337800 -20.042500
F -1.528500 -8.861400 -23.586300
C -1.486200 -9.466300 -22.376100
C -1.462100 -10.569000 -19.889800
O -1.391800 -11.131500 -18.765600
C -0.978400 -10.697700 -22.228200
N -0.968600 -11.241300 -20.979300
H -0.642600 -11.167400 -22.957800
H -0.623100 -12.016600 -20.810800
H 0.599900 -14.462900 -21.940600
O 0.787500 -14.894200 -22.755000
O 0.928100 -12.784200 -23.485600
C 1.057900 -13.975300 -23.672400
H 1.235400 -16.504500 -24.556200
C 1.544200 -15.916600 -25.207300
C 1.547400 -14.542700 -24.965300
C 2.002400 -16.403300 -26.421300
H 2.002600 -17.318600 -26.584000
H 2.007400 -12.749300 -25.780200
C 2.007500 -13.664600 -25.942900
C 2.462500 -15.525100 -27.398900
C 2.465800 -14.151300 -27.156900
H 2.774600 -13.563400 -27.808000
C 2.952100 -16.092600 -28.691800
O 3.081900 -17.283600 -28.878600
O 3.222400 -15.173700 -29.609200
H 3.410100 -15.605000 -30.423600
