13
Fragment
H -2.878100 -7.147400 -20.737500
H -2.559900 -7.198500 -22.192000
N -2.548000 -7.564200 -21.413000
C -2.021700 -8.768600 -21.255000
N -2.003200 -9.337800 -20.042500
F -1.528500 -8.861400 -23.586300
C -1.486200 -9.466300 -22.376100
C -1.462100 -10.569000 -19.889800
O -1.391800 -11.131500 -18.765600
C -0.978400 -10.697700 -22.228200
N -0.968600 -11.241300 -20.979300
H -0.642600 -11.167400 -22.957800
H -0.623100 -12.016600 -20.810800
13
Fragment
H -0.618700 -12.899100 -18.462300
H -0.599300 -13.748400 -16.315400
N -0.273200 -13.674400 -18.293800
C -0.263400 -14.218100 -17.044900
O 0.150000 -13.784300 -20.507500
C 0.220200 -14.346700 -19.383400
C 0.244400 -15.449500 -16.897000
F 0.286600 -16.054300 -15.686900
N 0.761300 -15.577900 -19.230600
C 0.779900 -16.147100 -18.018100
N 1.306100 -17.351600 -17.860100
H 1.318000 -17.717200 -17.081200
H 1.636200 -17.768400 -18.535600
26
Fragment
H -2.878100 -7.147400 -20.737500
H -2.559900 -7.198500 -22.192000
N -2.548000 -7.564200 -21.413000
C -2.021700 -8.768600 -21.255000
N -2.003200 -9.337800 -20.042500
F -1.528500 -8.861400 -23.586300
C -1.486200 -9.466300 -22.376100
C -1.462100 -10.569000 -19.889800
O -1.391800 -11.131500 -18.765600
C -0.978400 -10.697700 -22.228200
N -0.968600 -11.241300 -20.979300
H -0.642600 -11.167400 -22.957800
H -0.623100 -12.016600 -20.810800
H -0.618700 -12.899100 -18.462300
H -0.599300 -13.748400 -16.315400
N -0.273200 -13.674400 -18.293800
C -0.263400 -14.218100 -17.044900
O 0.150000 -13.784300 -20.507500
C 0.220200 -14.346700 -19.383400
C 0.244400 -15.449500 -16.897000
F 0.286600 -16.054300 -15.686900
N 0.761300 -15.577900 -19.230600
C 0.779900 -16.147100 -18.018100
N 1.306100 -17.351600 -17.860100
H 1.318000 -17.717200 -17.081200
H 1.636200 -17.768400 -18.535600
