13
Fragment
H -12.057300 -20.914000 -11.388200
F -11.966100 -19.872800 -13.716100
C -11.373900 -20.289400 -11.476600
C -11.173800 -19.650100 -12.642100
H -10.636800 -20.371700 -9.667500
N -10.552400 -20.001800 -10.427000
H -10.409000 -18.247200 -14.599100
C -10.127600 -18.687200 -12.758500
N -9.942600 -18.049200 -13.910200
C -9.549800 -19.064600 -10.527700
H -9.352600 -17.447100 -14.008500
N -9.345500 -18.413600 -11.699800
O -8.841400 -18.835100 -9.504900
13
Fragment
O -10.933700 -21.294600 -7.893600
N -10.429500 -21.716100 -5.698800
H -10.422500 -22.682600 -3.390100
C -10.225200 -21.065100 -6.870900
N -9.832500 -22.080500 -3.488300
C -9.647500 -21.442500 -4.640000
H -9.366100 -21.882500 -2.799400
N -9.222700 -20.127800 -6.971600
H -9.138300 -19.758000 -7.731100
C -8.601200 -20.479600 -4.756500
C -8.401200 -19.840300 -5.921900
F -7.809000 -20.256900 -3.682500
H -7.717800 -19.215700 -6.010300
26
Fragment
H -12.057300 -20.914000 -11.388200
F -11.966100 -19.872800 -13.716100
C -11.373900 -20.289400 -11.476600
C -11.173800 -19.650100 -12.642100
H -10.636800 -20.371700 -9.667500
N -10.552400 -20.001800 -10.427000
H -10.409000 -18.247200 -14.599100
C -10.127600 -18.687200 -12.758500
N -9.942600 -18.049200 -13.910200
C -9.549800 -19.064600 -10.527700
H -9.352600 -17.447100 -14.008500
N -9.345500 -18.413600 -11.699800
O -8.841400 -18.835100 -9.504900
O -10.933700 -21.294600 -7.893600
N -10.429500 -21.716100 -5.698800
H -10.422500 -22.682600 -3.390100
C -10.225200 -21.065100 -6.870900
N -9.832500 -22.080500 -3.488300
C -9.647500 -21.442500 -4.640000
H -9.366100 -21.882500 -2.799400
N -9.222700 -20.127800 -6.971600
H -9.138300 -19.758000 -7.731100
C -8.601200 -20.479600 -4.756500
C -8.401200 -19.840300 -5.921900
F -7.809000 -20.256900 -3.682500
H -7.717800 -19.215700 -6.010300
