20
Fragment
O -18.422500 -7.275800 -10.580500
C -17.361300 -7.844400 -10.633900
H -17.294000 -8.084900 -12.639400
H -17.082800 -7.950300 -8.789600
H -16.740700 -10.176200 -11.887700
O -16.683600 -8.213700 -9.557700
C -16.656500 -8.185200 -11.914300
C -16.046500 -9.515300 -12.036000
H -16.011500 -9.748000 -14.032500
H -15.959100 -7.525500 -12.053700
H -15.452600 -11.835700 -13.298500
H -15.400100 -9.613200 -11.319800
C -15.365200 -9.845900 -13.316300
C -14.755200 -11.176000 -13.438000
O -14.728100 -11.147500 -15.794600
H -14.670900 -9.185000 -13.464600
H -14.328800 -11.410900 -16.562600
H -14.117700 -11.276300 -12.712900
C -14.050300 -11.516800 -14.718400
O -12.989100 -12.085400 -14.771800
13
Fragment
H -18.519600 -6.540500 -5.165500
H -17.890700 -6.924500 -3.041000
N -17.856900 -7.072900 -5.035100
O -17.687400 -7.378700 -7.270500
C -17.456900 -7.317900 -3.763700
C -17.239800 -7.645000 -6.124200
C -16.421400 -8.141100 -3.578900
N -16.179800 -8.467600 -5.939700
F -15.961500 -8.432100 -2.337600
C -15.763600 -8.734500 -4.697000
N -14.732200 -9.546300 -4.508900
H -14.461800 -9.720400 -3.711600
H -14.333200 -9.899100 -5.184500
33
Fragment
O -18.422500 -7.275800 -10.580500
C -17.361300 -7.844400 -10.633900
H -17.294000 -8.084900 -12.639400
H -17.082800 -7.950300 -8.789600
H -16.740700 -10.176200 -11.887700
O -16.683600 -8.213700 -9.557700
C -16.656500 -8.185200 -11.914300
C -16.046500 -9.515300 -12.036000
H -16.011500 -9.748000 -14.032500
H -15.959100 -7.525500 -12.053700
H -15.452600 -11.835700 -13.298500
H -15.400100 -9.613200 -11.319800
C -15.365200 -9.845900 -13.316300
C -14.755200 -11.176000 -13.438000
O -14.728100 -11.147500 -15.794600
H -14.670900 -9.185000 -13.464600
H -14.328800 -11.410900 -16.562600
H -14.117700 -11.276300 -12.712900
C -14.050300 -11.516800 -14.718400
O -12.989100 -12.085400 -14.771800
H -18.519600 -6.540500 -5.165500
H -17.890700 -6.924500 -3.041000
N -17.856900 -7.072900 -5.035100
O -17.687400 -7.378700 -7.270500
C -17.456900 -7.317900 -3.763700
C -17.239800 -7.645000 -6.124200
C -16.421400 -8.141100 -3.578900
N -16.179800 -8.467600 -5.939700
F -15.961500 -8.432100 -2.337600
C -15.763600 -8.734500 -4.697000
N -14.732200 -9.546300 -4.508900
H -14.461800 -9.720400 -3.711600
H -14.333200 -9.899100 -5.184500
