20
Fragment
O -18.422500 -7.275800 -10.580500
C -17.361300 -7.844400 -10.633900
H -17.294000 -8.084900 -12.639400
H -17.082800 -7.950300 -8.789600
H -16.740700 -10.176200 -11.887700
O -16.683600 -8.213700 -9.557700
C -16.656500 -8.185200 -11.914300
C -16.046500 -9.515300 -12.036000
H -16.011500 -9.748000 -14.032500
H -15.959100 -7.525500 -12.053700
H -15.452600 -11.835700 -13.298500
H -15.400100 -9.613200 -11.319800
C -15.365200 -9.845900 -13.316300
C -14.755200 -11.176000 -13.438000
O -14.728100 -11.147500 -15.794600
H -14.670900 -9.185000 -13.464600
H -14.328800 -11.410900 -16.562600
H -14.117700 -11.276300 -12.712900
C -14.050300 -11.516800 -14.718400
O -12.989100 -12.085400 -14.771800
13
Fragment
H -17.078400 -9.462100 -20.167700
H -16.949900 -9.640800 -21.640700
N -16.679400 -9.814900 -20.843400
C -15.648100 -10.626700 -20.655300
F -15.450100 -10.929100 -23.014700
N -15.231800 -10.893600 -19.412600
C -14.990200 -11.220100 -21.773400
C -14.171800 -11.716200 -19.228100
C -13.954700 -12.043300 -21.588600
O -13.724200 -11.982500 -18.081700
N -13.554700 -12.288300 -20.317200
H -13.521000 -12.436700 -22.311300
H -12.892000 -12.820700 -20.186700
33
Fragment
O -18.422500 -7.275800 -10.580500
C -17.361300 -7.844400 -10.633900
H -17.294000 -8.084900 -12.639400
H -17.082800 -7.950300 -8.789600
H -16.740700 -10.176200 -11.887700
O -16.683600 -8.213700 -9.557700
C -16.656500 -8.185200 -11.914300
C -16.046500 -9.515300 -12.036000
H -16.011500 -9.748000 -14.032500
H -15.959100 -7.525500 -12.053700
H -15.452600 -11.835700 -13.298500
H -15.400100 -9.613200 -11.319800
C -15.365200 -9.845900 -13.316300
C -14.755200 -11.176000 -13.438000
O -14.728100 -11.147500 -15.794600
H -14.670900 -9.185000 -13.464600
H -14.328800 -11.410900 -16.562600
H -14.117700 -11.276300 -12.712900
C -14.050300 -11.516800 -14.718400
O -12.989100 -12.085400 -14.771800
H -17.078400 -9.462100 -20.167700
H -16.949900 -9.640800 -21.640700
N -16.679400 -9.814900 -20.843400
C -15.648100 -10.626700 -20.655300
F -15.450100 -10.929100 -23.014700
N -15.231800 -10.893600 -19.412600
C -14.990200 -11.220100 -21.773400
C -14.171800 -11.716200 -19.228100
C -13.954700 -12.043300 -21.588600
O -13.724200 -11.982500 -18.081700
N -13.554700 -12.288300 -20.317200
H -13.521000 -12.436700 -22.311300
H -12.892000 -12.820700 -20.186700
