13
Fragment
H -12.057300 -20.914000 -11.388200
F -11.966100 -19.872800 -13.716100
C -11.373900 -20.289400 -11.476600
C -11.173800 -19.650100 -12.642100
H -10.636800 -20.371700 -9.667500
N -10.552400 -20.001800 -10.427000
H -10.409000 -18.247200 -14.599100
C -10.127600 -18.687200 -12.758500
N -9.942600 -18.049200 -13.910200
C -9.549800 -19.064600 -10.527700
H -9.352600 -17.447100 -14.008500
N -9.345500 -18.413600 -11.699800
O -8.841400 -18.835100 -9.504900
14
Fragment
H -7.510000 -17.666900 -9.549200
O -6.831200 -17.148700 -9.453600
O -6.778300 -17.703600 -7.293300
C -6.322000 -17.077500 -8.226500
H -5.521000 -14.850200 -9.615300
H -5.340900 -15.510600 -7.366600
C -5.140200 -16.146600 -8.070200
C -4.755100 -15.371700 -9.328300
H -4.554400 -16.007700 -10.032000
H -4.374300 -16.668100 -7.783200
C -3.573300 -14.440800 -9.172100
O -3.117000 -13.814700 -10.105300
O -3.064100 -14.369500 -7.945000
H -2.385300 -13.851300 -7.849400
27
Fragment
H -12.057300 -20.914000 -11.388200
F -11.966100 -19.872800 -13.716100
C -11.373900 -20.289400 -11.476600
C -11.173800 -19.650100 -12.642100
H -10.636800 -20.371700 -9.667500
N -10.552400 -20.001800 -10.427000
H -10.409000 -18.247200 -14.599100
C -10.127600 -18.687200 -12.758500
N -9.942600 -18.049200 -13.910200
C -9.549800 -19.064600 -10.527700
H -9.352600 -17.447100 -14.008500
N -9.345500 -18.413600 -11.699800
O -8.841400 -18.835100 -9.504900
H -7.510000 -17.666900 -9.549200
O -6.831200 -17.148700 -9.453600
O -6.778300 -17.703600 -7.293300
C -6.322000 -17.077500 -8.226500
H -5.521000 -14.850200 -9.615300
H -5.340900 -15.510600 -7.366600
C -5.140200 -16.146600 -8.070200
C -4.755100 -15.371700 -9.328300
H -4.554400 -16.007700 -10.032000
H -4.374300 -16.668100 -7.783200
C -3.573300 -14.440800 -9.172100
O -3.117000 -13.814700 -10.105300
O -3.064100 -14.369500 -7.945000
H -2.385300 -13.851300 -7.849400
