20
Fragment
O -18.422500 -7.275800 -10.580500
C -17.361300 -7.844400 -10.633900
H -17.294000 -8.084900 -12.639400
H -17.082800 -7.950300 -8.789600
H -16.740700 -10.176200 -11.887700
O -16.683600 -8.213700 -9.557700
C -16.656500 -8.185200 -11.914300
C -16.046500 -9.515300 -12.036000
H -16.011500 -9.748000 -14.032500
H -15.959100 -7.525500 -12.053700
H -15.452600 -11.835700 -13.298500
H -15.400100 -9.613200 -11.319800
C -15.365200 -9.845900 -13.316300
C -14.755200 -11.176000 -13.438000
O -14.728100 -11.147500 -15.794600
H -14.670900 -9.185000 -13.464600
H -14.328800 -11.410900 -16.562600
H -14.117700 -11.276300 -12.712900
C -14.050300 -11.516800 -14.718400
O -12.989100 -12.085400 -14.771800
20
Fragment
O -13.148300 -7.275800 -10.580500
C -12.087100 -7.844400 -10.633900
H -12.019800 -8.084900 -12.639400
H -11.808600 -7.950300 -8.789600
H -11.466500 -10.176200 -11.887700
O -11.409400 -8.213700 -9.557700
C -11.382300 -8.185200 -11.914300
C -10.772300 -9.515300 -12.036000
H -10.737300 -9.748000 -14.032500
H -10.684900 -7.525500 -12.053700
H -10.178400 -11.835700 -13.298500
H -10.125900 -9.613200 -11.319800
C -10.091000 -9.845900 -13.316300
C -9.481000 -11.176000 -13.438000
O -9.453900 -11.147500 -15.794600
H -9.396700 -9.185000 -13.464600
H -9.054600 -11.410900 -16.562600
H -8.843500 -11.276300 -12.712900
C -8.776100 -11.516800 -14.718400
O -7.714900 -12.085400 -14.771800
40
Fragment
O -18.422500 -7.275800 -10.580500
C -17.361300 -7.844400 -10.633900
H -17.294000 -8.084900 -12.639400
H -17.082800 -7.950300 -8.789600
H -16.740700 -10.176200 -11.887700
O -16.683600 -8.213700 -9.557700
C -16.656500 -8.185200 -11.914300
C -16.046500 -9.515300 -12.036000
H -16.011500 -9.748000 -14.032500
H -15.959100 -7.525500 -12.053700
H -15.452600 -11.835700 -13.298500
H -15.400100 -9.613200 -11.319800
C -15.365200 -9.845900 -13.316300
C -14.755200 -11.176000 -13.438000
O -14.728100 -11.147500 -15.794600
H -14.670900 -9.185000 -13.464600
H -14.328800 -11.410900 -16.562600
H -14.117700 -11.276300 -12.712900
C -14.050300 -11.516800 -14.718400
O -12.989100 -12.085400 -14.771800
O -13.148300 -7.275800 -10.580500
C -12.087100 -7.844400 -10.633900
H -12.019800 -8.084900 -12.639400
H -11.808600 -7.950300 -8.789600
H -11.466500 -10.176200 -11.887700
O -11.409400 -8.213700 -9.557700
C -11.382300 -8.185200 -11.914300
C -10.772300 -9.515300 -12.036000
H -10.737300 -9.748000 -14.032500
H -10.684900 -7.525500 -12.053700
H -10.178400 -11.835700 -13.298500
H -10.125900 -9.613200 -11.319800
C -10.091000 -9.845900 -13.316300
C -9.481000 -11.176000 -13.438000
O -9.453900 -11.147500 -15.794600
H -9.396700 -9.185000 -13.464600
H -9.054600 -11.410900 -16.562600
H -8.843500 -11.276300 -12.712900
C -8.776100 -11.516800 -14.718400
O -7.714900 -12.085400 -14.771800
