13
Fragment
H -12.057300 -20.914000 -11.388200
F -11.966100 -19.872800 -13.716100
C -11.373900 -20.289400 -11.476600
C -11.173800 -19.650100 -12.642100
H -10.636800 -20.371700 -9.667500
N -10.552400 -20.001800 -10.427000
H -10.409000 -18.247200 -14.599100
C -10.127600 -18.687200 -12.758500
N -9.942600 -18.049200 -13.910200
C -9.549800 -19.064600 -10.527700
H -9.352600 -17.447100 -14.008500
N -9.345500 -18.413600 -11.699800
O -8.841400 -18.835100 -9.504900
13
Fragment
O -13.363800 -24.136600 -16.592900
N -12.859700 -24.558100 -14.398100
H -12.852600 -25.524600 -12.089400
C -12.655400 -23.907100 -15.570100
N -12.262600 -24.922500 -12.187600
C -12.077600 -24.284500 -13.339300
H -11.796200 -24.724500 -11.498700
N -11.652800 -22.969900 -15.670900
H -11.568400 -22.600000 -16.430300
C -11.031400 -23.321600 -13.455800
C -10.831300 -22.682300 -14.621200
F -10.239100 -23.098900 -12.381800
H -10.147900 -22.057700 -14.709600
26
Fragment
H -12.057300 -20.914000 -11.388200
F -11.966100 -19.872800 -13.716100
C -11.373900 -20.289400 -11.476600
C -11.173800 -19.650100 -12.642100
H -10.636800 -20.371700 -9.667500
N -10.552400 -20.001800 -10.427000
H -10.409000 -18.247200 -14.599100
C -10.127600 -18.687200 -12.758500
N -9.942600 -18.049200 -13.910200
C -9.549800 -19.064600 -10.527700
H -9.352600 -17.447100 -14.008500
N -9.345500 -18.413600 -11.699800
O -8.841400 -18.835100 -9.504900
O -13.363800 -24.136600 -16.592900
N -12.859700 -24.558100 -14.398100
H -12.852600 -25.524600 -12.089400
C -12.655400 -23.907100 -15.570100
N -12.262600 -24.922500 -12.187600
C -12.077600 -24.284500 -13.339300
H -11.796200 -24.724500 -11.498700
N -11.652800 -22.969900 -15.670900
H -11.568400 -22.600000 -16.430300
C -11.031400 -23.321600 -13.455800
C -10.831300 -22.682300 -14.621200
F -10.239100 -23.098900 -12.381800
H -10.147900 -22.057700 -14.709600
