24
Fragment
H -21.382300 -13.530700 -25.438400
H -20.562000 -18.558800 -25.564200
N -20.476900 -16.557700 -25.566100
C -20.458100 -13.608400 -25.685600
H -20.391000 -14.042300 -26.538600
C -20.223100 -17.798400 -25.148200
H -20.066500 -12.733300 -25.739800
C -19.802800 -15.768300 -24.688200
N -19.746900 -14.399400 -24.677700
N -19.432400 -17.837500 -24.069900
H -19.269100 -19.809600 -23.796700
H -19.192600 -18.994500 -22.459400
C -19.153100 -16.522600 -23.751200
C -19.038800 -13.750600 -23.678200
O -18.979100 -12.536700 -23.634700
C -18.920000 -19.018200 -23.379700
N -18.408100 -14.559700 -22.727600
C -18.401100 -15.958000 -22.680600
H -17.960900 -19.026600 -23.429400
H -17.874000 -12.949900 -21.645900
H -17.841900 -14.280000 -20.816300
O -17.815300 -16.561600 -21.794400
C -17.638100 -13.880000 -21.665600
H -16.699800 -13.969100 -21.844900
17
Fragment
H -24.695900 -9.830300 -31.356800
O -24.283700 -9.960400 -30.659300
O -24.060100 -7.732800 -30.679100
C -23.857000 -8.809600 -30.179700
H -23.367300 -10.968000 -28.676300
C -23.051600 -8.993000 -28.926100
C -22.927000 -10.232100 -28.317300
H -22.468400 -7.065400 -28.797700
C -22.395500 -7.899600 -28.393300
C -22.152700 -10.384000 -27.181800
H -22.071100 -11.221300 -26.785900
C -21.628900 -8.060900 -27.250200
C -21.500300 -9.298700 -26.631100
O -21.025000 -6.639200 -25.547700
N -20.941800 -6.883300 -26.732900
Cl -20.502900 -9.553100 -25.249200
O -20.323600 -6.200100 -27.517200
41
Fragment
H -21.382300 -13.530700 -25.438400
H -20.562000 -18.558800 -25.564200
N -20.476900 -16.557700 -25.566100
C -20.458100 -13.608400 -25.685600
H -20.391000 -14.042300 -26.538600
C -20.223100 -17.798400 -25.148200
H -20.066500 -12.733300 -25.739800
C -19.802800 -15.768300 -24.688200
N -19.746900 -14.399400 -24.677700
N -19.432400 -17.837500 -24.069900
H -19.269100 -19.809600 -23.796700
H -19.192600 -18.994500 -22.459400
C -19.153100 -16.522600 -23.751200
C -19.038800 -13.750600 -23.678200
O -18.979100 -12.536700 -23.634700
C -18.920000 -19.018200 -23.379700
N -18.408100 -14.559700 -22.727600
C -18.401100 -15.958000 -22.680600
H -17.960900 -19.026600 -23.429400
H -17.874000 -12.949900 -21.645900
H -17.841900 -14.280000 -20.816300
O -17.815300 -16.561600 -21.794400
C -17.638100 -13.880000 -21.665600
H -16.699800 -13.969100 -21.844900
H -24.695900 -9.830300 -31.356800
O -24.283700 -9.960400 -30.659300
O -24.060100 -7.732800 -30.679100
C -23.857000 -8.809600 -30.179700
H -23.367300 -10.968000 -28.676300
C -23.051600 -8.993000 -28.926100
C -22.927000 -10.232100 -28.317300
H -22.468400 -7.065400 -28.797700
C -22.395500 -7.899600 -28.393300
C -22.152700 -10.384000 -27.181800
H -22.071100 -11.221300 -26.785900
C -21.628900 -8.060900 -27.250200
C -21.500300 -9.298700 -26.631100
O -21.025000 -6.639200 -25.547700
N -20.941800 -6.883300 -26.732900
Cl -20.502900 -9.553100 -25.249200
O -20.323600 -6.200100 -27.517200
