24
Fragment
H -21.382300 -13.530700 -25.438400
H -20.562000 -18.558800 -25.564200
N -20.476900 -16.557700 -25.566100
C -20.458100 -13.608400 -25.685600
H -20.391000 -14.042300 -26.538600
C -20.223100 -17.798400 -25.148200
H -20.066500 -12.733300 -25.739800
C -19.802800 -15.768300 -24.688200
N -19.746900 -14.399400 -24.677700
N -19.432400 -17.837500 -24.069900
H -19.269100 -19.809600 -23.796700
H -19.192600 -18.994500 -22.459400
C -19.153100 -16.522600 -23.751200
C -19.038800 -13.750600 -23.678200
O -18.979100 -12.536700 -23.634700
C -18.920000 -19.018200 -23.379700
N -18.408100 -14.559700 -22.727600
C -18.401100 -15.958000 -22.680600
H -17.960900 -19.026600 -23.429400
H -17.874000 -12.949900 -21.645900
H -17.841900 -14.280000 -20.816300
O -17.815300 -16.561600 -21.794400
C -17.638100 -13.880000 -21.665600
H -16.699800 -13.969100 -21.844900
24
Fragment
H -23.206600 -16.728200 -22.049700
C -22.268300 -16.817200 -22.228900
O -22.091100 -14.135600 -22.100200
H -22.064500 -16.417300 -23.078300
H -22.032400 -17.747300 -22.248700
H -21.945400 -11.670600 -20.465100
C -21.505300 -14.739200 -21.213900
N -21.498300 -16.137600 -21.167000
C -20.986400 -11.679000 -20.514800
O -20.927300 -18.160600 -20.259800
C -20.867600 -16.946700 -20.216400
C -20.753300 -14.174600 -20.143400
H -20.713800 -11.702700 -21.435200
H -20.637200 -10.887700 -20.097800
N -20.474000 -12.859800 -19.824700
N -20.159400 -16.297800 -19.216900
C -20.103600 -14.929000 -19.206400
H -19.839900 -17.964000 -18.154800
C -19.683300 -12.898800 -18.746300
H -19.515400 -16.654900 -17.355900
C -19.448200 -17.088800 -18.208900
N -19.429500 -14.139500 -18.328500
H -19.344400 -12.138500 -18.330400
H -18.524100 -17.166500 -18.456200
48
Fragment
H -21.382300 -13.530700 -25.438400
H -20.562000 -18.558800 -25.564200
N -20.476900 -16.557700 -25.566100
C -20.458100 -13.608400 -25.685600
H -20.391000 -14.042300 -26.538600
C -20.223100 -17.798400 -25.148200
H -20.066500 -12.733300 -25.739800
C -19.802800 -15.768300 -24.688200
N -19.746900 -14.399400 -24.677700
N -19.432400 -17.837500 -24.069900
H -19.269100 -19.809600 -23.796700
H -19.192600 -18.994500 -22.459400
C -19.153100 -16.522600 -23.751200
C -19.038800 -13.750600 -23.678200
O -18.979100 -12.536700 -23.634700
C -18.920000 -19.018200 -23.379700
N -18.408100 -14.559700 -22.727600
C -18.401100 -15.958000 -22.680600
H -17.960900 -19.026600 -23.429400
H -17.874000 -12.949900 -21.645900
H -17.841900 -14.280000 -20.816300
O -17.815300 -16.561600 -21.794400
C -17.638100 -13.880000 -21.665600
H -16.699800 -13.969100 -21.844900
H -23.206600 -16.728200 -22.049700
C -22.268300 -16.817200 -22.228900
O -22.091100 -14.135600 -22.100200
H -22.064500 -16.417300 -23.078300
H -22.032400 -17.747300 -22.248700
H -21.945400 -11.670600 -20.465100
C -21.505300 -14.739200 -21.213900
N -21.498300 -16.137600 -21.167000
C -20.986400 -11.679000 -20.514800
O -20.927300 -18.160600 -20.259800
C -20.867600 -16.946700 -20.216400
C -20.753300 -14.174600 -20.143400
H -20.713800 -11.702700 -21.435200
H -20.637200 -10.887700 -20.097800
N -20.474000 -12.859800 -19.824700
N -20.159400 -16.297800 -19.216900
C -20.103600 -14.929000 -19.206400
H -19.839900 -17.964000 -18.154800
C -19.683300 -12.898800 -18.746300
H -19.515400 -16.654900 -17.355900
C -19.448200 -17.088800 -18.208900
N -19.429500 -14.139500 -18.328500
H -19.344400 -12.138500 -18.330400
H -18.524100 -17.166500 -18.456200
