21
Fragment
H -5.248600 -8.885500 -15.599700
H -4.585800 -10.218800 -16.091000
H -4.585100 -9.858500 -14.565300
C -4.526700 -9.502300 -15.454700
N -3.534700 -8.503600 -18.013100
N -3.251300 -8.807300 -15.619400
H -2.966100 -7.816200 -19.793600
C -2.860300 -8.342400 -16.846500
C -2.757000 -7.882100 -18.890000
O -2.737600 -8.976500 -13.414500
C -2.444000 -8.590600 -14.526800
C -1.696200 -7.652900 -17.014800
N -1.647300 -7.359800 -18.359700
N -1.239000 -7.900600 -14.746400
H -1.021500 -6.874900 -18.766100
H -0.944300 -7.507100 -12.809500
C -0.793800 -7.399800 -15.966500
C -0.393500 -7.702000 -13.571300
H 0.112900 -8.500300 -13.403200
H 0.206600 -6.969400 -13.728800
O 0.286900 -6.803400 -16.042000
21
Fragment
O -11.314800 -12.592100 -18.475700
H -11.234400 -12.426100 -20.788800
H -11.140700 -10.895200 -21.114400
C -10.634400 -11.693500 -20.946300
C -10.234000 -11.995700 -18.551200
H -10.083600 -11.888400 -21.708100
H -10.006400 -12.520600 -15.751600
N -9.788900 -11.494900 -19.771200
N -9.380600 -12.035700 -16.157900
C -9.331600 -11.742600 -17.502900
C -8.583900 -10.804900 -19.990900
O -8.290200 -10.419000 -21.103200
C -8.270800 -11.513400 -15.627600
C -8.167500 -11.053100 -17.671200
H -8.061700 -11.579300 -14.724100
N -7.776500 -10.588200 -18.898300
N -7.493200 -10.891900 -16.504500
C -6.501100 -9.893200 -19.062900
H -6.442800 -9.537000 -19.952400
H -6.442100 -9.176600 -18.426700
H -5.779300 -10.510000 -18.918000
42
Fragment
H -5.248600 -8.885500 -15.599700
H -4.585800 -10.218800 -16.091000
H -4.585100 -9.858500 -14.565300
C -4.526700 -9.502300 -15.454700
N -3.534700 -8.503600 -18.013100
N -3.251300 -8.807300 -15.619400
H -2.966100 -7.816200 -19.793600
C -2.860300 -8.342400 -16.846500
C -2.757000 -7.882100 -18.890000
O -2.737600 -8.976500 -13.414500
C -2.444000 -8.590600 -14.526800
C -1.696200 -7.652900 -17.014800
N -1.647300 -7.359800 -18.359700
N -1.239000 -7.900600 -14.746400
H -1.021500 -6.874900 -18.766100
H -0.944300 -7.507100 -12.809500
C -0.793800 -7.399800 -15.966500
C -0.393500 -7.702000 -13.571300
H 0.112900 -8.500300 -13.403200
H 0.206600 -6.969400 -13.728800
O 0.286900 -6.803400 -16.042000
O -11.314800 -12.592100 -18.475700
H -11.234400 -12.426100 -20.788800
H -11.140700 -10.895200 -21.114400
C -10.634400 -11.693500 -20.946300
C -10.234000 -11.995700 -18.551200
H -10.083600 -11.888400 -21.708100
H -10.006400 -12.520600 -15.751600
N -9.788900 -11.494900 -19.771200
N -9.380600 -12.035700 -16.157900
C -9.331600 -11.742600 -17.502900
C -8.583900 -10.804900 -19.990900
O -8.290200 -10.419000 -21.103200
C -8.270800 -11.513400 -15.627600
C -8.167500 -11.053100 -17.671200
H -8.061700 -11.579300 -14.724100
N -7.776500 -10.588200 -18.898300
N -7.493200 -10.891900 -16.504500
C -6.501100 -9.893200 -19.062900
H -6.442800 -9.537000 -19.952400
H -6.442100 -9.176600 -18.426700
H -5.779300 -10.510000 -18.918000
