21
Fragment
H -5.248600 -8.885500 -15.599700
H -4.585800 -10.218800 -16.091000
H -4.585100 -9.858500 -14.565300
C -4.526700 -9.502300 -15.454700
N -3.534700 -8.503600 -18.013100
N -3.251300 -8.807300 -15.619400
H -2.966100 -7.816200 -19.793600
C -2.860300 -8.342400 -16.846500
C -2.757000 -7.882100 -18.890000
O -2.737600 -8.976500 -13.414500
C -2.444000 -8.590600 -14.526800
C -1.696200 -7.652900 -17.014800
N -1.647300 -7.359800 -18.359700
N -1.239000 -7.900600 -14.746400
H -1.021500 -6.874900 -18.766100
H -0.944300 -7.507100 -12.809500
C -0.793800 -7.399800 -15.966500
C -0.393500 -7.702000 -13.571300
H 0.112900 -8.500300 -13.403200
H 0.206600 -6.969400 -13.728800
O 0.286900 -6.803400 -16.042000
21
Fragment
H 1.878500 -8.885500 -15.599700
H 2.541300 -10.218800 -16.091000
H 2.542000 -9.858500 -14.565300
C 2.600400 -9.502300 -15.454700
N 3.592400 -8.503600 -18.013100
N 3.875800 -8.807300 -15.619400
H 4.161000 -7.816200 -19.793600
C 4.266800 -8.342400 -16.846500
C 4.370100 -7.882100 -18.890000
O 4.389500 -8.976500 -13.414500
C 4.683100 -8.590600 -14.526800
C 5.430900 -7.652900 -17.014800
N 5.479800 -7.359800 -18.359700
N 5.888100 -7.900600 -14.746400
H 6.105600 -6.874900 -18.766100
H 6.182800 -7.507100 -12.809500
C 6.333300 -7.399800 -15.966500
C 6.733600 -7.702000 -13.571300
H 7.240000 -8.500300 -13.403200
H 7.333700 -6.969400 -13.728800
O 7.414000 -6.803400 -16.042000
42
Fragment
H -5.248600 -8.885500 -15.599700
H -4.585800 -10.218800 -16.091000
H -4.585100 -9.858500 -14.565300
C -4.526700 -9.502300 -15.454700
N -3.534700 -8.503600 -18.013100
N -3.251300 -8.807300 -15.619400
H -2.966100 -7.816200 -19.793600
C -2.860300 -8.342400 -16.846500
C -2.757000 -7.882100 -18.890000
O -2.737600 -8.976500 -13.414500
C -2.444000 -8.590600 -14.526800
C -1.696200 -7.652900 -17.014800
N -1.647300 -7.359800 -18.359700
N -1.239000 -7.900600 -14.746400
H -1.021500 -6.874900 -18.766100
H -0.944300 -7.507100 -12.809500
C -0.793800 -7.399800 -15.966500
C -0.393500 -7.702000 -13.571300
H 0.112900 -8.500300 -13.403200
H 0.206600 -6.969400 -13.728800
O 0.286900 -6.803400 -16.042000
H 1.878500 -8.885500 -15.599700
H 2.541300 -10.218800 -16.091000
H 2.542000 -9.858500 -14.565300
C 2.600400 -9.502300 -15.454700
N 3.592400 -8.503600 -18.013100
N 3.875800 -8.807300 -15.619400
H 4.161000 -7.816200 -19.793600
C 4.266800 -8.342400 -16.846500
C 4.370100 -7.882100 -18.890000
O 4.389500 -8.976500 -13.414500
C 4.683100 -8.590600 -14.526800
C 5.430900 -7.652900 -17.014800
N 5.479800 -7.359800 -18.359700
N 5.888100 -7.900600 -14.746400
H 6.105600 -6.874900 -18.766100
H 6.182800 -7.507100 -12.809500
C 6.333300 -7.399800 -15.966500
C 6.733600 -7.702000 -13.571300
H 7.240000 -8.500300 -13.403200
H 7.333700 -6.969400 -13.728800
O 7.414000 -6.803400 -16.042000
