21
Fragment
H -5.248600 -8.885500 -15.599700
H -4.585800 -10.218800 -16.091000
H -4.585100 -9.858500 -14.565300
C -4.526700 -9.502300 -15.454700
N -3.534700 -8.503600 -18.013100
N -3.251300 -8.807300 -15.619400
H -2.966100 -7.816200 -19.793600
C -2.860300 -8.342400 -16.846500
C -2.757000 -7.882100 -18.890000
O -2.737600 -8.976500 -13.414500
C -2.444000 -8.590600 -14.526800
C -1.696200 -7.652900 -17.014800
N -1.647300 -7.359800 -18.359700
N -1.239000 -7.900600 -14.746400
H -1.021500 -6.874900 -18.766100
H -0.944300 -7.507100 -12.809500
C -0.793800 -7.399800 -15.966500
C -0.393500 -7.702000 -13.571300
H 0.112900 -8.500300 -13.403200
H 0.206600 -6.969400 -13.728800
O 0.286900 -6.803400 -16.042000
21
Fragment
H -8.847400 -10.417700 -10.339200
H -8.293800 -11.806500 -10.810900
H -8.232100 -10.570600 -11.772800
C -8.169400 -10.856100 -10.858100
O -7.576400 -9.461500 -7.930900
C -6.834800 -10.505900 -10.323000
H -6.807000 -9.372400 -5.808200
O -6.605600 -9.167400 -10.434800
C -6.518600 -9.044400 -7.519600
O -6.216400 -9.002800 -6.240700
O -6.024900 -11.255700 -9.861600
C -5.478200 -8.661800 -9.788700
C -5.431100 -8.538800 -8.399200
H -4.483800 -8.347000 -11.504700
C -4.439200 -8.241000 -10.582400
C -4.295500 -7.946500 -7.844800
H -4.236300 -7.847900 -6.921900
C -3.330900 -7.659500 -10.004900
C -3.259600 -7.505600 -8.640700
H -2.627800 -7.371800 -10.540500
H -2.514200 -7.104500 -8.255500
42
Fragment
H -5.248600 -8.885500 -15.599700
H -4.585800 -10.218800 -16.091000
H -4.585100 -9.858500 -14.565300
C -4.526700 -9.502300 -15.454700
N -3.534700 -8.503600 -18.013100
N -3.251300 -8.807300 -15.619400
H -2.966100 -7.816200 -19.793600
C -2.860300 -8.342400 -16.846500
C -2.757000 -7.882100 -18.890000
O -2.737600 -8.976500 -13.414500
C -2.444000 -8.590600 -14.526800
C -1.696200 -7.652900 -17.014800
N -1.647300 -7.359800 -18.359700
N -1.239000 -7.900600 -14.746400
H -1.021500 -6.874900 -18.766100
H -0.944300 -7.507100 -12.809500
C -0.793800 -7.399800 -15.966500
C -0.393500 -7.702000 -13.571300
H 0.112900 -8.500300 -13.403200
H 0.206600 -6.969400 -13.728800
O 0.286900 -6.803400 -16.042000
H -8.847400 -10.417700 -10.339200
H -8.293800 -11.806500 -10.810900
H -8.232100 -10.570600 -11.772800
C -8.169400 -10.856100 -10.858100
O -7.576400 -9.461500 -7.930900
C -6.834800 -10.505900 -10.323000
H -6.807000 -9.372400 -5.808200
O -6.605600 -9.167400 -10.434800
C -6.518600 -9.044400 -7.519600
O -6.216400 -9.002800 -6.240700
O -6.024900 -11.255700 -9.861600
C -5.478200 -8.661800 -9.788700
C -5.431100 -8.538800 -8.399200
H -4.483800 -8.347000 -11.504700
C -4.439200 -8.241000 -10.582400
C -4.295500 -7.946500 -7.844800
H -4.236300 -7.847900 -6.921900
C -3.330900 -7.659500 -10.004900
C -3.259600 -7.505600 -8.640700
H -2.627800 -7.371800 -10.540500
H -2.514200 -7.104500 -8.255500
