21
Fragment
H -5.248600 -8.885500 -15.599700
H -4.585800 -10.218800 -16.091000
H -4.585100 -9.858500 -14.565300
C -4.526700 -9.502300 -15.454700
N -3.534700 -8.503600 -18.013100
N -3.251300 -8.807300 -15.619400
H -2.966100 -7.816200 -19.793600
C -2.860300 -8.342400 -16.846500
C -2.757000 -7.882100 -18.890000
O -2.737600 -8.976500 -13.414500
C -2.444000 -8.590600 -14.526800
C -1.696200 -7.652900 -17.014800
N -1.647300 -7.359800 -18.359700
N -1.239000 -7.900600 -14.746400
H -1.021500 -6.874900 -18.766100
H -0.944300 -7.507100 -12.809500
C -0.793800 -7.399800 -15.966500
C -0.393500 -7.702000 -13.571300
H 0.112900 -8.500300 -13.403200
H 0.206600 -6.969400 -13.728800
O 0.286900 -6.803400 -16.042000
21
Fragment
H -7.844500 -6.964500 -21.845100
H -7.290900 -8.353300 -22.316800
H -7.229200 -7.117400 -23.278700
C -7.166600 -7.402800 -22.364000
O -6.573600 -6.008300 -19.436800
C -5.831900 -7.052600 -21.828800
H -5.804200 -5.919100 -17.314100
O -5.602800 -5.714200 -21.940700
C -5.515800 -5.591200 -19.025400
O -5.213600 -5.549600 -17.746600
O -5.022100 -7.802500 -21.367500
C -4.475300 -5.208600 -21.294600
C -4.428300 -5.085600 -19.905100
H -3.481000 -4.893800 -23.010600
C -3.436300 -4.787800 -22.088300
C -3.292600 -4.493300 -19.350700
H -3.233400 -4.394600 -18.427800
C -2.328100 -4.206300 -21.510800
C -2.256800 -4.052400 -20.146600
H -1.625000 -3.918600 -22.046400
H -1.511400 -3.651200 -19.761400
42
Fragment
H -5.248600 -8.885500 -15.599700
H -4.585800 -10.218800 -16.091000
H -4.585100 -9.858500 -14.565300
C -4.526700 -9.502300 -15.454700
N -3.534700 -8.503600 -18.013100
N -3.251300 -8.807300 -15.619400
H -2.966100 -7.816200 -19.793600
C -2.860300 -8.342400 -16.846500
C -2.757000 -7.882100 -18.890000
O -2.737600 -8.976500 -13.414500
C -2.444000 -8.590600 -14.526800
C -1.696200 -7.652900 -17.014800
N -1.647300 -7.359800 -18.359700
N -1.239000 -7.900600 -14.746400
H -1.021500 -6.874900 -18.766100
H -0.944300 -7.507100 -12.809500
C -0.793800 -7.399800 -15.966500
C -0.393500 -7.702000 -13.571300
H 0.112900 -8.500300 -13.403200
H 0.206600 -6.969400 -13.728800
O 0.286900 -6.803400 -16.042000
H -7.844500 -6.964500 -21.845100
H -7.290900 -8.353300 -22.316800
H -7.229200 -7.117400 -23.278700
C -7.166600 -7.402800 -22.364000
O -6.573600 -6.008300 -19.436800
C -5.831900 -7.052600 -21.828800
H -5.804200 -5.919100 -17.314100
O -5.602800 -5.714200 -21.940700
C -5.515800 -5.591200 -19.025400
O -5.213600 -5.549600 -17.746600
O -5.022100 -7.802500 -21.367500
C -4.475300 -5.208600 -21.294600
C -4.428300 -5.085600 -19.905100
H -3.481000 -4.893800 -23.010600
C -3.436300 -4.787800 -22.088300
C -3.292600 -4.493300 -19.350700
H -3.233400 -4.394600 -18.427800
C -2.328100 -4.206300 -21.510800
C -2.256800 -4.052400 -20.146600
H -1.625000 -3.918600 -22.046400
H -1.511400 -3.651200 -19.761400
