17
Fragment
N -6.121300 -20.608800 -15.181900
H -5.918100 -22.578700 -15.320900
N -5.639000 -21.788700 -15.590600
N -5.442400 -19.693600 -15.800400
N -5.153300 -24.432300 -16.241700
N -5.062200 -25.786900 -16.317600
C -4.655600 -21.565700 -16.482600
N -4.513600 -20.250300 -16.617600
C -4.168500 -23.971300 -16.991300
N -4.072400 -26.147300 -17.077400
C -3.869700 -22.561900 -17.202500
N -3.497000 -25.008700 -17.506000
H -2.953400 -20.390900 -17.889400
N -2.898400 -22.293900 -18.037600
H -2.796700 -24.956000 -18.036400
N -2.539100 -21.057300 -18.286700
H -1.884100 -20.895000 -18.850700
17
Fragment
H -9.475100 -29.132400 -16.640100
N -8.820100 -29.294700 -17.204100
H -8.562500 -33.193400 -17.454400
N -8.460800 -30.531300 -17.453100
H -8.405800 -28.628300 -17.601400
N -7.862200 -33.246100 -17.984800
C -7.489500 -30.799300 -18.288300
N -7.286800 -34.384700 -18.413400
C -7.190700 -32.208700 -18.499500
N -6.845600 -28.487700 -18.873200
C -6.703600 -29.803100 -19.008100
N -6.297000 -34.024300 -19.173100
N -6.205800 -32.669700 -19.249100
N -5.916800 -27.931000 -19.690400
N -5.720200 -30.026100 -19.900200
H -5.441100 -30.816100 -20.169900
N -5.237900 -28.846200 -20.308800
34
Fragment
N -6.121300 -20.608800 -15.181900
H -5.918100 -22.578700 -15.320900
N -5.639000 -21.788700 -15.590600
N -5.442400 -19.693600 -15.800400
N -5.153300 -24.432300 -16.241700
N -5.062200 -25.786900 -16.317600
C -4.655600 -21.565700 -16.482600
N -4.513600 -20.250300 -16.617600
C -4.168500 -23.971300 -16.991300
N -4.072400 -26.147300 -17.077400
C -3.869700 -22.561900 -17.202500
N -3.497000 -25.008700 -17.506000
H -2.953400 -20.390900 -17.889400
N -2.898400 -22.293900 -18.037600
H -2.796700 -24.956000 -18.036400
N -2.539100 -21.057300 -18.286700
H -1.884100 -20.895000 -18.850700
H -9.475100 -29.132400 -16.640100
N -8.820100 -29.294700 -17.204100
H -8.562500 -33.193400 -17.454400
N -8.460800 -30.531300 -17.453100
H -8.405800 -28.628300 -17.601400
N -7.862200 -33.246100 -17.984800
C -7.489500 -30.799300 -18.288300
N -7.286800 -34.384700 -18.413400
C -7.190700 -32.208700 -18.499500
N -6.845600 -28.487700 -18.873200
C -6.703600 -29.803100 -19.008100
N -6.297000 -34.024300 -19.173100
N -6.205800 -32.669700 -19.249100
N -5.916800 -27.931000 -19.690400
N -5.720200 -30.026100 -19.900200
H -5.441100 -30.816100 -20.169900
N -5.237900 -28.846200 -20.308800
