17
Fragment
N -6.121300 -20.608800 -15.181900
H -5.918100 -22.578700 -15.320900
N -5.639000 -21.788700 -15.590600
N -5.442400 -19.693600 -15.800400
N -5.153300 -24.432300 -16.241700
N -5.062200 -25.786900 -16.317600
C -4.655600 -21.565700 -16.482600
N -4.513600 -20.250300 -16.617600
C -4.168500 -23.971300 -16.991300
N -4.072400 -26.147300 -17.077400
C -3.869700 -22.561900 -17.202500
N -3.497000 -25.008700 -17.506000
H -2.953400 -20.390900 -17.889400
N -2.898400 -22.293900 -18.037600
H -2.796700 -24.956000 -18.036400
N -2.539100 -21.057300 -18.286700
H -1.884100 -20.895000 -18.850700
17
Fragment
N -11.918400 -20.578200 -10.111800
H -11.715200 -18.608300 -10.250800
N -11.436000 -19.398300 -10.520500
N -11.239500 -21.493400 -10.730300
N -10.950400 -16.754700 -11.171600
N -10.859200 -15.400100 -11.247500
C -10.452600 -19.621300 -11.412500
N -10.310700 -20.936700 -11.547500
C -9.965600 -17.215700 -11.921100
N -9.869400 -15.039700 -12.007200
C -9.666800 -18.625100 -12.132400
N -9.294100 -16.178300 -12.435900
H -8.750500 -20.796100 -12.819300
N -8.695500 -18.893100 -12.967500
H -8.593700 -16.231000 -12.966300
N -8.336200 -20.129700 -13.216600
H -7.681100 -20.292000 -13.780600
34
Fragment
N -6.121300 -20.608800 -15.181900
H -5.918100 -22.578700 -15.320900
N -5.639000 -21.788700 -15.590600
N -5.442400 -19.693600 -15.800400
N -5.153300 -24.432300 -16.241700
N -5.062200 -25.786900 -16.317600
C -4.655600 -21.565700 -16.482600
N -4.513600 -20.250300 -16.617600
C -4.168500 -23.971300 -16.991300
N -4.072400 -26.147300 -17.077400
C -3.869700 -22.561900 -17.202500
N -3.497000 -25.008700 -17.506000
H -2.953400 -20.390900 -17.889400
N -2.898400 -22.293900 -18.037600
H -2.796700 -24.956000 -18.036400
N -2.539100 -21.057300 -18.286700
H -1.884100 -20.895000 -18.850700
N -11.918400 -20.578200 -10.111800
H -11.715200 -18.608300 -10.250800
N -11.436000 -19.398300 -10.520500
N -11.239500 -21.493400 -10.730300
N -10.950400 -16.754700 -11.171600
N -10.859200 -15.400100 -11.247500
C -10.452600 -19.621300 -11.412500
N -10.310700 -20.936700 -11.547500
C -9.965600 -17.215700 -11.921100
N -9.869400 -15.039700 -12.007200
C -9.666800 -18.625100 -12.132400
N -9.294100 -16.178300 -12.435900
H -8.750500 -20.796100 -12.819300
N -8.695500 -18.893100 -12.967500
H -8.593700 -16.231000 -12.966300
N -8.336200 -20.129700 -13.216600
H -7.681100 -20.292000 -13.780600
