17
Fragment
N -6.121300 -20.608800 -15.181900
H -5.918100 -22.578700 -15.320900
N -5.639000 -21.788700 -15.590600
N -5.442400 -19.693600 -15.800400
N -5.153300 -24.432300 -16.241700
N -5.062200 -25.786900 -16.317600
C -4.655600 -21.565700 -16.482600
N -4.513600 -20.250300 -16.617600
C -4.168500 -23.971300 -16.991300
N -4.072400 -26.147300 -17.077400
C -3.869700 -22.561900 -17.202500
N -3.497000 -25.008700 -17.506000
H -2.953400 -20.390900 -17.889400
N -2.898400 -22.293900 -18.037600
H -2.796700 -24.956000 -18.036400
N -2.539100 -21.057300 -18.286700
H -1.884100 -20.895000 -18.850700
3
Fragment
H -4.097500 -23.463400 -20.863500
O -3.956800 -24.266100 -20.955000
H -3.363500 -24.562300 -20.473100
20
Fragment
N -6.121300 -20.608800 -15.181900
H -5.918100 -22.578700 -15.320900
N -5.639000 -21.788700 -15.590600
N -5.442400 -19.693600 -15.800400
N -5.153300 -24.432300 -16.241700
N -5.062200 -25.786900 -16.317600
C -4.655600 -21.565700 -16.482600
N -4.513600 -20.250300 -16.617600
C -4.168500 -23.971300 -16.991300
N -4.072400 -26.147300 -17.077400
C -3.869700 -22.561900 -17.202500
N -3.497000 -25.008700 -17.506000
H -2.953400 -20.390900 -17.889400
N -2.898400 -22.293900 -18.037600
H -2.796700 -24.956000 -18.036400
N -2.539100 -21.057300 -18.286700
H -1.884100 -20.895000 -18.850700
H -4.097500 -23.463400 -20.863500
O -3.956800 -24.266100 -20.955000
H -3.363500 -24.562300 -20.473100
