17
Fragment
N -6.121300 -20.608800 -15.181900
H -5.918100 -22.578700 -15.320900
N -5.639000 -21.788700 -15.590600
N -5.442400 -19.693600 -15.800400
N -5.153300 -24.432300 -16.241700
N -5.062200 -25.786900 -16.317600
C -4.655600 -21.565700 -16.482600
N -4.513600 -20.250300 -16.617600
C -4.168500 -23.971300 -16.991300
N -4.072400 -26.147300 -17.077400
C -3.869700 -22.561900 -17.202500
N -3.497000 -25.008700 -17.506000
H -2.953400 -20.390900 -17.889400
N -2.898400 -22.293900 -18.037600
H -2.796700 -24.956000 -18.036400
N -2.539100 -21.057300 -18.286700
H -1.884100 -20.895000 -18.850700
17
Fragment
H -5.828800 -28.529400 -11.570000
N -5.173700 -28.367100 -12.134000
H -4.916200 -24.468400 -12.384300
N -4.814500 -27.130500 -12.383000
H -4.759400 -29.033500 -12.531300
N -4.215900 -24.415700 -12.914700
C -3.843200 -26.862500 -13.218200
N -3.640500 -23.277100 -13.343300
C -3.544300 -25.453100 -13.429400
N -3.199200 -29.174100 -13.803100
C -3.057300 -27.858700 -13.938000
N -2.650700 -23.637500 -14.103000
N -2.559500 -24.992100 -14.179000
N -2.270400 -29.730800 -14.620300
N -2.073900 -27.635700 -14.830100
H -1.794800 -26.845700 -15.099800
N -1.591500 -28.815600 -15.238700
34
Fragment
N -6.121300 -20.608800 -15.181900
H -5.918100 -22.578700 -15.320900
N -5.639000 -21.788700 -15.590600
N -5.442400 -19.693600 -15.800400
N -5.153300 -24.432300 -16.241700
N -5.062200 -25.786900 -16.317600
C -4.655600 -21.565700 -16.482600
N -4.513600 -20.250300 -16.617600
C -4.168500 -23.971300 -16.991300
N -4.072400 -26.147300 -17.077400
C -3.869700 -22.561900 -17.202500
N -3.497000 -25.008700 -17.506000
H -2.953400 -20.390900 -17.889400
N -2.898400 -22.293900 -18.037600
H -2.796700 -24.956000 -18.036400
N -2.539100 -21.057300 -18.286700
H -1.884100 -20.895000 -18.850700
H -5.828800 -28.529400 -11.570000
N -5.173700 -28.367100 -12.134000
H -4.916200 -24.468400 -12.384300
N -4.814500 -27.130500 -12.383000
H -4.759400 -29.033500 -12.531300
N -4.215900 -24.415700 -12.914700
C -3.843200 -26.862500 -13.218200
N -3.640500 -23.277100 -13.343300
C -3.544300 -25.453100 -13.429400
N -3.199200 -29.174100 -13.803100
C -3.057300 -27.858700 -13.938000
N -2.650700 -23.637500 -14.103000
N -2.559500 -24.992100 -14.179000
N -2.270400 -29.730800 -14.620300
N -2.073900 -27.635700 -14.830100
H -1.794800 -26.845700 -15.099800
N -1.591500 -28.815600 -15.238700
