17
Fragment
N -6.121300 -20.608800 -15.181900
H -5.918100 -22.578700 -15.320900
N -5.639000 -21.788700 -15.590600
N -5.442400 -19.693600 -15.800400
N -5.153300 -24.432300 -16.241700
N -5.062200 -25.786900 -16.317600
C -4.655600 -21.565700 -16.482600
N -4.513600 -20.250300 -16.617600
C -4.168500 -23.971300 -16.991300
N -4.072400 -26.147300 -17.077400
C -3.869700 -22.561900 -17.202500
N -3.497000 -25.008700 -17.506000
H -2.953400 -20.390900 -17.889400
N -2.898400 -22.293900 -18.037600
H -2.796700 -24.956000 -18.036400
N -2.539100 -21.057300 -18.286700
H -1.884100 -20.895000 -18.850700
17
Fragment
N -10.843000 -20.608800 -15.181900
H -10.639800 -22.578700 -15.320900
N -10.360700 -21.788700 -15.590600
N -10.164100 -19.693600 -15.800400
N -9.875000 -24.432300 -16.241700
N -9.783900 -25.786900 -16.317600
C -9.377300 -21.565700 -16.482600
N -9.235300 -20.250300 -16.617600
C -8.890200 -23.971300 -16.991300
N -8.794100 -26.147300 -17.077400
C -8.591400 -22.561900 -17.202500
N -8.218700 -25.008700 -17.506000
H -7.675100 -20.390900 -17.889400
N -7.620100 -22.293900 -18.037600
H -7.518400 -24.956000 -18.036400
N -7.260800 -21.057300 -18.286700
H -6.605800 -20.895000 -18.850700
34
Fragment
N -6.121300 -20.608800 -15.181900
H -5.918100 -22.578700 -15.320900
N -5.639000 -21.788700 -15.590600
N -5.442400 -19.693600 -15.800400
N -5.153300 -24.432300 -16.241700
N -5.062200 -25.786900 -16.317600
C -4.655600 -21.565700 -16.482600
N -4.513600 -20.250300 -16.617600
C -4.168500 -23.971300 -16.991300
N -4.072400 -26.147300 -17.077400
C -3.869700 -22.561900 -17.202500
N -3.497000 -25.008700 -17.506000
H -2.953400 -20.390900 -17.889400
N -2.898400 -22.293900 -18.037600
H -2.796700 -24.956000 -18.036400
N -2.539100 -21.057300 -18.286700
H -1.884100 -20.895000 -18.850700
N -10.843000 -20.608800 -15.181900
H -10.639800 -22.578700 -15.320900
N -10.360700 -21.788700 -15.590600
N -10.164100 -19.693600 -15.800400
N -9.875000 -24.432300 -16.241700
N -9.783900 -25.786900 -16.317600
C -9.377300 -21.565700 -16.482600
N -9.235300 -20.250300 -16.617600
C -8.890200 -23.971300 -16.991300
N -8.794100 -26.147300 -17.077400
C -8.591400 -22.561900 -17.202500
N -8.218700 -25.008700 -17.506000
H -7.675100 -20.390900 -17.889400
N -7.620100 -22.293900 -18.037600
H -7.518400 -24.956000 -18.036400
N -7.260800 -21.057300 -18.286700
H -6.605800 -20.895000 -18.850700
