19
Fragment
H -9.890500 -38.680200 -5.391200
H -9.867700 -38.374700 -7.373500
O -9.081000 -38.549900 -7.191000
C -9.056500 -38.984800 -5.850800
C -8.947400 -40.509500 -5.738500
O -8.919000 -41.028600 -4.610200
H -8.906100 -40.763400 -7.596100
N -8.888000 -41.188800 -6.861200
H -8.809300 -42.030500 -6.812200
H -8.099400 -36.246400 -7.004400
N -8.099400 -34.793000 -5.793600
N -8.080700 -34.820200 -4.497500
N -8.040000 -36.076300 -6.193200
N -8.000000 -36.105800 -4.039300
C -7.976800 -36.864200 -5.118500
C -7.839300 -38.356800 -5.155900
H -7.763300 -38.711600 -4.224300
O -6.643400 -38.629300 -5.871000
H -6.427900 -39.404800 -5.724900
19
Fragment
H -9.890500 -38.680200 -10.448500
H -9.867700 -38.374700 -12.430800
O -9.081000 -38.549900 -12.248300
C -9.056500 -38.984800 -10.908100
C -8.947400 -40.509500 -10.795800
O -8.919000 -41.028600 -9.667500
H -8.906100 -40.763400 -12.653400
N -8.888000 -41.188800 -11.918500
H -8.809300 -42.030500 -11.869500
H -8.099400 -36.246400 -12.061700
N -8.099400 -34.793000 -10.850900
N -8.080700 -34.820200 -9.554800
N -8.040000 -36.076300 -11.250500
N -8.000000 -36.105800 -9.096600
C -7.976800 -36.864200 -10.175800
C -7.839300 -38.356800 -10.213200
H -7.763300 -38.711600 -9.281600
O -6.643400 -38.629300 -10.928300
H -6.427900 -39.404800 -10.782200
38
Fragment
H -9.890500 -38.680200 -5.391200
H -9.867700 -38.374700 -7.373500
O -9.081000 -38.549900 -7.191000
C -9.056500 -38.984800 -5.850800
C -8.947400 -40.509500 -5.738500
O -8.919000 -41.028600 -4.610200
H -8.906100 -40.763400 -7.596100
N -8.888000 -41.188800 -6.861200
H -8.809300 -42.030500 -6.812200
H -8.099400 -36.246400 -7.004400
N -8.099400 -34.793000 -5.793600
N -8.080700 -34.820200 -4.497500
N -8.040000 -36.076300 -6.193200
N -8.000000 -36.105800 -4.039300
C -7.976800 -36.864200 -5.118500
C -7.839300 -38.356800 -5.155900
H -7.763300 -38.711600 -4.224300
O -6.643400 -38.629300 -5.871000
H -6.427900 -39.404800 -5.724900
H -9.890500 -38.680200 -10.448500
H -9.867700 -38.374700 -12.430800
O -9.081000 -38.549900 -12.248300
C -9.056500 -38.984800 -10.908100
C -8.947400 -40.509500 -10.795800
O -8.919000 -41.028600 -9.667500
H -8.906100 -40.763400 -12.653400
N -8.888000 -41.188800 -11.918500
H -8.809300 -42.030500 -11.869500
H -8.099400 -36.246400 -12.061700
N -8.099400 -34.793000 -10.850900
N -8.080700 -34.820200 -9.554800
N -8.040000 -36.076300 -11.250500
N -8.000000 -36.105800 -9.096600
C -7.976800 -36.864200 -10.175800
C -7.839300 -38.356800 -10.213200
H -7.763300 -38.711600 -9.281600
O -6.643400 -38.629300 -10.928300
H -6.427900 -39.404800 -10.782200
