19
Fragment
H -9.890500 -38.680200 -5.391200
H -9.867700 -38.374700 -7.373500
O -9.081000 -38.549900 -7.191000
C -9.056500 -38.984800 -5.850800
C -8.947400 -40.509500 -5.738500
O -8.919000 -41.028600 -4.610200
H -8.906100 -40.763400 -7.596100
N -8.888000 -41.188800 -6.861200
H -8.809300 -42.030500 -6.812200
H -8.099400 -36.246400 -7.004400
N -8.099400 -34.793000 -5.793600
N -8.080700 -34.820200 -4.497500
N -8.040000 -36.076300 -6.193200
N -8.000000 -36.105800 -4.039300
C -7.976800 -36.864200 -5.118500
C -7.839300 -38.356800 -5.155900
H -7.763300 -38.711600 -4.224300
O -6.643400 -38.629300 -5.871000
H -6.427900 -39.404800 -5.724900
19
Fragment
H -6.479500 -30.990200 -5.724900
O -6.264000 -31.765700 -5.871000
H -5.144100 -31.683400 -4.224300
C -5.068100 -32.038200 -5.155900
C -4.930600 -33.530800 -5.118500
N -4.907400 -34.289200 -4.039300
N -4.867400 -34.318700 -6.193200
N -4.826700 -35.574800 -4.497500
N -4.808000 -35.602000 -5.793600
H -4.808000 -34.148600 -7.004400
H -4.098100 -28.364500 -6.812200
N -4.019400 -29.206200 -6.861200
H -4.001300 -29.631600 -7.596100
O -3.988400 -29.366400 -4.610200
C -3.960000 -29.885500 -5.738500
C -3.850900 -31.410200 -5.850800
O -3.826400 -31.845100 -7.191000
H -3.039700 -32.020300 -7.373500
H -3.016900 -31.714800 -5.391200
38
Fragment
H -9.890500 -38.680200 -5.391200
H -9.867700 -38.374700 -7.373500
O -9.081000 -38.549900 -7.191000
C -9.056500 -38.984800 -5.850800
C -8.947400 -40.509500 -5.738500
O -8.919000 -41.028600 -4.610200
H -8.906100 -40.763400 -7.596100
N -8.888000 -41.188800 -6.861200
H -8.809300 -42.030500 -6.812200
H -8.099400 -36.246400 -7.004400
N -8.099400 -34.793000 -5.793600
N -8.080700 -34.820200 -4.497500
N -8.040000 -36.076300 -6.193200
N -8.000000 -36.105800 -4.039300
C -7.976800 -36.864200 -5.118500
C -7.839300 -38.356800 -5.155900
H -7.763300 -38.711600 -4.224300
O -6.643400 -38.629300 -5.871000
H -6.427900 -39.404800 -5.724900
H -6.479500 -30.990200 -5.724900
O -6.264000 -31.765700 -5.871000
H -5.144100 -31.683400 -4.224300
C -5.068100 -32.038200 -5.155900
C -4.930600 -33.530800 -5.118500
N -4.907400 -34.289200 -4.039300
N -4.867400 -34.318700 -6.193200
N -4.826700 -35.574800 -4.497500
N -4.808000 -35.602000 -5.793600
H -4.808000 -34.148600 -7.004400
H -4.098100 -28.364500 -6.812200
N -4.019400 -29.206200 -6.861200
H -4.001300 -29.631600 -7.596100
O -3.988400 -29.366400 -4.610200
C -3.960000 -29.885500 -5.738500
C -3.850900 -31.410200 -5.850800
O -3.826400 -31.845100 -7.191000
H -3.039700 -32.020300 -7.373500
H -3.016900 -31.714800 -5.391200
