19
Fragment
H -9.890500 -38.680200 -5.391200
H -9.867700 -38.374700 -7.373500
O -9.081000 -38.549900 -7.191000
C -9.056500 -38.984800 -5.850800
C -8.947400 -40.509500 -5.738500
O -8.919000 -41.028600 -4.610200
H -8.906100 -40.763400 -7.596100
N -8.888000 -41.188800 -6.861200
H -8.809300 -42.030500 -6.812200
H -8.099400 -36.246400 -7.004400
N -8.099400 -34.793000 -5.793600
N -8.080700 -34.820200 -4.497500
N -8.040000 -36.076300 -6.193200
N -8.000000 -36.105800 -4.039300
C -7.976800 -36.864200 -5.118500
C -7.839300 -38.356800 -5.155900
H -7.763300 -38.711600 -4.224300
O -6.643400 -38.629300 -5.871000
H -6.427900 -39.404800 -5.724900
19
Fragment
H -13.117300 -43.447300 -4.723400
H -13.094600 -43.752800 -2.741100
O -12.307900 -43.577600 -2.923600
C -12.283300 -43.142700 -4.263800
C -12.174300 -41.618000 -4.376100
O -12.145900 -41.098900 -5.504400
H -12.133000 -41.364100 -2.518500
N -12.114900 -40.938700 -3.253400
H -12.036200 -40.097000 -3.302400
N -11.326200 -47.334500 -4.321000
H -11.326200 -45.881100 -3.110200
N -11.307500 -47.307300 -5.617100
N -11.266900 -46.051200 -3.921400
N -11.226900 -46.021700 -6.075300
C -11.203600 -45.263300 -4.996100
C -11.066200 -43.770700 -4.958700
H -10.990100 -43.415900 -5.890300
O -9.870300 -43.498200 -4.243600
H -9.654700 -42.722700 -4.389700
38
Fragment
H -9.890500 -38.680200 -5.391200
H -9.867700 -38.374700 -7.373500
O -9.081000 -38.549900 -7.191000
C -9.056500 -38.984800 -5.850800
C -8.947400 -40.509500 -5.738500
O -8.919000 -41.028600 -4.610200
H -8.906100 -40.763400 -7.596100
N -8.888000 -41.188800 -6.861200
H -8.809300 -42.030500 -6.812200
H -8.099400 -36.246400 -7.004400
N -8.099400 -34.793000 -5.793600
N -8.080700 -34.820200 -4.497500
N -8.040000 -36.076300 -6.193200
N -8.000000 -36.105800 -4.039300
C -7.976800 -36.864200 -5.118500
C -7.839300 -38.356800 -5.155900
H -7.763300 -38.711600 -4.224300
O -6.643400 -38.629300 -5.871000
H -6.427900 -39.404800 -5.724900
H -13.117300 -43.447300 -4.723400
H -13.094600 -43.752800 -2.741100
O -12.307900 -43.577600 -2.923600
C -12.283300 -43.142700 -4.263800
C -12.174300 -41.618000 -4.376100
O -12.145900 -41.098900 -5.504400
H -12.133000 -41.364100 -2.518500
N -12.114900 -40.938700 -3.253400
H -12.036200 -40.097000 -3.302400
N -11.326200 -47.334500 -4.321000
H -11.326200 -45.881100 -3.110200
N -11.307500 -47.307300 -5.617100
N -11.266900 -46.051200 -3.921400
N -11.226900 -46.021700 -6.075300
C -11.203600 -45.263300 -4.996100
C -11.066200 -43.770700 -4.958700
H -10.990100 -43.415900 -5.890300
O -9.870300 -43.498200 -4.243600
H -9.654700 -42.722700 -4.389700
