19
Fragment
H -9.890500 -38.680200 -5.391200
H -9.867700 -38.374700 -7.373500
O -9.081000 -38.549900 -7.191000
C -9.056500 -38.984800 -5.850800
C -8.947400 -40.509500 -5.738500
O -8.919000 -41.028600 -4.610200
H -8.906100 -40.763400 -7.596100
N -8.888000 -41.188800 -6.861200
H -8.809300 -42.030500 -6.812200
H -8.099400 -36.246400 -7.004400
N -8.099400 -34.793000 -5.793600
N -8.080700 -34.820200 -4.497500
N -8.040000 -36.076300 -6.193200
N -8.000000 -36.105800 -4.039300
C -7.976800 -36.864200 -5.118500
C -7.839300 -38.356800 -5.155900
H -7.763300 -38.711600 -4.224300
O -6.643400 -38.629300 -5.871000
H -6.427900 -39.404800 -5.724900
19
Fragment
H -9.890500 -38.680200 -0.333900
H -9.867700 -38.374700 -2.316200
O -9.081000 -38.549900 -2.133700
C -9.056500 -38.984800 -0.793500
C -8.947400 -40.509500 -0.681200
O -8.919000 -41.028600 0.447100
H -8.906100 -40.763400 -2.538800
N -8.888000 -41.188800 -1.803900
H -8.809300 -42.030500 -1.754900
H -8.099400 -36.246400 -1.947100
N -8.099400 -34.793000 -0.736300
N -8.080700 -34.820200 0.559800
N -8.040000 -36.076300 -1.135900
N -8.000000 -36.105800 1.018000
C -7.976800 -36.864200 -0.061200
C -7.839300 -38.356800 -0.098600
H -7.763300 -38.711600 0.833000
O -6.643400 -38.629300 -0.813700
H -6.427900 -39.404800 -0.667600
38
Fragment
H -9.890500 -38.680200 -5.391200
H -9.867700 -38.374700 -7.373500
O -9.081000 -38.549900 -7.191000
C -9.056500 -38.984800 -5.850800
C -8.947400 -40.509500 -5.738500
O -8.919000 -41.028600 -4.610200
H -8.906100 -40.763400 -7.596100
N -8.888000 -41.188800 -6.861200
H -8.809300 -42.030500 -6.812200
H -8.099400 -36.246400 -7.004400
N -8.099400 -34.793000 -5.793600
N -8.080700 -34.820200 -4.497500
N -8.040000 -36.076300 -6.193200
N -8.000000 -36.105800 -4.039300
C -7.976800 -36.864200 -5.118500
C -7.839300 -38.356800 -5.155900
H -7.763300 -38.711600 -4.224300
O -6.643400 -38.629300 -5.871000
H -6.427900 -39.404800 -5.724900
H -9.890500 -38.680200 -0.333900
H -9.867700 -38.374700 -2.316200
O -9.081000 -38.549900 -2.133700
C -9.056500 -38.984800 -0.793500
C -8.947400 -40.509500 -0.681200
O -8.919000 -41.028600 0.447100
H -8.906100 -40.763400 -2.538800
N -8.888000 -41.188800 -1.803900
H -8.809300 -42.030500 -1.754900
H -8.099400 -36.246400 -1.947100
N -8.099400 -34.793000 -0.736300
N -8.080700 -34.820200 0.559800
N -8.040000 -36.076300 -1.135900
N -8.000000 -36.105800 1.018000
C -7.976800 -36.864200 -0.061200
C -7.839300 -38.356800 -0.098600
H -7.763300 -38.711600 0.833000
O -6.643400 -38.629300 -0.813700
H -6.427900 -39.404800 -0.667600
