30
Fragment
O -50.905300 -15.172700 -12.048400
H -50.202800 -17.284900 -12.387000
C -49.726800 -15.551000 -11.984900
N -49.380500 -16.884800 -12.201500
C -48.574900 -14.780200 -11.749000
N -48.445100 -13.452900 -11.522100
C -48.135500 -17.374000 -12.195300
H -47.872500 -18.382900 -12.497400
C -47.326500 -15.394400 -11.767700
C -47.170000 -13.234400 -11.337300
N -47.040200 -16.704400 -11.995300
H -46.807100 -12.425600 -11.221400
N -46.444300 -14.355200 -11.511800
C -44.989500 -14.500800 -11.476600
H -44.876300 -13.338700 -13.345700
H -44.876300 -11.762400 -8.786800
H -44.709800 -15.404200 -11.587000
O -44.533400 -13.999700 -10.197900
H -44.410200 -11.664600 -11.483500
C -44.277000 -13.658300 -12.549100
O -44.083900 -11.337400 -9.059200
C -43.661100 -12.516900 -11.757300
C -43.348200 -13.244100 -10.460000
F -43.255000 -14.434500 -13.094600
C -43.075200 -12.351600 -9.265400
H -42.978700 -12.893000 -8.352300
O -42.555900 -11.905900 -12.365600
H -42.412700 -13.806200 -10.600700
H -42.146400 -11.871100 -9.283400
H -41.680300 -12.392900 -12.256000
30
Fragment
H -57.227200 -12.556000 -7.524600
H -56.861000 -13.110400 -5.531400
O -56.764500 -14.513900 -9.223400
F -56.697900 -12.004800 -10.230300
H -56.628000 -14.480200 -6.172800
C -56.335000 -12.799500 -7.477000
H -56.328400 -15.665100 -9.179900
C -56.228500 -13.530000 -6.166600
C -55.835700 -13.565900 -8.676400
C -55.502800 -12.432100 -9.662000
O -55.482800 -11.636300 -7.423200
H -55.462800 -10.436200 -9.062700
C -55.026700 -11.298200 -8.733700
H -54.930200 -14.219300 -8.476400
O -54.883500 -13.697500 -5.789300
H -54.830300 -14.491000 -5.048600
H -54.763700 -12.675600 -10.338600
N -53.608500 -11.106900 -8.697100
H -53.332200 -9.142500 -9.186800
C -52.956000 -9.865400 -8.902000
N -52.719600 -13.345200 -8.333600
C -52.569800 -12.029800 -8.565400
N -51.651000 -10.003500 -8.860600
H -51.601000 -14.991100 -8.104000
C -51.561100 -13.955100 -8.244700
C -51.394600 -11.316700 -8.639200
N -50.352600 -13.393100 -8.390200
C -50.122900 -11.987500 -8.555700
H -49.403800 -14.110600 -8.366100
O -49.007700 -11.561300 -8.621200
60
Fragment
O -50.905300 -15.172700 -12.048400
H -50.202800 -17.284900 -12.387000
C -49.726800 -15.551000 -11.984900
N -49.380500 -16.884800 -12.201500
C -48.574900 -14.780200 -11.749000
N -48.445100 -13.452900 -11.522100
C -48.135500 -17.374000 -12.195300
H -47.872500 -18.382900 -12.497400
C -47.326500 -15.394400 -11.767700
C -47.170000 -13.234400 -11.337300
N -47.040200 -16.704400 -11.995300
H -46.807100 -12.425600 -11.221400
N -46.444300 -14.355200 -11.511800
C -44.989500 -14.500800 -11.476600
H -44.876300 -13.338700 -13.345700
H -44.876300 -11.762400 -8.786800
H -44.709800 -15.404200 -11.587000
O -44.533400 -13.999700 -10.197900
H -44.410200 -11.664600 -11.483500
C -44.277000 -13.658300 -12.549100
O -44.083900 -11.337400 -9.059200
C -43.661100 -12.516900 -11.757300
C -43.348200 -13.244100 -10.460000
F -43.255000 -14.434500 -13.094600
C -43.075200 -12.351600 -9.265400
H -42.978700 -12.893000 -8.352300
O -42.555900 -11.905900 -12.365600
H -42.412700 -13.806200 -10.600700
H -42.146400 -11.871100 -9.283400
H -41.680300 -12.392900 -12.256000
H -57.227200 -12.556000 -7.524600
H -56.861000 -13.110400 -5.531400
O -56.764500 -14.513900 -9.223400
F -56.697900 -12.004800 -10.230300
H -56.628000 -14.480200 -6.172800
C -56.335000 -12.799500 -7.477000
H -56.328400 -15.665100 -9.179900
C -56.228500 -13.530000 -6.166600
C -55.835700 -13.565900 -8.676400
C -55.502800 -12.432100 -9.662000
O -55.482800 -11.636300 -7.423200
H -55.462800 -10.436200 -9.062700
C -55.026700 -11.298200 -8.733700
H -54.930200 -14.219300 -8.476400
O -54.883500 -13.697500 -5.789300
H -54.830300 -14.491000 -5.048600
H -54.763700 -12.675600 -10.338600
N -53.608500 -11.106900 -8.697100
H -53.332200 -9.142500 -9.186800
C -52.956000 -9.865400 -8.902000
N -52.719600 -13.345200 -8.333600
C -52.569800 -12.029800 -8.565400
N -51.651000 -10.003500 -8.860600
H -51.601000 -14.991100 -8.104000
C -51.561100 -13.955100 -8.244700
C -51.394600 -11.316700 -8.639200
N -50.352600 -13.393100 -8.390200
C -50.122900 -11.987500 -8.555700
H -49.403800 -14.110600 -8.366100
O -49.007700 -11.561300 -8.621200
