30
Fragment
O -50.905300 -15.172700 -12.048400
H -50.202800 -17.284900 -12.387000
C -49.726800 -15.551000 -11.984900
N -49.380500 -16.884800 -12.201500
C -48.574900 -14.780200 -11.749000
N -48.445100 -13.452900 -11.522100
C -48.135500 -17.374000 -12.195300
H -47.872500 -18.382900 -12.497400
C -47.326500 -15.394400 -11.767700
C -47.170000 -13.234400 -11.337300
N -47.040200 -16.704400 -11.995300
H -46.807100 -12.425600 -11.221400
N -46.444300 -14.355200 -11.511800
C -44.989500 -14.500800 -11.476600
H -44.876300 -13.338700 -13.345700
H -44.876300 -11.762400 -8.786800
H -44.709800 -15.404200 -11.587000
O -44.533400 -13.999700 -10.197900
H -44.410200 -11.664600 -11.483500
C -44.277000 -13.658300 -12.549100
O -44.083900 -11.337400 -9.059200
C -43.661100 -12.516900 -11.757300
C -43.348200 -13.244100 -10.460000
F -43.255000 -14.434500 -13.094600
C -43.075200 -12.351600 -9.265400
H -42.978700 -12.893000 -8.352300
O -42.555900 -11.905900 -12.365600
H -42.412700 -13.806200 -10.600700
H -42.146400 -11.871100 -9.283400
H -41.680300 -12.392900 -12.256000
30
Fragment
H -40.581700 -14.621500 -13.166400
H -40.215500 -14.067100 -15.159600
O -40.119000 -12.663600 -11.467600
F -40.052400 -15.172700 -10.460700
H -39.982500 -12.697300 -14.518200
C -39.689500 -14.378000 -13.214000
H -39.682900 -11.512400 -11.511100
C -39.583000 -13.647500 -14.524400
C -39.190200 -13.611600 -12.014600
C -38.857300 -14.745400 -11.029000
O -38.837300 -15.541200 -13.267800
H -38.817300 -16.741300 -11.628300
C -38.381200 -15.879300 -11.957300
H -38.284700 -12.958200 -12.214600
O -38.238000 -13.480000 -14.901700
H -38.184800 -12.686500 -15.642400
H -38.118200 -14.501900 -10.352400
N -36.963000 -16.070600 -11.993900
H -36.686700 -18.035000 -11.504200
C -36.310500 -17.312100 -11.789000
N -36.074100 -13.832300 -12.357400
C -35.924300 -15.147700 -12.125600
N -35.005500 -17.174000 -11.830400
H -34.955600 -12.186400 -12.587000
C -34.915600 -13.222400 -12.446300
C -34.749100 -15.860800 -12.051800
N -33.707100 -13.784400 -12.300800
C -33.477400 -15.190000 -12.135300
H -32.758300 -13.066900 -12.324900
O -32.362200 -15.616200 -12.069800
60
Fragment
O -50.905300 -15.172700 -12.048400
H -50.202800 -17.284900 -12.387000
C -49.726800 -15.551000 -11.984900
N -49.380500 -16.884800 -12.201500
C -48.574900 -14.780200 -11.749000
N -48.445100 -13.452900 -11.522100
C -48.135500 -17.374000 -12.195300
H -47.872500 -18.382900 -12.497400
C -47.326500 -15.394400 -11.767700
C -47.170000 -13.234400 -11.337300
N -47.040200 -16.704400 -11.995300
H -46.807100 -12.425600 -11.221400
N -46.444300 -14.355200 -11.511800
C -44.989500 -14.500800 -11.476600
H -44.876300 -13.338700 -13.345700
H -44.876300 -11.762400 -8.786800
H -44.709800 -15.404200 -11.587000
O -44.533400 -13.999700 -10.197900
H -44.410200 -11.664600 -11.483500
C -44.277000 -13.658300 -12.549100
O -44.083900 -11.337400 -9.059200
C -43.661100 -12.516900 -11.757300
C -43.348200 -13.244100 -10.460000
F -43.255000 -14.434500 -13.094600
C -43.075200 -12.351600 -9.265400
H -42.978700 -12.893000 -8.352300
O -42.555900 -11.905900 -12.365600
H -42.412700 -13.806200 -10.600700
H -42.146400 -11.871100 -9.283400
H -41.680300 -12.392900 -12.256000
H -40.581700 -14.621500 -13.166400
H -40.215500 -14.067100 -15.159600
O -40.119000 -12.663600 -11.467600
F -40.052400 -15.172700 -10.460700
H -39.982500 -12.697300 -14.518200
C -39.689500 -14.378000 -13.214000
H -39.682900 -11.512400 -11.511100
C -39.583000 -13.647500 -14.524400
C -39.190200 -13.611600 -12.014600
C -38.857300 -14.745400 -11.029000
O -38.837300 -15.541200 -13.267800
H -38.817300 -16.741300 -11.628300
C -38.381200 -15.879300 -11.957300
H -38.284700 -12.958200 -12.214600
O -38.238000 -13.480000 -14.901700
H -38.184800 -12.686500 -15.642400
H -38.118200 -14.501900 -10.352400
N -36.963000 -16.070600 -11.993900
H -36.686700 -18.035000 -11.504200
C -36.310500 -17.312100 -11.789000
N -36.074100 -13.832300 -12.357400
C -35.924300 -15.147700 -12.125600
N -35.005500 -17.174000 -11.830400
H -34.955600 -12.186400 -12.587000
C -34.915600 -13.222400 -12.446300
C -34.749100 -15.860800 -12.051800
N -33.707100 -13.784400 -12.300800
C -33.477400 -15.190000 -12.135300
H -32.758300 -13.066900 -12.324900
O -32.362200 -15.616200 -12.069800
