30
Fragment
O -50.905300 -15.172700 -12.048400
H -50.202800 -17.284900 -12.387000
C -49.726800 -15.551000 -11.984900
N -49.380500 -16.884800 -12.201500
C -48.574900 -14.780200 -11.749000
N -48.445100 -13.452900 -11.522100
C -48.135500 -17.374000 -12.195300
H -47.872500 -18.382900 -12.497400
C -47.326500 -15.394400 -11.767700
C -47.170000 -13.234400 -11.337300
N -47.040200 -16.704400 -11.995300
H -46.807100 -12.425600 -11.221400
N -46.444300 -14.355200 -11.511800
C -44.989500 -14.500800 -11.476600
H -44.876300 -13.338700 -13.345700
H -44.876300 -11.762400 -8.786800
H -44.709800 -15.404200 -11.587000
O -44.533400 -13.999700 -10.197900
H -44.410200 -11.664600 -11.483500
C -44.277000 -13.658300 -12.549100
O -44.083900 -11.337400 -9.059200
C -43.661100 -12.516900 -11.757300
C -43.348200 -13.244100 -10.460000
F -43.255000 -14.434500 -13.094600
C -43.075200 -12.351600 -9.265400
H -42.978700 -12.893000 -8.352300
O -42.555900 -11.905900 -12.365600
H -42.412700 -13.806200 -10.600700
H -42.146400 -11.871100 -9.283400
H -41.680300 -12.392900 -12.256000
30
Fragment
O -50.865300 -16.996800 -8.621200
H -50.469200 -19.546100 -8.876400
C -49.750100 -17.423000 -8.686800
N -49.520400 -18.828600 -8.852300
C -48.478400 -16.752200 -8.603300
C -48.311900 -19.390600 -8.997800
H -48.271900 -20.426600 -9.138500
N -48.222000 -15.439000 -8.381900
C -47.303200 -17.465300 -8.677100
N -47.153400 -18.780700 -8.908900
C -46.917000 -15.300900 -8.340500
H -46.540800 -14.578000 -8.055700
N -46.264500 -16.542400 -8.545400
H -45.109300 -18.111100 -6.903900
H -45.042700 -19.926500 -12.193900
O -44.989500 -19.133000 -11.453200
H -44.942800 -19.654800 -8.766100
C -44.846300 -16.733700 -8.508800
H -44.410200 -15.871700 -8.179800
O -44.390200 -17.071800 -9.819300
C -44.370200 -17.867600 -7.580500
C -44.037300 -19.001400 -8.566100
C -43.644500 -18.965500 -11.075900
H -43.544600 -21.100600 -8.062600
C -43.538000 -18.235000 -9.765500
H -43.245000 -19.915700 -11.069700
F -43.175100 -17.440300 -7.012200
O -43.108500 -19.949400 -8.019100
H -43.012000 -18.545900 -11.711100
H -42.645800 -17.991500 -9.717900
60
Fragment
O -50.905300 -15.172700 -12.048400
H -50.202800 -17.284900 -12.387000
C -49.726800 -15.551000 -11.984900
N -49.380500 -16.884800 -12.201500
C -48.574900 -14.780200 -11.749000
N -48.445100 -13.452900 -11.522100
C -48.135500 -17.374000 -12.195300
H -47.872500 -18.382900 -12.497400
C -47.326500 -15.394400 -11.767700
C -47.170000 -13.234400 -11.337300
N -47.040200 -16.704400 -11.995300
H -46.807100 -12.425600 -11.221400
N -46.444300 -14.355200 -11.511800
C -44.989500 -14.500800 -11.476600
H -44.876300 -13.338700 -13.345700
H -44.876300 -11.762400 -8.786800
H -44.709800 -15.404200 -11.587000
O -44.533400 -13.999700 -10.197900
H -44.410200 -11.664600 -11.483500
C -44.277000 -13.658300 -12.549100
O -44.083900 -11.337400 -9.059200
C -43.661100 -12.516900 -11.757300
C -43.348200 -13.244100 -10.460000
F -43.255000 -14.434500 -13.094600
C -43.075200 -12.351600 -9.265400
H -42.978700 -12.893000 -8.352300
O -42.555900 -11.905900 -12.365600
H -42.412700 -13.806200 -10.600700
H -42.146400 -11.871100 -9.283400
H -41.680300 -12.392900 -12.256000
O -50.865300 -16.996800 -8.621200
H -50.469200 -19.546100 -8.876400
C -49.750100 -17.423000 -8.686800
N -49.520400 -18.828600 -8.852300
C -48.478400 -16.752200 -8.603300
C -48.311900 -19.390600 -8.997800
H -48.271900 -20.426600 -9.138500
N -48.222000 -15.439000 -8.381900
C -47.303200 -17.465300 -8.677100
N -47.153400 -18.780700 -8.908900
C -46.917000 -15.300900 -8.340500
H -46.540800 -14.578000 -8.055700
N -46.264500 -16.542400 -8.545400
H -45.109300 -18.111100 -6.903900
H -45.042700 -19.926500 -12.193900
O -44.989500 -19.133000 -11.453200
H -44.942800 -19.654800 -8.766100
C -44.846300 -16.733700 -8.508800
H -44.410200 -15.871700 -8.179800
O -44.390200 -17.071800 -9.819300
C -44.370200 -17.867600 -7.580500
C -44.037300 -19.001400 -8.566100
C -43.644500 -18.965500 -11.075900
H -43.544600 -21.100600 -8.062600
C -43.538000 -18.235000 -9.765500
H -43.245000 -19.915700 -11.069700
F -43.175100 -17.440300 -7.012200
O -43.108500 -19.949400 -8.019100
H -43.012000 -18.545900 -11.711100
H -42.645800 -17.991500 -9.717900
