30
Fragment
O -50.905300 -15.172700 -12.048400
H -50.202800 -17.284900 -12.387000
C -49.726800 -15.551000 -11.984900
N -49.380500 -16.884800 -12.201500
C -48.574900 -14.780200 -11.749000
N -48.445100 -13.452900 -11.522100
C -48.135500 -17.374000 -12.195300
H -47.872500 -18.382900 -12.497400
C -47.326500 -15.394400 -11.767700
C -47.170000 -13.234400 -11.337300
N -47.040200 -16.704400 -11.995300
H -46.807100 -12.425600 -11.221400
N -46.444300 -14.355200 -11.511800
C -44.989500 -14.500800 -11.476600
H -44.876300 -13.338700 -13.345700
H -44.876300 -11.762400 -8.786800
H -44.709800 -15.404200 -11.587000
O -44.533400 -13.999700 -10.197900
H -44.410200 -11.664600 -11.483500
C -44.277000 -13.658300 -12.549100
O -44.083900 -11.337400 -9.059200
C -43.661100 -12.516900 -11.757300
C -43.348200 -13.244100 -10.460000
F -43.255000 -14.434500 -13.094600
C -43.075200 -12.351600 -9.265400
H -42.978700 -12.893000 -8.352300
O -42.555900 -11.905900 -12.365600
H -42.412700 -13.806200 -10.600700
H -42.146400 -11.871100 -9.283400
H -41.680300 -12.392900 -12.256000
30
Fragment
O -50.905300 -15.172700 -5.151400
H -50.202800 -17.284900 -5.490000
C -49.726800 -15.551000 -5.087900
N -49.380500 -16.884800 -5.304500
C -48.574900 -14.780200 -4.852000
N -48.445100 -13.452900 -4.625100
C -48.135500 -17.374000 -5.298300
H -47.872500 -18.382900 -5.600400
C -47.326500 -15.394400 -4.870700
C -47.170000 -13.234400 -4.440300
N -47.040200 -16.704400 -5.098300
H -46.807100 -12.425600 -4.324400
N -46.444300 -14.355200 -4.614800
C -44.989500 -14.500800 -4.579600
H -44.876300 -13.338700 -6.448700
H -44.876300 -11.762400 -1.889800
H -44.709800 -15.404200 -4.690000
O -44.533400 -13.999700 -3.300900
H -44.410200 -11.664600 -4.586500
C -44.277000 -13.658300 -5.652100
O -44.083900 -11.337400 -2.162200
C -43.661100 -12.516900 -4.860300
C -43.348200 -13.244100 -3.563000
F -43.255000 -14.434500 -6.197600
C -43.075200 -12.351600 -2.368400
H -42.978700 -12.893000 -1.455300
O -42.555900 -11.905900 -5.468600
H -42.412700 -13.806200 -3.703700
H -42.146400 -11.871100 -2.386400
H -41.680300 -12.392900 -5.359000
60
Fragment
O -50.905300 -15.172700 -12.048400
H -50.202800 -17.284900 -12.387000
C -49.726800 -15.551000 -11.984900
N -49.380500 -16.884800 -12.201500
C -48.574900 -14.780200 -11.749000
N -48.445100 -13.452900 -11.522100
C -48.135500 -17.374000 -12.195300
H -47.872500 -18.382900 -12.497400
C -47.326500 -15.394400 -11.767700
C -47.170000 -13.234400 -11.337300
N -47.040200 -16.704400 -11.995300
H -46.807100 -12.425600 -11.221400
N -46.444300 -14.355200 -11.511800
C -44.989500 -14.500800 -11.476600
H -44.876300 -13.338700 -13.345700
H -44.876300 -11.762400 -8.786800
H -44.709800 -15.404200 -11.587000
O -44.533400 -13.999700 -10.197900
H -44.410200 -11.664600 -11.483500
C -44.277000 -13.658300 -12.549100
O -44.083900 -11.337400 -9.059200
C -43.661100 -12.516900 -11.757300
C -43.348200 -13.244100 -10.460000
F -43.255000 -14.434500 -13.094600
C -43.075200 -12.351600 -9.265400
H -42.978700 -12.893000 -8.352300
O -42.555900 -11.905900 -12.365600
H -42.412700 -13.806200 -10.600700
H -42.146400 -11.871100 -9.283400
H -41.680300 -12.392900 -12.256000
O -50.905300 -15.172700 -5.151400
H -50.202800 -17.284900 -5.490000
C -49.726800 -15.551000 -5.087900
N -49.380500 -16.884800 -5.304500
C -48.574900 -14.780200 -4.852000
N -48.445100 -13.452900 -4.625100
C -48.135500 -17.374000 -5.298300
H -47.872500 -18.382900 -5.600400
C -47.326500 -15.394400 -4.870700
C -47.170000 -13.234400 -4.440300
N -47.040200 -16.704400 -5.098300
H -46.807100 -12.425600 -4.324400
N -46.444300 -14.355200 -4.614800
C -44.989500 -14.500800 -4.579600
H -44.876300 -13.338700 -6.448700
H -44.876300 -11.762400 -1.889800
H -44.709800 -15.404200 -4.690000
O -44.533400 -13.999700 -3.300900
H -44.410200 -11.664600 -4.586500
C -44.277000 -13.658300 -5.652100
O -44.083900 -11.337400 -2.162200
C -43.661100 -12.516900 -4.860300
C -43.348200 -13.244100 -3.563000
F -43.255000 -14.434500 -6.197600
C -43.075200 -12.351600 -2.368400
H -42.978700 -12.893000 -1.455300
O -42.555900 -11.905900 -5.468600
H -42.412700 -13.806200 -3.703700
H -42.146400 -11.871100 -2.386400
H -41.680300 -12.392900 -5.359000
