30
Fragment
O -50.905300 -15.172700 -12.048400
H -50.202800 -17.284900 -12.387000
C -49.726800 -15.551000 -11.984900
N -49.380500 -16.884800 -12.201500
C -48.574900 -14.780200 -11.749000
N -48.445100 -13.452900 -11.522100
C -48.135500 -17.374000 -12.195300
H -47.872500 -18.382900 -12.497400
C -47.326500 -15.394400 -11.767700
C -47.170000 -13.234400 -11.337300
N -47.040200 -16.704400 -11.995300
H -46.807100 -12.425600 -11.221400
N -46.444300 -14.355200 -11.511800
C -44.989500 -14.500800 -11.476600
H -44.876300 -13.338700 -13.345700
H -44.876300 -11.762400 -8.786800
H -44.709800 -15.404200 -11.587000
O -44.533400 -13.999700 -10.197900
H -44.410200 -11.664600 -11.483500
C -44.277000 -13.658300 -12.549100
O -44.083900 -11.337400 -9.059200
C -43.661100 -12.516900 -11.757300
C -43.348200 -13.244100 -10.460000
F -43.255000 -14.434500 -13.094600
C -43.075200 -12.351600 -9.265400
H -42.978700 -12.893000 -8.352300
O -42.555900 -11.905900 -12.365600
H -42.412700 -13.806200 -10.600700
H -42.146400 -11.871100 -9.283400
H -41.680300 -12.392900 -12.256000
30
Fragment
H -58.192700 -6.957400 -11.883500
H -57.726600 -6.435600 -14.856100
H -57.460300 -8.370700 -13.538800
O -57.317100 -6.470400 -11.773900
H -56.894300 -7.457500 -15.787200
C -56.797800 -6.916100 -14.874100
F -56.618000 -8.999000 -11.044900
C -56.524800 -7.808600 -13.679500
C -56.211900 -7.081400 -12.382200
O -55.789100 -5.901900 -15.080300
C -55.596000 -8.222800 -11.590400
H -55.462800 -6.229100 -12.656000
O -55.339600 -8.564200 -13.941600
H -55.163200 -9.968700 -12.552500
H -54.996700 -7.903200 -10.793800
H -54.996700 -6.326900 -15.352700
C -54.883500 -9.065300 -12.662900
N -53.428700 -8.919700 -12.627700
H -53.065900 -6.990100 -12.918100
N -52.832800 -11.268900 -12.144200
C -52.703000 -7.798900 -12.802200
C -52.546500 -9.958900 -12.371800
H -52.000500 -12.947400 -11.642100
C -51.737500 -11.938500 -11.944200
N -51.427900 -8.017400 -12.617400
C -51.298100 -9.344700 -12.390500
N -50.492500 -11.449300 -11.938000
C -50.146200 -10.115500 -12.154600
H -49.670200 -11.849400 -11.752500
O -48.967700 -9.737200 -12.091100
60
Fragment
O -50.905300 -15.172700 -12.048400
H -50.202800 -17.284900 -12.387000
C -49.726800 -15.551000 -11.984900
N -49.380500 -16.884800 -12.201500
C -48.574900 -14.780200 -11.749000
N -48.445100 -13.452900 -11.522100
C -48.135500 -17.374000 -12.195300
H -47.872500 -18.382900 -12.497400
C -47.326500 -15.394400 -11.767700
C -47.170000 -13.234400 -11.337300
N -47.040200 -16.704400 -11.995300
H -46.807100 -12.425600 -11.221400
N -46.444300 -14.355200 -11.511800
C -44.989500 -14.500800 -11.476600
H -44.876300 -13.338700 -13.345700
H -44.876300 -11.762400 -8.786800
H -44.709800 -15.404200 -11.587000
O -44.533400 -13.999700 -10.197900
H -44.410200 -11.664600 -11.483500
C -44.277000 -13.658300 -12.549100
O -44.083900 -11.337400 -9.059200
C -43.661100 -12.516900 -11.757300
C -43.348200 -13.244100 -10.460000
F -43.255000 -14.434500 -13.094600
C -43.075200 -12.351600 -9.265400
H -42.978700 -12.893000 -8.352300
O -42.555900 -11.905900 -12.365600
H -42.412700 -13.806200 -10.600700
H -42.146400 -11.871100 -9.283400
H -41.680300 -12.392900 -12.256000
H -58.192700 -6.957400 -11.883500
H -57.726600 -6.435600 -14.856100
H -57.460300 -8.370700 -13.538800
O -57.317100 -6.470400 -11.773900
H -56.894300 -7.457500 -15.787200
C -56.797800 -6.916100 -14.874100
F -56.618000 -8.999000 -11.044900
C -56.524800 -7.808600 -13.679500
C -56.211900 -7.081400 -12.382200
O -55.789100 -5.901900 -15.080300
C -55.596000 -8.222800 -11.590400
H -55.462800 -6.229100 -12.656000
O -55.339600 -8.564200 -13.941600
H -55.163200 -9.968700 -12.552500
H -54.996700 -7.903200 -10.793800
H -54.996700 -6.326900 -15.352700
C -54.883500 -9.065300 -12.662900
N -53.428700 -8.919700 -12.627700
H -53.065900 -6.990100 -12.918100
N -52.832800 -11.268900 -12.144200
C -52.703000 -7.798900 -12.802200
C -52.546500 -9.958900 -12.371800
H -52.000500 -12.947400 -11.642100
C -51.737500 -11.938500 -11.944200
N -51.427900 -8.017400 -12.617400
C -51.298100 -9.344700 -12.390500
N -50.492500 -11.449300 -11.938000
C -50.146200 -10.115500 -12.154600
H -49.670200 -11.849400 -11.752500
O -48.967700 -9.737200 -12.091100
