35
Fragment
H -10.864800 -11.198600 -17.216700
N -10.194000 -11.764900 -17.375300
H -10.026300 -12.044400 -18.103600
O -9.590100 -11.841500 -15.210500
C -9.395800 -12.144500 -16.383400
H -9.313100 -14.307100 -18.059000
H -9.021900 -14.904000 -16.690600
C -8.649800 -14.384600 -17.328700
C -8.204300 -13.022000 -16.796600
H -8.171600 -17.003400 -16.494400
N -8.123700 -17.308200 -17.297000
H -8.023000 -18.129800 -17.476400
H -7.840900 -13.738900 -14.847500
H -7.695900 -14.377400 -19.744500
C -7.627500 -16.535400 -18.269100
C -7.392200 -15.061000 -17.885600
O -7.380100 -16.948400 -19.398700
C -7.377200 -12.227500 -17.807300
C -7.299100 -13.279900 -15.584700
O -7.213900 -11.020000 -17.596300
H -7.021400 -12.508900 -15.211200
C -6.977000 -14.282700 -19.127200
N -6.832700 -12.850600 -18.847800
H -6.421200 -12.350200 -20.764100
H -6.346800 -11.120100 -19.780200
C -6.192600 -15.051900 -16.921500
N -6.165400 -14.124900 -15.953400
H -6.113900 -14.577600 -19.400700
C -6.091900 -12.092200 -19.844600
H -5.317300 -12.351100 -19.716800
O -5.256900 -15.828400 -17.118600
H -5.152000 -14.488300 -14.195500
C -4.948800 -14.013100 -15.150700
H -4.942400 -13.120300 -14.722700
H -4.121500 -14.400800 -15.627400
35
Fragment
H -6.777500 -9.891800 -14.099400
H -5.956600 -8.611300 -15.004100
C -5.950200 -9.504100 -14.576000
H -5.747000 -9.979300 -15.531200
O -5.642100 -11.319400 -12.608100
H -5.581700 -7.842100 -10.010000
C -4.807100 -7.583200 -9.882200
H -4.785100 -10.068600 -10.326100
N -4.733600 -9.615900 -13.773400
C -4.706400 -10.542900 -12.805300
H -4.552200 -6.611100 -9.946600
H -4.477800 -7.841200 -8.962600
N -4.066300 -8.341700 -10.879000
C -3.922000 -9.773700 -10.599600
H -3.877600 -7.999900 -14.515600
O -3.685100 -6.511000 -12.130500
C -3.599900 -8.770900 -14.142000
C -3.521800 -7.718500 -11.919400
O -3.518900 -12.439400 -10.328100
C -3.506800 -10.552000 -11.841200
C -3.271500 -12.026400 -11.457700
H -3.203200 -9.868400 -9.982200
H -3.058100 -9.229900 -14.879200
H -2.876000 -13.620800 -12.250400
N -2.775300 -12.799200 -12.429700
H -2.727400 -12.494400 -13.232400
C -2.694700 -8.513000 -12.930100
C -2.249200 -9.875600 -12.398000
H -1.877100 -10.395000 -13.036200
H -1.585900 -9.798100 -11.667800
C -1.503200 -7.635500 -13.343300
O -1.308900 -7.332500 -14.516300
H -0.872700 -7.535400 -11.623200
N -0.705000 -7.255900 -12.351500
H -0.034300 -6.689600 -12.510000
70
Fragment
H -10.864800 -11.198600 -17.216700
N -10.194000 -11.764900 -17.375300
H -10.026300 -12.044400 -18.103600
O -9.590100 -11.841500 -15.210500
C -9.395800 -12.144500 -16.383400
H -9.313100 -14.307100 -18.059000
H -9.021900 -14.904000 -16.690600
C -8.649800 -14.384600 -17.328700
C -8.204300 -13.022000 -16.796600
H -8.171600 -17.003400 -16.494400
N -8.123700 -17.308200 -17.297000
H -8.023000 -18.129800 -17.476400
H -7.840900 -13.738900 -14.847500
H -7.695900 -14.377400 -19.744500
C -7.627500 -16.535400 -18.269100
C -7.392200 -15.061000 -17.885600
O -7.380100 -16.948400 -19.398700
C -7.377200 -12.227500 -17.807300
C -7.299100 -13.279900 -15.584700
O -7.213900 -11.020000 -17.596300
H -7.021400 -12.508900 -15.211200
C -6.977000 -14.282700 -19.127200
N -6.832700 -12.850600 -18.847800
H -6.421200 -12.350200 -20.764100
H -6.346800 -11.120100 -19.780200
C -6.192600 -15.051900 -16.921500
N -6.165400 -14.124900 -15.953400
H -6.113900 -14.577600 -19.400700
C -6.091900 -12.092200 -19.844600
H -5.317300 -12.351100 -19.716800
O -5.256900 -15.828400 -17.118600
H -5.152000 -14.488300 -14.195500
C -4.948800 -14.013100 -15.150700
H -4.942400 -13.120300 -14.722700
H -4.121500 -14.400800 -15.627400
H -6.777500 -9.891800 -14.099400
H -5.956600 -8.611300 -15.004100
C -5.950200 -9.504100 -14.576000
H -5.747000 -9.979300 -15.531200
O -5.642100 -11.319400 -12.608100
H -5.581700 -7.842100 -10.010000
C -4.807100 -7.583200 -9.882200
H -4.785100 -10.068600 -10.326100
N -4.733600 -9.615900 -13.773400
C -4.706400 -10.542900 -12.805300
H -4.552200 -6.611100 -9.946600
H -4.477800 -7.841200 -8.962600
N -4.066300 -8.341700 -10.879000
C -3.922000 -9.773700 -10.599600
H -3.877600 -7.999900 -14.515600
O -3.685100 -6.511000 -12.130500
C -3.599900 -8.770900 -14.142000
C -3.521800 -7.718500 -11.919400
O -3.518900 -12.439400 -10.328100
C -3.506800 -10.552000 -11.841200
C -3.271500 -12.026400 -11.457700
H -3.203200 -9.868400 -9.982200
H -3.058100 -9.229900 -14.879200
H -2.876000 -13.620800 -12.250400
N -2.775300 -12.799200 -12.429700
H -2.727400 -12.494400 -13.232400
C -2.694700 -8.513000 -12.930100
C -2.249200 -9.875600 -12.398000
H -1.877100 -10.395000 -13.036200
H -1.585900 -9.798100 -11.667800
C -1.503200 -7.635500 -13.343300
O -1.308900 -7.332500 -14.516300
H -0.872700 -7.535400 -11.623200
N -0.705000 -7.255900 -12.351500
H -0.034300 -6.689600 -12.510000
