35
Fragment
H -10.864800 -11.198600 -17.216700
N -10.194000 -11.764900 -17.375300
H -10.026300 -12.044400 -18.103600
O -9.590100 -11.841500 -15.210500
C -9.395800 -12.144500 -16.383400
H -9.313100 -14.307100 -18.059000
H -9.021900 -14.904000 -16.690600
C -8.649800 -14.384600 -17.328700
C -8.204300 -13.022000 -16.796600
H -8.171600 -17.003400 -16.494400
N -8.123700 -17.308200 -17.297000
H -8.023000 -18.129800 -17.476400
H -7.840900 -13.738900 -14.847500
H -7.695900 -14.377400 -19.744500
C -7.627500 -16.535400 -18.269100
C -7.392200 -15.061000 -17.885600
O -7.380100 -16.948400 -19.398700
C -7.377200 -12.227500 -17.807300
C -7.299100 -13.279900 -15.584700
O -7.213900 -11.020000 -17.596300
H -7.021400 -12.508900 -15.211200
C -6.977000 -14.282700 -19.127200
N -6.832700 -12.850600 -18.847800
H -6.421200 -12.350200 -20.764100
H -6.346800 -11.120100 -19.780200
C -6.192600 -15.051900 -16.921500
N -6.165400 -14.124900 -15.953400
H -6.113900 -14.577600 -19.400700
C -6.091900 -12.092200 -19.844600
H -5.317300 -12.351100 -19.716800
O -5.256900 -15.828400 -17.118600
H -5.152000 -14.488300 -14.195500
C -4.948800 -14.013100 -15.150700
H -4.942400 -13.120300 -14.722700
H -4.121500 -14.400800 -15.627400
35
Fragment
H -12.858200 -9.891800 -24.008300
H -12.037300 -8.611300 -24.913000
C -12.030900 -9.504100 -24.484900
H -11.827700 -9.979300 -25.440200
O -11.722800 -11.319400 -22.517000
H -11.662400 -7.842100 -19.918900
C -10.887800 -7.583200 -19.791100
H -10.865800 -10.068600 -20.235000
N -10.814300 -9.615900 -23.682300
C -10.787100 -10.542900 -22.714200
H -10.632900 -6.611100 -19.855500
H -10.558500 -7.841200 -18.871500
N -10.146900 -8.341700 -20.787900
C -10.002600 -9.773700 -20.508500
H -9.958300 -7.999900 -24.424500
O -9.765700 -6.511000 -22.039400
C -9.680600 -8.770900 -24.050900
C -9.602400 -7.718500 -21.828400
O -9.599600 -12.439400 -20.237000
C -9.587500 -10.552000 -21.750100
C -9.352100 -12.026400 -21.366600
H -9.283800 -9.868400 -19.891200
H -9.138700 -9.229900 -24.788100
H -8.956700 -13.620800 -22.159300
N -8.856000 -12.799200 -22.338700
H -8.808100 -12.494400 -23.141300
C -8.775400 -8.513000 -22.839100
C -8.329900 -9.875600 -22.307000
H -7.957800 -10.395000 -22.945100
H -7.666600 -9.798100 -21.576700
C -7.583800 -7.635500 -23.252300
O -7.389600 -7.332500 -24.425200
H -6.953400 -7.535400 -21.532100
N -6.785700 -7.255900 -22.260400
H -6.114900 -6.689600 -22.418900
70
Fragment
H -10.864800 -11.198600 -17.216700
N -10.194000 -11.764900 -17.375300
H -10.026300 -12.044400 -18.103600
O -9.590100 -11.841500 -15.210500
C -9.395800 -12.144500 -16.383400
H -9.313100 -14.307100 -18.059000
H -9.021900 -14.904000 -16.690600
C -8.649800 -14.384600 -17.328700
C -8.204300 -13.022000 -16.796600
H -8.171600 -17.003400 -16.494400
N -8.123700 -17.308200 -17.297000
H -8.023000 -18.129800 -17.476400
H -7.840900 -13.738900 -14.847500
H -7.695900 -14.377400 -19.744500
C -7.627500 -16.535400 -18.269100
C -7.392200 -15.061000 -17.885600
O -7.380100 -16.948400 -19.398700
C -7.377200 -12.227500 -17.807300
C -7.299100 -13.279900 -15.584700
O -7.213900 -11.020000 -17.596300
H -7.021400 -12.508900 -15.211200
C -6.977000 -14.282700 -19.127200
N -6.832700 -12.850600 -18.847800
H -6.421200 -12.350200 -20.764100
H -6.346800 -11.120100 -19.780200
C -6.192600 -15.051900 -16.921500
N -6.165400 -14.124900 -15.953400
H -6.113900 -14.577600 -19.400700
C -6.091900 -12.092200 -19.844600
H -5.317300 -12.351100 -19.716800
O -5.256900 -15.828400 -17.118600
H -5.152000 -14.488300 -14.195500
C -4.948800 -14.013100 -15.150700
H -4.942400 -13.120300 -14.722700
H -4.121500 -14.400800 -15.627400
H -12.858200 -9.891800 -24.008300
H -12.037300 -8.611300 -24.913000
C -12.030900 -9.504100 -24.484900
H -11.827700 -9.979300 -25.440200
O -11.722800 -11.319400 -22.517000
H -11.662400 -7.842100 -19.918900
C -10.887800 -7.583200 -19.791100
H -10.865800 -10.068600 -20.235000
N -10.814300 -9.615900 -23.682300
C -10.787100 -10.542900 -22.714200
H -10.632900 -6.611100 -19.855500
H -10.558500 -7.841200 -18.871500
N -10.146900 -8.341700 -20.787900
C -10.002600 -9.773700 -20.508500
H -9.958300 -7.999900 -24.424500
O -9.765700 -6.511000 -22.039400
C -9.680600 -8.770900 -24.050900
C -9.602400 -7.718500 -21.828400
O -9.599600 -12.439400 -20.237000
C -9.587500 -10.552000 -21.750100
C -9.352100 -12.026400 -21.366600
H -9.283800 -9.868400 -19.891200
H -9.138700 -9.229900 -24.788100
H -8.956700 -13.620800 -22.159300
N -8.856000 -12.799200 -22.338700
H -8.808100 -12.494400 -23.141300
C -8.775400 -8.513000 -22.839100
C -8.329900 -9.875600 -22.307000
H -7.957800 -10.395000 -22.945100
H -7.666600 -9.798100 -21.576700
C -7.583800 -7.635500 -23.252300
O -7.389600 -7.332500 -24.425200
H -6.953400 -7.535400 -21.532100
N -6.785700 -7.255900 -22.260400
H -6.114900 -6.689600 -22.418900
