12
Fragment
H -6.574500 -10.252800 -12.269600
N -5.880300 -10.334400 -11.745200
H -5.644200 -12.327200 -11.354200
N -5.501800 -8.027000 -11.727000
C -5.318600 -11.445500 -11.214500
C -5.142800 -9.272600 -11.331200
O -4.995400 -5.892600 -11.710100
N -4.673600 -7.065900 -11.353800
N -4.272700 -11.155800 -10.485600
N -4.177500 -9.787000 -10.562200
O -3.625800 -7.262800 -10.708900
H -3.501700 -9.333400 -10.067900
12
Fragment
H -4.476100 -13.670400 -15.023400
O -4.352000 -11.599900 -14.382300
N -3.800300 -14.124100 -14.529100
N -3.705100 -15.492900 -14.605600
N -3.304200 -11.403000 -13.737500
O -2.982400 -10.229700 -13.381200
C -2.835000 -13.609700 -13.760000
C -2.659200 -15.782600 -13.876700
N -2.476000 -12.364100 -13.364200
H -2.333600 -16.664300 -13.737100
N -2.097500 -14.671400 -13.346000
H -1.403300 -14.589900 -12.821600
24
Fragment
H -6.574500 -10.252800 -12.269600
N -5.880300 -10.334400 -11.745200
H -5.644200 -12.327200 -11.354200
N -5.501800 -8.027000 -11.727000
C -5.318600 -11.445500 -11.214500
C -5.142800 -9.272600 -11.331200
O -4.995400 -5.892600 -11.710100
N -4.673600 -7.065900 -11.353800
N -4.272700 -11.155800 -10.485600
N -4.177500 -9.787000 -10.562200
O -3.625800 -7.262800 -10.708900
H -3.501700 -9.333400 -10.067900
H -4.476100 -13.670400 -15.023400
O -4.352000 -11.599900 -14.382300
N -3.800300 -14.124100 -14.529100
N -3.705100 -15.492900 -14.605600
N -3.304200 -11.403000 -13.737500
O -2.982400 -10.229700 -13.381200
C -2.835000 -13.609700 -13.760000
C -2.659200 -15.782600 -13.876700
N -2.476000 -12.364100 -13.364200
H -2.333600 -16.664300 -13.737100
N -2.097500 -14.671400 -13.346000
H -1.403300 -14.589900 -12.821600
