12
Fragment
H -6.574500 -10.252800 -12.269600
N -5.880300 -10.334400 -11.745200
H -5.644200 -12.327200 -11.354200
N -5.501800 -8.027000 -11.727000
C -5.318600 -11.445500 -11.214500
C -5.142800 -9.272600 -11.331200
O -4.995400 -5.892600 -11.710100
N -4.673600 -7.065900 -11.353800
N -4.272700 -11.155800 -10.485600
N -4.177500 -9.787000 -10.562200
O -3.625800 -7.262800 -10.708900
H -3.501700 -9.333400 -10.067900
12
Fragment
H -6.574500 -1.578700 -12.269600
N -5.880300 -1.660200 -11.745200
H -5.644200 -3.653100 -11.354200
N -5.501800 0.647100 -11.727000
C -5.318600 -2.771400 -11.214500
C -5.142800 -0.598500 -11.331200
O -4.995400 2.781500 -11.710100
N -4.673600 1.608200 -11.353800
N -4.272700 -2.481700 -10.485600
N -4.177500 -1.112900 -10.562200
O -3.625800 1.411300 -10.708900
H -3.501700 -0.659200 -10.067900
24
Fragment
H -6.574500 -10.252800 -12.269600
N -5.880300 -10.334400 -11.745200
H -5.644200 -12.327200 -11.354200
N -5.501800 -8.027000 -11.727000
C -5.318600 -11.445500 -11.214500
C -5.142800 -9.272600 -11.331200
O -4.995400 -5.892600 -11.710100
N -4.673600 -7.065900 -11.353800
N -4.272700 -11.155800 -10.485600
N -4.177500 -9.787000 -10.562200
O -3.625800 -7.262800 -10.708900
H -3.501700 -9.333400 -10.067900
H -6.574500 -1.578700 -12.269600
N -5.880300 -1.660200 -11.745200
H -5.644200 -3.653100 -11.354200
N -5.501800 0.647100 -11.727000
C -5.318600 -2.771400 -11.214500
C -5.142800 -0.598500 -11.331200
O -4.995400 2.781500 -11.710100
N -4.673600 1.608200 -11.353800
N -4.272700 -2.481700 -10.485600
N -4.177500 -1.112900 -10.562200
O -3.625800 1.411300 -10.708900
H -3.501700 -0.659200 -10.067900
