20
Fragment
H -17.732700 -8.537400 -24.285100
H -17.490500 -7.262400 -22.006400
N -17.001600 -8.169500 -24.505800
N -16.930400 -6.832500 -22.542000
H -16.639800 -8.315700 -25.332300
C -16.491400 -7.177200 -23.768600
N -16.150100 -5.794800 -22.054600
N -15.478100 -6.390000 -24.126800
C -15.310000 -5.578100 -23.050300
H -14.627300 -3.882200 -21.128400
C -14.262500 -4.547900 -23.004500
C -14.078000 -3.758700 -21.881600
H -13.555100 -4.862400 -24.876200
C -13.439400 -4.341800 -24.102500
C -13.089300 -2.790000 -21.860000
H -12.978100 -2.255300 -21.094300
C -12.449300 -3.375200 -24.067900
C -12.268700 -2.602000 -22.947100
H -11.895700 -3.247100 -24.816400
H -11.590200 -1.951400 -22.923700
20
Fragment
H -15.233000 -6.355200 -19.903700
N -15.055300 -6.649000 -19.165200
H -14.873900 -7.559700 -19.076900
C -14.237400 -5.853200 -18.402500
N -14.181800 -4.533300 -18.541100
N -13.473300 -6.351200 -17.385700
N -13.298000 -4.180000 -17.549000
H -13.163400 -3.331300 -17.402900
C -12.902500 -5.251500 -16.875600
H -12.705800 -6.804700 -14.739900
C -12.043400 -6.139000 -14.721900
C -11.967300 -5.202100 -15.745600
H -11.186100 -6.722600 -12.983900
C -11.135300 -6.087600 -13.674800
C -10.983500 -4.222800 -15.698100
H -10.931500 -3.582800 -16.384800
C -10.157700 -5.113900 -13.636700
C -10.081700 -4.179000 -14.654600
H -9.547000 -5.086200 -12.922400
H -9.415900 -3.515300 -14.635700
40
Fragment
H -17.732700 -8.537400 -24.285100
H -17.490500 -7.262400 -22.006400
N -17.001600 -8.169500 -24.505800
N -16.930400 -6.832500 -22.542000
H -16.639800 -8.315700 -25.332300
C -16.491400 -7.177200 -23.768600
N -16.150100 -5.794800 -22.054600
N -15.478100 -6.390000 -24.126800
C -15.310000 -5.578100 -23.050300
H -14.627300 -3.882200 -21.128400
C -14.262500 -4.547900 -23.004500
C -14.078000 -3.758700 -21.881600
H -13.555100 -4.862400 -24.876200
C -13.439400 -4.341800 -24.102500
C -13.089300 -2.790000 -21.860000
H -12.978100 -2.255300 -21.094300
C -12.449300 -3.375200 -24.067900
C -12.268700 -2.602000 -22.947100
H -11.895700 -3.247100 -24.816400
H -11.590200 -1.951400 -22.923700
H -15.233000 -6.355200 -19.903700
N -15.055300 -6.649000 -19.165200
H -14.873900 -7.559700 -19.076900
C -14.237400 -5.853200 -18.402500
N -14.181800 -4.533300 -18.541100
N -13.473300 -6.351200 -17.385700
N -13.298000 -4.180000 -17.549000
H -13.163400 -3.331300 -17.402900
C -12.902500 -5.251500 -16.875600
H -12.705800 -6.804700 -14.739900
C -12.043400 -6.139000 -14.721900
C -11.967300 -5.202100 -15.745600
H -11.186100 -6.722600 -12.983900
C -11.135300 -6.087600 -13.674800
C -10.983500 -4.222800 -15.698100
H -10.931500 -3.582800 -16.384800
C -10.157700 -5.113900 -13.636700
C -10.081700 -4.179000 -14.654600
H -9.547000 -5.086200 -12.922400
H -9.415900 -3.515300 -14.635700
