20
Fragment
H -17.732700 -8.537400 -24.285100
H -17.490500 -7.262400 -22.006400
N -17.001600 -8.169500 -24.505800
N -16.930400 -6.832500 -22.542000
H -16.639800 -8.315700 -25.332300
C -16.491400 -7.177200 -23.768600
N -16.150100 -5.794800 -22.054600
N -15.478100 -6.390000 -24.126800
C -15.310000 -5.578100 -23.050300
H -14.627300 -3.882200 -21.128400
C -14.262500 -4.547900 -23.004500
C -14.078000 -3.758700 -21.881600
H -13.555100 -4.862400 -24.876200
C -13.439400 -4.341800 -24.102500
C -13.089300 -2.790000 -21.860000
H -12.978100 -2.255300 -21.094300
C -12.449300 -3.375200 -24.067900
C -12.268700 -2.602000 -22.947100
H -11.895700 -3.247100 -24.816400
H -11.590200 -1.951400 -22.923700
20
Fragment
H -17.732700 -3.497600 -24.285100
H -17.490500 -2.222600 -22.006400
N -17.001600 -3.129700 -24.505800
N -16.930400 -1.792700 -22.542000
H -16.639800 -3.275900 -25.332300
C -16.491400 -2.137400 -23.768600
N -16.150100 -0.755000 -22.054600
N -15.478100 -1.350200 -24.126800
C -15.310000 -0.538300 -23.050300
H -14.627300 1.157600 -21.128400
C -14.262500 0.491900 -23.004500
C -14.078000 1.281100 -21.881600
H -13.555100 0.177400 -24.876200
C -13.439400 0.698000 -24.102500
C -13.089300 2.249800 -21.860000
H -12.978100 2.784500 -21.094300
C -12.449300 1.664600 -24.067900
C -12.268700 2.437800 -22.947100
H -11.895700 1.792700 -24.816400
H -11.590200 3.088400 -22.923700
40
Fragment
H -17.732700 -8.537400 -24.285100
H -17.490500 -7.262400 -22.006400
N -17.001600 -8.169500 -24.505800
N -16.930400 -6.832500 -22.542000
H -16.639800 -8.315700 -25.332300
C -16.491400 -7.177200 -23.768600
N -16.150100 -5.794800 -22.054600
N -15.478100 -6.390000 -24.126800
C -15.310000 -5.578100 -23.050300
H -14.627300 -3.882200 -21.128400
C -14.262500 -4.547900 -23.004500
C -14.078000 -3.758700 -21.881600
H -13.555100 -4.862400 -24.876200
C -13.439400 -4.341800 -24.102500
C -13.089300 -2.790000 -21.860000
H -12.978100 -2.255300 -21.094300
C -12.449300 -3.375200 -24.067900
C -12.268700 -2.602000 -22.947100
H -11.895700 -3.247100 -24.816400
H -11.590200 -1.951400 -22.923700
H -17.732700 -3.497600 -24.285100
H -17.490500 -2.222600 -22.006400
N -17.001600 -3.129700 -24.505800
N -16.930400 -1.792700 -22.542000
H -16.639800 -3.275900 -25.332300
C -16.491400 -2.137400 -23.768600
N -16.150100 -0.755000 -22.054600
N -15.478100 -1.350200 -24.126800
C -15.310000 -0.538300 -23.050300
H -14.627300 1.157600 -21.128400
C -14.262500 0.491900 -23.004500
C -14.078000 1.281100 -21.881600
H -13.555100 0.177400 -24.876200
C -13.439400 0.698000 -24.102500
C -13.089300 2.249800 -21.860000
H -12.978100 2.784500 -21.094300
C -12.449300 1.664600 -24.067900
C -12.268700 2.437800 -22.947100
H -11.895700 1.792700 -24.816400
H -11.590200 3.088400 -22.923700
