20
Fragment
H -17.732700 -8.537400 -24.285100
H -17.490500 -7.262400 -22.006400
N -17.001600 -8.169500 -24.505800
N -16.930400 -6.832500 -22.542000
H -16.639800 -8.315700 -25.332300
C -16.491400 -7.177200 -23.768600
N -16.150100 -5.794800 -22.054600
N -15.478100 -6.390000 -24.126800
C -15.310000 -5.578100 -23.050300
H -14.627300 -3.882200 -21.128400
C -14.262500 -4.547900 -23.004500
C -14.078000 -3.758700 -21.881600
H -13.555100 -4.862400 -24.876200
C -13.439400 -4.341800 -24.102500
C -13.089300 -2.790000 -21.860000
H -12.978100 -2.255300 -21.094300
C -12.449300 -3.375200 -24.067900
C -12.268700 -2.602000 -22.947100
H -11.895700 -3.247100 -24.816400
H -11.590200 -1.951400 -22.923700
20
Fragment
H -19.501100 -8.128200 -28.321600
H -19.195500 -6.832500 -26.428900
C -18.822500 -7.477600 -28.298200
C -18.641900 -6.704400 -27.177400
H -18.113100 -7.824300 -30.151000
C -18.002000 -7.289600 -29.385300
C -17.651800 -5.737800 -27.142800
H -17.536100 -5.217200 -26.369100
C -17.013300 -6.320900 -29.363700
C -16.828700 -5.531700 -28.240800
H -16.463900 -6.197400 -30.116900
C -15.781200 -4.501500 -28.195000
N -15.613100 -3.689600 -27.118500
N -14.941100 -4.284800 -29.190700
C -14.599800 -2.902400 -27.476700
H -14.451400 -1.763900 -25.913000
N -14.160800 -3.247100 -28.703300
N -14.089600 -1.910100 -26.739500
H -13.600700 -2.817200 -29.238900
H -13.358500 -1.542200 -26.960200
40
Fragment
H -17.732700 -8.537400 -24.285100
H -17.490500 -7.262400 -22.006400
N -17.001600 -8.169500 -24.505800
N -16.930400 -6.832500 -22.542000
H -16.639800 -8.315700 -25.332300
C -16.491400 -7.177200 -23.768600
N -16.150100 -5.794800 -22.054600
N -15.478100 -6.390000 -24.126800
C -15.310000 -5.578100 -23.050300
H -14.627300 -3.882200 -21.128400
C -14.262500 -4.547900 -23.004500
C -14.078000 -3.758700 -21.881600
H -13.555100 -4.862400 -24.876200
C -13.439400 -4.341800 -24.102500
C -13.089300 -2.790000 -21.860000
H -12.978100 -2.255300 -21.094300
C -12.449300 -3.375200 -24.067900
C -12.268700 -2.602000 -22.947100
H -11.895700 -3.247100 -24.816400
H -11.590200 -1.951400 -22.923700
H -19.501100 -8.128200 -28.321600
H -19.195500 -6.832500 -26.428900
C -18.822500 -7.477600 -28.298200
C -18.641900 -6.704400 -27.177400
H -18.113100 -7.824300 -30.151000
C -18.002000 -7.289600 -29.385300
C -17.651800 -5.737800 -27.142800
H -17.536100 -5.217200 -26.369100
C -17.013300 -6.320900 -29.363700
C -16.828700 -5.531700 -28.240800
H -16.463900 -6.197400 -30.116900
C -15.781200 -4.501500 -28.195000
N -15.613100 -3.689600 -27.118500
N -14.941100 -4.284800 -29.190700
C -14.599800 -2.902400 -27.476700
H -14.451400 -1.763900 -25.913000
N -14.160800 -3.247100 -28.703300
N -14.089600 -1.910100 -26.739500
H -13.600700 -2.817200 -29.238900
H -13.358500 -1.542200 -26.960200
