20
Fragment
H -17.732700 -8.537400 -24.285100
H -17.490500 -7.262400 -22.006400
N -17.001600 -8.169500 -24.505800
N -16.930400 -6.832500 -22.542000
H -16.639800 -8.315700 -25.332300
C -16.491400 -7.177200 -23.768600
N -16.150100 -5.794800 -22.054600
N -15.478100 -6.390000 -24.126800
C -15.310000 -5.578100 -23.050300
H -14.627300 -3.882200 -21.128400
C -14.262500 -4.547900 -23.004500
C -14.078000 -3.758700 -21.881600
H -13.555100 -4.862400 -24.876200
C -13.439400 -4.341800 -24.102500
C -13.089300 -2.790000 -21.860000
H -12.978100 -2.255300 -21.094300
C -12.449300 -3.375200 -24.067900
C -12.268700 -2.602000 -22.947100
H -11.895700 -3.247100 -24.816400
H -11.590200 -1.951400 -22.923700
20
Fragment
H -25.401900 -6.035200 -28.068800
H -25.270800 -7.606100 -29.782100
C -24.736200 -6.698900 -28.049800
C -24.660100 -7.633800 -29.067700
H -23.886300 -6.102700 -26.319600
C -23.834400 -6.742700 -27.006300
C -23.682600 -8.607500 -29.029600
H -23.631800 -9.242500 -29.720600
C -22.850600 -7.722000 -26.958800
C -22.774500 -8.658900 -27.982500
H -22.112000 -9.324600 -27.964600
C -21.915400 -7.771400 -25.828800
H -21.654400 -5.851200 -25.301500
N -21.519900 -6.699900 -25.155500
N -21.344500 -8.871100 -25.318800
N -20.636100 -7.053200 -24.163400
C -20.580400 -8.373100 -24.301900
H -19.943900 -10.079600 -23.627500
N -19.762600 -9.168900 -23.539200
H -19.584900 -8.875100 -22.800700
40
Fragment
H -17.732700 -8.537400 -24.285100
H -17.490500 -7.262400 -22.006400
N -17.001600 -8.169500 -24.505800
N -16.930400 -6.832500 -22.542000
H -16.639800 -8.315700 -25.332300
C -16.491400 -7.177200 -23.768600
N -16.150100 -5.794800 -22.054600
N -15.478100 -6.390000 -24.126800
C -15.310000 -5.578100 -23.050300
H -14.627300 -3.882200 -21.128400
C -14.262500 -4.547900 -23.004500
C -14.078000 -3.758700 -21.881600
H -13.555100 -4.862400 -24.876200
C -13.439400 -4.341800 -24.102500
C -13.089300 -2.790000 -21.860000
H -12.978100 -2.255300 -21.094300
C -12.449300 -3.375200 -24.067900
C -12.268700 -2.602000 -22.947100
H -11.895700 -3.247100 -24.816400
H -11.590200 -1.951400 -22.923700
H -25.401900 -6.035200 -28.068800
H -25.270800 -7.606100 -29.782100
C -24.736200 -6.698900 -28.049800
C -24.660100 -7.633800 -29.067700
H -23.886300 -6.102700 -26.319600
C -23.834400 -6.742700 -27.006300
C -23.682600 -8.607500 -29.029600
H -23.631800 -9.242500 -29.720600
C -22.850600 -7.722000 -26.958800
C -22.774500 -8.658900 -27.982500
H -22.112000 -9.324600 -27.964600
C -21.915400 -7.771400 -25.828800
H -21.654400 -5.851200 -25.301500
N -21.519900 -6.699900 -25.155500
N -21.344500 -8.871100 -25.318800
N -20.636100 -7.053200 -24.163400
C -20.580400 -8.373100 -24.301900
H -19.943900 -10.079600 -23.627500
N -19.762600 -9.168900 -23.539200
H -19.584900 -8.875100 -22.800700
