20
Fragment
H -17.732700 -8.537400 -24.285100
H -17.490500 -7.262400 -22.006400
N -17.001600 -8.169500 -24.505800
N -16.930400 -6.832500 -22.542000
H -16.639800 -8.315700 -25.332300
C -16.491400 -7.177200 -23.768600
N -16.150100 -5.794800 -22.054600
N -15.478100 -6.390000 -24.126800
C -15.310000 -5.578100 -23.050300
H -14.627300 -3.882200 -21.128400
C -14.262500 -4.547900 -23.004500
C -14.078000 -3.758700 -21.881600
H -13.555100 -4.862400 -24.876200
C -13.439400 -4.341800 -24.102500
C -13.089300 -2.790000 -21.860000
H -12.978100 -2.255300 -21.094300
C -12.449300 -3.375200 -24.067900
C -12.268700 -2.602000 -22.947100
H -11.895700 -3.247100 -24.816400
H -11.590200 -1.951400 -22.923700
20
Fragment
H -23.227700 0.568500 -19.780700
H -22.922100 -0.727200 -17.888000
C -22.549100 -0.082100 -19.757300
C -22.368600 -0.855300 -18.636500
H -21.839700 0.264600 -21.610100
C -21.728600 -0.270100 -20.844400
C -21.378500 -1.821900 -18.601900
H -21.262700 -2.342500 -17.828200
C -20.739900 -1.238800 -20.822800
C -20.555300 -2.028000 -19.699900
H -20.190500 -1.362300 -21.576000
C -19.507900 -3.058200 -19.654100
N -19.339700 -3.870100 -18.577600
N -18.667700 -3.274900 -20.649800
C -18.326400 -4.657300 -18.935800
H -18.178100 -5.795800 -17.372200
N -17.887400 -4.312600 -20.162500
N -17.816200 -5.649600 -18.198600
H -17.327400 -4.742500 -20.698000
H -17.085100 -6.017500 -18.419300
40
Fragment
H -17.732700 -8.537400 -24.285100
H -17.490500 -7.262400 -22.006400
N -17.001600 -8.169500 -24.505800
N -16.930400 -6.832500 -22.542000
H -16.639800 -8.315700 -25.332300
C -16.491400 -7.177200 -23.768600
N -16.150100 -5.794800 -22.054600
N -15.478100 -6.390000 -24.126800
C -15.310000 -5.578100 -23.050300
H -14.627300 -3.882200 -21.128400
C -14.262500 -4.547900 -23.004500
C -14.078000 -3.758700 -21.881600
H -13.555100 -4.862400 -24.876200
C -13.439400 -4.341800 -24.102500
C -13.089300 -2.790000 -21.860000
H -12.978100 -2.255300 -21.094300
C -12.449300 -3.375200 -24.067900
C -12.268700 -2.602000 -22.947100
H -11.895700 -3.247100 -24.816400
H -11.590200 -1.951400 -22.923700
H -23.227700 0.568500 -19.780700
H -22.922100 -0.727200 -17.888000
C -22.549100 -0.082100 -19.757300
C -22.368600 -0.855300 -18.636500
H -21.839700 0.264600 -21.610100
C -21.728600 -0.270100 -20.844400
C -21.378500 -1.821900 -18.601900
H -21.262700 -2.342500 -17.828200
C -20.739900 -1.238800 -20.822800
C -20.555300 -2.028000 -19.699900
H -20.190500 -1.362300 -21.576000
C -19.507900 -3.058200 -19.654100
N -19.339700 -3.870100 -18.577600
N -18.667700 -3.274900 -20.649800
C -18.326400 -4.657300 -18.935800
H -18.178100 -5.795800 -17.372200
N -17.887400 -4.312600 -20.162500
N -17.816200 -5.649600 -18.198600
H -17.327400 -4.742500 -20.698000
H -17.085100 -6.017500 -18.419300
