16
Fragment
O -7.909000 -6.957600 -38.629400
H -7.349800 -8.641500 -37.275200
C -7.233600 -6.902600 -37.625400
H -7.207700 -4.525000 -38.730800
O -6.965500 -7.956900 -36.865700
C -6.746300 -4.487500 -37.923900
C -6.622700 -5.623000 -37.129700
H -6.251500 -2.527700 -38.022500
C -6.170900 -3.291100 -37.496900
C -5.951000 -5.570200 -35.917200
H -5.887000 -6.330600 -35.385200
C -5.479700 -3.228000 -36.299400
C -5.368700 -4.367800 -35.498100
H -5.090100 -2.427800 -36.029000
O -4.688000 -4.259500 -34.328400
H -4.677300 -5.066200 -33.876800
21
Fragment
H -7.878300 -1.458000 -33.306500
C -6.924900 -1.441000 -33.418000
H -6.705300 -0.952800 -34.214800
H -6.596200 -2.340100 -33.492800
O -6.361400 1.239600 -33.267900
N -6.306400 -0.786500 -32.256200
N -6.148200 -2.830400 -30.928700
C -6.033900 0.566700 -32.304700
C -5.972500 -1.488400 -31.130800
H -5.873700 3.063200 -31.425600
C -5.635000 -3.036900 -29.716500
H -5.619500 -3.870000 -29.303300
C -5.365900 -0.900000 -30.056100
N -5.359300 1.126000 -31.218900
N -5.142900 -1.918500 -29.150200
C -5.055000 2.569500 -31.330900
C -4.946000 0.465500 -30.065100
H -4.764900 -1.852600 -28.381200
H -4.594700 2.861700 -30.540400
H -4.500400 2.721300 -32.099300
O -4.288100 1.035900 -29.189200
37
Fragment
O -7.909000 -6.957600 -38.629400
H -7.349800 -8.641500 -37.275200
C -7.233600 -6.902600 -37.625400
H -7.207700 -4.525000 -38.730800
O -6.965500 -7.956900 -36.865700
C -6.746300 -4.487500 -37.923900
C -6.622700 -5.623000 -37.129700
H -6.251500 -2.527700 -38.022500
C -6.170900 -3.291100 -37.496900
C -5.951000 -5.570200 -35.917200
H -5.887000 -6.330600 -35.385200
C -5.479700 -3.228000 -36.299400
C -5.368700 -4.367800 -35.498100
H -5.090100 -2.427800 -36.029000
O -4.688000 -4.259500 -34.328400
H -4.677300 -5.066200 -33.876800
H -7.878300 -1.458000 -33.306500
C -6.924900 -1.441000 -33.418000
H -6.705300 -0.952800 -34.214800
H -6.596200 -2.340100 -33.492800
O -6.361400 1.239600 -33.267900
N -6.306400 -0.786500 -32.256200
N -6.148200 -2.830400 -30.928700
C -6.033900 0.566700 -32.304700
C -5.972500 -1.488400 -31.130800
H -5.873700 3.063200 -31.425600
C -5.635000 -3.036900 -29.716500
H -5.619500 -3.870000 -29.303300
C -5.365900 -0.900000 -30.056100
N -5.359300 1.126000 -31.218900
N -5.142900 -1.918500 -29.150200
C -5.055000 2.569500 -31.330900
C -4.946000 0.465500 -30.065100
H -4.764900 -1.852600 -28.381200
H -4.594700 2.861700 -30.540400
H -4.500400 2.721300 -32.099300
O -4.288100 1.035900 -29.189200
