16
Fragment
O -7.909000 -6.957600 -38.629400
H -7.349800 -8.641500 -37.275200
C -7.233600 -6.902600 -37.625400
H -7.207700 -4.525000 -38.730800
O -6.965500 -7.956900 -36.865700
C -6.746300 -4.487500 -37.923900
C -6.622700 -5.623000 -37.129700
H -6.251500 -2.527700 -38.022500
C -6.170900 -3.291100 -37.496900
C -5.951000 -5.570200 -35.917200
H -5.887000 -6.330600 -35.385200
C -5.479700 -3.228000 -36.299400
C -5.368700 -4.367800 -35.498100
H -5.090100 -2.427800 -36.029000
O -4.688000 -4.259500 -34.328400
H -4.677300 -5.066200 -33.876800
16
Fragment
H -9.445300 -2.186000 -42.209700
O -9.238800 -0.664400 -44.211800
H -9.003300 -0.071700 -44.858600
C -8.634200 -1.730700 -42.198700
C -8.326500 -0.828300 -43.211800
H -7.941100 -2.548700 -40.492100
C -7.729600 -1.949300 -41.171100
C -7.112900 -0.137700 -43.185600
H -6.912100 0.477600 -43.853800
C -6.509300 -1.281100 -41.144000
C -6.206100 -0.372200 -42.158200
H -5.901600 -1.439000 -40.457600
C -4.877600 0.326600 -42.113100
O -4.752900 1.288200 -43.022500
O -4.003200 0.026500 -41.335500
H -3.945800 1.639900 -42.931700
32
Fragment
O -7.909000 -6.957600 -38.629400
H -7.349800 -8.641500 -37.275200
C -7.233600 -6.902600 -37.625400
H -7.207700 -4.525000 -38.730800
O -6.965500 -7.956900 -36.865700
C -6.746300 -4.487500 -37.923900
C -6.622700 -5.623000 -37.129700
H -6.251500 -2.527700 -38.022500
C -6.170900 -3.291100 -37.496900
C -5.951000 -5.570200 -35.917200
H -5.887000 -6.330600 -35.385200
C -5.479700 -3.228000 -36.299400
C -5.368700 -4.367800 -35.498100
H -5.090100 -2.427800 -36.029000
O -4.688000 -4.259500 -34.328400
H -4.677300 -5.066200 -33.876800
H -9.445300 -2.186000 -42.209700
O -9.238800 -0.664400 -44.211800
H -9.003300 -0.071700 -44.858600
C -8.634200 -1.730700 -42.198700
C -8.326500 -0.828300 -43.211800
H -7.941100 -2.548700 -40.492100
C -7.729600 -1.949300 -41.171100
C -7.112900 -0.137700 -43.185600
H -6.912100 0.477600 -43.853800
C -6.509300 -1.281100 -41.144000
C -6.206100 -0.372200 -42.158200
H -5.901600 -1.439000 -40.457600
C -4.877600 0.326600 -42.113100
O -4.752900 1.288200 -43.022500
O -4.003200 0.026500 -41.335500
H -3.945800 1.639900 -42.931700
