16
Fragment
O -7.909000 -6.957600 -38.629400
H -7.349800 -8.641500 -37.275200
C -7.233600 -6.902600 -37.625400
H -7.207700 -4.525000 -38.730800
O -6.965500 -7.956900 -36.865700
C -6.746300 -4.487500 -37.923900
C -6.622700 -5.623000 -37.129700
H -6.251500 -2.527700 -38.022500
C -6.170900 -3.291100 -37.496900
C -5.951000 -5.570200 -35.917200
H -5.887000 -6.330600 -35.385200
C -5.479700 -3.228000 -36.299400
C -5.368700 -4.367800 -35.498100
H -5.090100 -2.427800 -36.029000
O -4.688000 -4.259500 -34.328400
H -4.677300 -5.066200 -33.876800
16
Fragment
H -15.268600 -10.163100 -42.209700
O -15.062000 -8.641500 -44.211800
H -14.826600 -8.048700 -44.858600
C -14.457500 -9.707700 -42.198700
C -14.149800 -8.805400 -43.211800
H -13.764400 -10.525800 -40.492100
C -13.552900 -9.926300 -41.171100
C -12.936200 -8.114800 -43.185600
H -12.735400 -7.499500 -43.853800
C -12.332600 -9.258200 -41.144000
C -12.029300 -8.349300 -42.158200
H -11.724900 -9.416100 -40.457600
C -10.700900 -7.650500 -42.113100
O -10.576200 -6.688900 -43.022500
O -9.826500 -7.950600 -41.335500
H -9.769100 -6.337200 -42.931700
32
Fragment
O -7.909000 -6.957600 -38.629400
H -7.349800 -8.641500 -37.275200
C -7.233600 -6.902600 -37.625400
H -7.207700 -4.525000 -38.730800
O -6.965500 -7.956900 -36.865700
C -6.746300 -4.487500 -37.923900
C -6.622700 -5.623000 -37.129700
H -6.251500 -2.527700 -38.022500
C -6.170900 -3.291100 -37.496900
C -5.951000 -5.570200 -35.917200
H -5.887000 -6.330600 -35.385200
C -5.479700 -3.228000 -36.299400
C -5.368700 -4.367800 -35.498100
H -5.090100 -2.427800 -36.029000
O -4.688000 -4.259500 -34.328400
H -4.677300 -5.066200 -33.876800
H -15.268600 -10.163100 -42.209700
O -15.062000 -8.641500 -44.211800
H -14.826600 -8.048700 -44.858600
C -14.457500 -9.707700 -42.198700
C -14.149800 -8.805400 -43.211800
H -13.764400 -10.525800 -40.492100
C -13.552900 -9.926300 -41.171100
C -12.936200 -8.114800 -43.185600
H -12.735400 -7.499500 -43.853800
C -12.332600 -9.258200 -41.144000
C -12.029300 -8.349300 -42.158200
H -11.724900 -9.416100 -40.457600
C -10.700900 -7.650500 -42.113100
O -10.576200 -6.688900 -43.022500
O -9.826500 -7.950600 -41.335500
H -9.769100 -6.337200 -42.931700
