16
Fragment
O -7.909000 -6.957600 -38.629400
H -7.349800 -8.641500 -37.275200
C -7.233600 -6.902600 -37.625400
H -7.207700 -4.525000 -38.730800
O -6.965500 -7.956900 -36.865700
C -6.746300 -4.487500 -37.923900
C -6.622700 -5.623000 -37.129700
H -6.251500 -2.527700 -38.022500
C -6.170900 -3.291100 -37.496900
C -5.951000 -5.570200 -35.917200
H -5.887000 -6.330600 -35.385200
C -5.479700 -3.228000 -36.299400
C -5.368700 -4.367800 -35.498100
H -5.090100 -2.427800 -36.029000
O -4.688000 -4.259500 -34.328400
H -4.677300 -5.066200 -33.876800
21
Fragment
O -10.023400 -13.988200 -39.792100
H -9.811100 -15.673600 -36.882100
H -9.716800 -15.814000 -38.441000
H -9.546600 -11.099700 -40.600100
C -9.365500 -13.417800 -38.916300
C -9.256500 -15.521800 -37.650500
N -9.168600 -11.033800 -39.831200
N -8.952200 -14.078200 -37.762500
C -8.945500 -12.052300 -38.925300
H -8.692000 -9.082300 -39.678100
C -8.676400 -9.915400 -39.264900
H -8.437800 -16.015500 -37.555800
C -8.338900 -11.463900 -37.850600
C -8.277500 -13.519000 -36.676700
N -8.163300 -10.121900 -38.052700
N -8.005100 -12.165800 -36.725200
O -7.950000 -14.191800 -35.713500
H -7.715300 -10.612200 -35.488600
H -7.606200 -11.999400 -34.766600
C -7.386600 -11.511300 -35.563400
H -6.433200 -11.494300 -35.674900
37
Fragment
O -7.909000 -6.957600 -38.629400
H -7.349800 -8.641500 -37.275200
C -7.233600 -6.902600 -37.625400
H -7.207700 -4.525000 -38.730800
O -6.965500 -7.956900 -36.865700
C -6.746300 -4.487500 -37.923900
C -6.622700 -5.623000 -37.129700
H -6.251500 -2.527700 -38.022500
C -6.170900 -3.291100 -37.496900
C -5.951000 -5.570200 -35.917200
H -5.887000 -6.330600 -35.385200
C -5.479700 -3.228000 -36.299400
C -5.368700 -4.367800 -35.498100
H -5.090100 -2.427800 -36.029000
O -4.688000 -4.259500 -34.328400
H -4.677300 -5.066200 -33.876800
O -10.023400 -13.988200 -39.792100
H -9.811100 -15.673600 -36.882100
H -9.716800 -15.814000 -38.441000
H -9.546600 -11.099700 -40.600100
C -9.365500 -13.417800 -38.916300
C -9.256500 -15.521800 -37.650500
N -9.168600 -11.033800 -39.831200
N -8.952200 -14.078200 -37.762500
C -8.945500 -12.052300 -38.925300
H -8.692000 -9.082300 -39.678100
C -8.676400 -9.915400 -39.264900
H -8.437800 -16.015500 -37.555800
C -8.338900 -11.463900 -37.850600
C -8.277500 -13.519000 -36.676700
N -8.163300 -10.121900 -38.052700
N -8.005100 -12.165800 -36.725200
O -7.950000 -14.191800 -35.713500
H -7.715300 -10.612200 -35.488600
H -7.606200 -11.999400 -34.766600
C -7.386600 -11.511300 -35.563400
H -6.433200 -11.494300 -35.674900
