17
Fragment
H -15.000900 -10.762700 -20.548400
O -14.390600 -11.225700 -20.256200
O -13.566300 -10.848100 -22.302400
C -13.461100 -11.369600 -21.190000
H -12.891900 -12.513600 -18.871600
C -12.317300 -12.182800 -20.787800
C -12.215400 -12.696000 -19.482200
H -11.971700 -11.630200 -23.132300
O -11.297900 -12.074500 -22.990600
C -11.287400 -12.476600 -21.704100
C -11.145400 -13.458000 -19.083800
H -11.095600 -13.782900 -18.214200
C -10.196900 -13.248700 -21.305300
C -10.127500 -13.739200 -20.010000
H -9.514500 -13.434800 -21.909300
O -9.111000 -14.516300 -19.584800
H -8.575800 -14.626000 -20.196600
17
Fragment
H -9.856400 -9.056000 -22.869600
O -9.321200 -9.165700 -23.481500
H -8.917700 -10.247200 -21.157000
C -8.304700 -9.942800 -23.056300
C -8.235300 -10.433300 -21.761000
H -7.336600 -9.899100 -24.852100
C -7.286800 -10.224000 -23.982500
C -7.144800 -11.205400 -21.362200
O -7.134300 -11.607500 -20.075600
H -6.460500 -12.051800 -19.933900
C -6.216800 -10.986000 -23.584100
C -6.114900 -11.499200 -22.278500
H -5.540300 -11.168400 -24.194600
C -4.971100 -12.312400 -21.876200
O -4.865900 -12.833900 -20.763800
O -4.041600 -12.456300 -22.810100
H -3.431300 -12.919300 -22.517900
34
Fragment
H -15.000900 -10.762700 -20.548400
O -14.390600 -11.225700 -20.256200
O -13.566300 -10.848100 -22.302400
C -13.461100 -11.369600 -21.190000
H -12.891900 -12.513600 -18.871600
C -12.317300 -12.182800 -20.787800
C -12.215400 -12.696000 -19.482200
H -11.971700 -11.630200 -23.132300
O -11.297900 -12.074500 -22.990600
C -11.287400 -12.476600 -21.704100
C -11.145400 -13.458000 -19.083800
H -11.095600 -13.782900 -18.214200
C -10.196900 -13.248700 -21.305300
C -10.127500 -13.739200 -20.010000
H -9.514500 -13.434800 -21.909300
O -9.111000 -14.516300 -19.584800
H -8.575800 -14.626000 -20.196600
H -9.856400 -9.056000 -22.869600
O -9.321200 -9.165700 -23.481500
H -8.917700 -10.247200 -21.157000
C -8.304700 -9.942800 -23.056300
C -8.235300 -10.433300 -21.761000
H -7.336600 -9.899100 -24.852100
C -7.286800 -10.224000 -23.982500
C -7.144800 -11.205400 -21.362200
O -7.134300 -11.607500 -20.075600
H -6.460500 -12.051800 -19.933900
C -6.216800 -10.986000 -23.584100
C -6.114900 -11.499200 -22.278500
H -5.540300 -11.168400 -24.194600
C -4.971100 -12.312400 -21.876200
O -4.865900 -12.833900 -20.763800
O -4.041600 -12.456300 -22.810100
H -3.431300 -12.919300 -22.517900
