17
Fragment
H -15.000900 -10.762700 -20.548400
O -14.390600 -11.225700 -20.256200
O -13.566300 -10.848100 -22.302400
C -13.461100 -11.369600 -21.190000
H -12.891900 -12.513600 -18.871600
C -12.317300 -12.182800 -20.787800
C -12.215400 -12.696000 -19.482200
H -11.971700 -11.630200 -23.132300
O -11.297900 -12.074500 -22.990600
C -11.287400 -12.476600 -21.704100
C -11.145400 -13.458000 -19.083800
H -11.095600 -13.782900 -18.214200
C -10.196900 -13.248700 -21.305300
C -10.127500 -13.739200 -20.010000
H -9.514500 -13.434800 -21.909300
O -9.111000 -14.516300 -19.584800
H -8.575800 -14.626000 -20.196600
21
Fragment
O -8.502500 -12.814400 -14.472900
H -8.460600 -12.527000 -17.463400
H -8.259300 -13.876100 -16.689600
H -8.078000 -11.048400 -12.579700
C -7.810600 -13.136700 -17.105900
C -7.456500 -12.293200 -14.832700
H -7.263700 -12.332800 -12.200700
H -7.251000 -13.460100 -17.816500
C -7.206300 -11.449600 -12.571300
N -6.983600 -12.442300 -16.109200
N -6.691800 -11.528200 -13.942700
H -6.613100 -10.915800 -12.037000
C -5.816800 -11.819200 -16.471800
C -5.534000 -10.812400 -14.257200
N -5.230900 -11.858800 -17.695800
C -5.121800 -11.026300 -15.591400
O -4.982800 -10.098900 -13.411800
C -4.170200 -11.060400 -17.546200
N -4.055600 -10.532900 -16.315800
H -3.566500 -10.885800 -18.231400
H -3.442900 -9.997000 -16.036400
38
Fragment
H -15.000900 -10.762700 -20.548400
O -14.390600 -11.225700 -20.256200
O -13.566300 -10.848100 -22.302400
C -13.461100 -11.369600 -21.190000
H -12.891900 -12.513600 -18.871600
C -12.317300 -12.182800 -20.787800
C -12.215400 -12.696000 -19.482200
H -11.971700 -11.630200 -23.132300
O -11.297900 -12.074500 -22.990600
C -11.287400 -12.476600 -21.704100
C -11.145400 -13.458000 -19.083800
H -11.095600 -13.782900 -18.214200
C -10.196900 -13.248700 -21.305300
C -10.127500 -13.739200 -20.010000
H -9.514500 -13.434800 -21.909300
O -9.111000 -14.516300 -19.584800
H -8.575800 -14.626000 -20.196600
O -8.502500 -12.814400 -14.472900
H -8.460600 -12.527000 -17.463400
H -8.259300 -13.876100 -16.689600
H -8.078000 -11.048400 -12.579700
C -7.810600 -13.136700 -17.105900
C -7.456500 -12.293200 -14.832700
H -7.263700 -12.332800 -12.200700
H -7.251000 -13.460100 -17.816500
C -7.206300 -11.449600 -12.571300
N -6.983600 -12.442300 -16.109200
N -6.691800 -11.528200 -13.942700
H -6.613100 -10.915800 -12.037000
C -5.816800 -11.819200 -16.471800
C -5.534000 -10.812400 -14.257200
N -5.230900 -11.858800 -17.695800
C -5.121800 -11.026300 -15.591400
O -4.982800 -10.098900 -13.411800
C -4.170200 -11.060400 -17.546200
N -4.055600 -10.532900 -16.315800
H -3.566500 -10.885800 -18.231400
H -3.442900 -9.997000 -16.036400
