17
Fragment
O -21.878400 -13.354400 -20.751800
H -21.755700 -13.264800 -19.945700
H -21.467800 -13.391100 -23.247500
C -20.738700 -13.046100 -21.421400
C -20.706300 -13.125500 -22.785300
O -19.714200 -12.527800 -19.390600
C -19.588700 -12.629000 -20.726000
C -19.546500 -12.812400 -23.491500
H -19.541300 -12.848400 -24.421400
H -19.003500 -12.276500 -19.068400
C -18.425500 -12.345800 -21.425500
C -18.411200 -12.451100 -22.813600
H -17.628900 -12.275200 -23.282600
O -17.264200 -11.778000 -19.446700
C -17.240700 -11.918600 -20.668100
O -16.157300 -11.704700 -21.381100
H -15.544500 -11.475800 -20.886400
17
Fragment
H -18.616100 -15.692200 -19.544100
O -18.003300 -15.463300 -19.049400
C -16.919900 -15.249400 -19.762400
O -16.896400 -15.390000 -20.983800
H -16.531700 -14.892800 -17.147900
C -15.749400 -14.716900 -17.616900
C -15.735100 -14.822200 -19.005000
H -15.157100 -14.891500 -21.362100
H -14.619300 -14.319600 -16.009100
C -14.614100 -14.355600 -16.939000
C -14.571900 -14.539000 -19.704500
O -14.446300 -14.640200 -21.039900
C -13.454300 -14.042500 -17.645200
C -13.421900 -14.121900 -19.009100
H -12.692800 -13.776900 -17.183000
H -12.404900 -13.903200 -20.484800
O -12.282200 -13.813600 -19.678700
34
Fragment
O -21.878400 -13.354400 -20.751800
H -21.755700 -13.264800 -19.945700
H -21.467800 -13.391100 -23.247500
C -20.738700 -13.046100 -21.421400
C -20.706300 -13.125500 -22.785300
O -19.714200 -12.527800 -19.390600
C -19.588700 -12.629000 -20.726000
C -19.546500 -12.812400 -23.491500
H -19.541300 -12.848400 -24.421400
H -19.003500 -12.276500 -19.068400
C -18.425500 -12.345800 -21.425500
C -18.411200 -12.451100 -22.813600
H -17.628900 -12.275200 -23.282600
O -17.264200 -11.778000 -19.446700
C -17.240700 -11.918600 -20.668100
O -16.157300 -11.704700 -21.381100
H -15.544500 -11.475800 -20.886400
H -18.616100 -15.692200 -19.544100
O -18.003300 -15.463300 -19.049400
C -16.919900 -15.249400 -19.762400
O -16.896400 -15.390000 -20.983800
H -16.531700 -14.892800 -17.147900
C -15.749400 -14.716900 -17.616900
C -15.735100 -14.822200 -19.005000
H -15.157100 -14.891500 -21.362100
H -14.619300 -14.319600 -16.009100
C -14.614100 -14.355600 -16.939000
C -14.571900 -14.539000 -19.704500
O -14.446300 -14.640200 -21.039900
C -13.454300 -14.042500 -17.645200
C -13.421900 -14.121900 -19.009100
H -12.692800 -13.776900 -17.183000
H -12.404900 -13.903200 -20.484800
O -12.282200 -13.813600 -19.678700
