17
Fragment
H -15.000900 -10.762700 -20.548400
O -14.390600 -11.225700 -20.256200
O -13.566300 -10.848100 -22.302400
C -13.461100 -11.369600 -21.190000
H -12.891900 -12.513600 -18.871600
C -12.317300 -12.182800 -20.787800
C -12.215400 -12.696000 -19.482200
H -11.971700 -11.630200 -23.132300
O -11.297900 -12.074500 -22.990600
C -11.287400 -12.476600 -21.704100
C -11.145400 -13.458000 -19.083800
H -11.095600 -13.782900 -18.214200
C -10.196900 -13.248700 -21.305300
C -10.127500 -13.739200 -20.010000
H -9.514500 -13.434800 -21.909300
O -9.111000 -14.516300 -19.584800
H -8.575800 -14.626000 -20.196600
21
Fragment
O -21.067500 -12.814400 -14.472900
H -21.025600 -12.527000 -17.463400
H -20.824300 -13.876100 -16.689600
H -20.643000 -11.048400 -12.579700
C -20.375600 -13.136700 -17.105900
C -20.021500 -12.293200 -14.832700
H -19.828700 -12.332800 -12.200700
H -19.816000 -13.460100 -17.816500
C -19.771300 -11.449600 -12.571300
N -19.548600 -12.442300 -16.109200
N -19.256800 -11.528200 -13.942700
H -19.178100 -10.915800 -12.037000
C -18.381800 -11.819200 -16.471800
C -18.099000 -10.812400 -14.257200
N -17.795900 -11.858800 -17.695800
C -17.686800 -11.026300 -15.591400
O -17.547800 -10.098900 -13.411800
C -16.735200 -11.060400 -17.546200
N -16.620600 -10.532900 -16.315800
H -16.131500 -10.885800 -18.231400
H -16.007900 -9.997000 -16.036400
38
Fragment
H -15.000900 -10.762700 -20.548400
O -14.390600 -11.225700 -20.256200
O -13.566300 -10.848100 -22.302400
C -13.461100 -11.369600 -21.190000
H -12.891900 -12.513600 -18.871600
C -12.317300 -12.182800 -20.787800
C -12.215400 -12.696000 -19.482200
H -11.971700 -11.630200 -23.132300
O -11.297900 -12.074500 -22.990600
C -11.287400 -12.476600 -21.704100
C -11.145400 -13.458000 -19.083800
H -11.095600 -13.782900 -18.214200
C -10.196900 -13.248700 -21.305300
C -10.127500 -13.739200 -20.010000
H -9.514500 -13.434800 -21.909300
O -9.111000 -14.516300 -19.584800
H -8.575800 -14.626000 -20.196600
O -21.067500 -12.814400 -14.472900
H -21.025600 -12.527000 -17.463400
H -20.824300 -13.876100 -16.689600
H -20.643000 -11.048400 -12.579700
C -20.375600 -13.136700 -17.105900
C -20.021500 -12.293200 -14.832700
H -19.828700 -12.332800 -12.200700
H -19.816000 -13.460100 -17.816500
C -19.771300 -11.449600 -12.571300
N -19.548600 -12.442300 -16.109200
N -19.256800 -11.528200 -13.942700
H -19.178100 -10.915800 -12.037000
C -18.381800 -11.819200 -16.471800
C -18.099000 -10.812400 -14.257200
N -17.795900 -11.858800 -17.695800
C -17.686800 -11.026300 -15.591400
O -17.547800 -10.098900 -13.411800
C -16.735200 -11.060400 -17.546200
N -16.620600 -10.532900 -16.315800
H -16.131500 -10.885800 -18.231400
H -16.007900 -9.997000 -16.036400
