17
Fragment
O -21.878400 -13.354400 -20.751800
H -21.755700 -13.264800 -19.945700
H -21.467800 -13.391100 -23.247500
C -20.738700 -13.046100 -21.421400
C -20.706300 -13.125500 -22.785300
O -19.714200 -12.527800 -19.390600
C -19.588700 -12.629000 -20.726000
C -19.546500 -12.812400 -23.491500
H -19.541300 -12.848400 -24.421400
H -19.003500 -12.276500 -19.068400
C -18.425500 -12.345800 -21.425500
C -18.411200 -12.451100 -22.813600
H -17.628900 -12.275200 -23.282600
O -17.264200 -11.778000 -19.446700
C -17.240700 -11.918600 -20.668100
O -16.157300 -11.704700 -21.381100
H -15.544500 -11.475800 -20.886400
21
Fragment
O -23.960700 -17.312100 -22.496300
H -23.750400 -16.296700 -20.284000
H -23.446400 -16.565000 -25.114100
H -23.146400 -18.091200 -24.918700
H -23.048700 -17.637500 -19.874300
C -22.903700 -16.723300 -20.129000
C -22.789600 -17.002400 -22.525200
C -22.757600 -17.215000 -24.959100
H -22.438100 -16.264800 -19.425500
H -22.117700 -17.180400 -25.674700
N -22.110000 -16.679800 -21.343900
N -22.089600 -16.922300 -23.699000
C -20.767100 -16.357200 -21.246200
C -20.765200 -16.578600 -23.658600
O -20.239800 -16.141900 -20.139900
C -20.136200 -16.307600 -22.491500
N -19.940200 -16.461100 -24.722700
N -18.847200 -16.000600 -22.840000
C -18.786300 -16.102500 -24.157200
H -18.206500 -15.784600 -22.308200
H -18.010700 -15.939500 -24.645100
38
Fragment
O -21.878400 -13.354400 -20.751800
H -21.755700 -13.264800 -19.945700
H -21.467800 -13.391100 -23.247500
C -20.738700 -13.046100 -21.421400
C -20.706300 -13.125500 -22.785300
O -19.714200 -12.527800 -19.390600
C -19.588700 -12.629000 -20.726000
C -19.546500 -12.812400 -23.491500
H -19.541300 -12.848400 -24.421400
H -19.003500 -12.276500 -19.068400
C -18.425500 -12.345800 -21.425500
C -18.411200 -12.451100 -22.813600
H -17.628900 -12.275200 -23.282600
O -17.264200 -11.778000 -19.446700
C -17.240700 -11.918600 -20.668100
O -16.157300 -11.704700 -21.381100
H -15.544500 -11.475800 -20.886400
O -23.960700 -17.312100 -22.496300
H -23.750400 -16.296700 -20.284000
H -23.446400 -16.565000 -25.114100
H -23.146400 -18.091200 -24.918700
H -23.048700 -17.637500 -19.874300
C -22.903700 -16.723300 -20.129000
C -22.789600 -17.002400 -22.525200
C -22.757600 -17.215000 -24.959100
H -22.438100 -16.264800 -19.425500
H -22.117700 -17.180400 -25.674700
N -22.110000 -16.679800 -21.343900
N -22.089600 -16.922300 -23.699000
C -20.767100 -16.357200 -21.246200
C -20.765200 -16.578600 -23.658600
O -20.239800 -16.141900 -20.139900
C -20.136200 -16.307600 -22.491500
N -19.940200 -16.461100 -24.722700
N -18.847200 -16.000600 -22.840000
C -18.786300 -16.102500 -24.157200
H -18.206500 -15.784600 -22.308200
H -18.010700 -15.939500 -24.645100
