17
Fragment
H -15.000900 -10.762700 -20.548400
O -14.390600 -11.225700 -20.256200
O -13.566300 -10.848100 -22.302400
C -13.461100 -11.369600 -21.190000
H -12.891900 -12.513600 -18.871600
C -12.317300 -12.182800 -20.787800
C -12.215400 -12.696000 -19.482200
H -11.971700 -11.630200 -23.132300
O -11.297900 -12.074500 -22.990600
C -11.287400 -12.476600 -21.704100
C -11.145400 -13.458000 -19.083800
H -11.095600 -13.782900 -18.214200
C -10.196900 -13.248700 -21.305300
C -10.127500 -13.739200 -20.010000
H -9.514500 -13.434800 -21.909300
O -9.111000 -14.516300 -19.584800
H -8.575800 -14.626000 -20.196600
21
Fragment
H -14.989300 -13.685000 -27.029800
H -14.865700 -12.796200 -24.834900
N -14.376600 -13.149100 -26.750500
C -14.262000 -12.621600 -25.520100
O -13.449400 -13.583100 -29.654400
C -13.310400 -12.655700 -27.474900
N -13.201300 -11.823200 -25.370500
C -12.898200 -12.869600 -28.809000
C -12.615400 -11.862800 -26.594400
H -11.819100 -12.766200 -31.029300
N -11.740400 -12.153800 -29.123600
N -11.448600 -11.239700 -26.957100
C -11.225900 -12.232400 -30.494900
H -11.181200 -10.221900 -25.249800
H -11.168500 -11.349200 -30.865600
C -10.975700 -11.388800 -28.233500
C -10.621600 -10.545300 -25.960400
H -10.354200 -12.633600 -30.486600
H -10.172900 -9.805900 -26.376700
H -9.971600 -11.155000 -25.602900
O -9.929700 -10.867600 -28.593400
38
Fragment
H -15.000900 -10.762700 -20.548400
O -14.390600 -11.225700 -20.256200
O -13.566300 -10.848100 -22.302400
C -13.461100 -11.369600 -21.190000
H -12.891900 -12.513600 -18.871600
C -12.317300 -12.182800 -20.787800
C -12.215400 -12.696000 -19.482200
H -11.971700 -11.630200 -23.132300
O -11.297900 -12.074500 -22.990600
C -11.287400 -12.476600 -21.704100
C -11.145400 -13.458000 -19.083800
H -11.095600 -13.782900 -18.214200
C -10.196900 -13.248700 -21.305300
C -10.127500 -13.739200 -20.010000
H -9.514500 -13.434800 -21.909300
O -9.111000 -14.516300 -19.584800
H -8.575800 -14.626000 -20.196600
H -14.989300 -13.685000 -27.029800
H -14.865700 -12.796200 -24.834900
N -14.376600 -13.149100 -26.750500
C -14.262000 -12.621600 -25.520100
O -13.449400 -13.583100 -29.654400
C -13.310400 -12.655700 -27.474900
N -13.201300 -11.823200 -25.370500
C -12.898200 -12.869600 -28.809000
C -12.615400 -11.862800 -26.594400
H -11.819100 -12.766200 -31.029300
N -11.740400 -12.153800 -29.123600
N -11.448600 -11.239700 -26.957100
C -11.225900 -12.232400 -30.494900
H -11.181200 -10.221900 -25.249800
H -11.168500 -11.349200 -30.865600
C -10.975700 -11.388800 -28.233500
C -10.621600 -10.545300 -25.960400
H -10.354200 -12.633600 -30.486600
H -10.172900 -9.805900 -26.376700
H -9.971600 -11.155000 -25.602900
O -9.929700 -10.867600 -28.593400
