17
Fragment
O -21.878400 -13.354400 -20.751800
H -21.755700 -13.264800 -19.945700
H -21.467800 -13.391100 -23.247500
C -20.738700 -13.046100 -21.421400
C -20.706300 -13.125500 -22.785300
O -19.714200 -12.527800 -19.390600
C -19.588700 -12.629000 -20.726000
C -19.546500 -12.812400 -23.491500
H -19.541300 -12.848400 -24.421400
H -19.003500 -12.276500 -19.068400
C -18.425500 -12.345800 -21.425500
C -18.411200 -12.451100 -22.813600
H -17.628900 -12.275200 -23.282600
O -17.264200 -11.778000 -19.446700
C -17.240700 -11.918600 -20.668100
O -16.157300 -11.704700 -21.381100
H -15.544500 -11.475800 -20.886400
21
Fragment
O -25.930800 -13.251900 -15.757900
H -25.720500 -14.267300 -13.545600
H -25.416500 -13.999000 -18.375700
H -25.116500 -12.472800 -18.180200
H -25.018800 -12.926500 -13.135900
C -24.873800 -13.840700 -13.390600
C -24.759600 -13.561600 -15.786800
C -24.727700 -13.349000 -18.220700
H -24.408100 -14.299200 -12.687100
H -24.087700 -13.383600 -18.936300
N -24.080100 -13.884200 -14.605500
N -24.059600 -13.641700 -16.960600
C -22.737200 -14.206800 -14.507800
C -22.735300 -13.985400 -16.920200
O -22.209800 -14.422100 -13.401500
C -22.106300 -14.256400 -15.753100
N -21.910200 -14.102900 -17.984300
N -20.817300 -14.563400 -16.101600
C -20.756400 -14.461500 -17.418800
H -20.176500 -14.779400 -15.569800
H -19.980700 -14.624500 -17.906700
38
Fragment
O -21.878400 -13.354400 -20.751800
H -21.755700 -13.264800 -19.945700
H -21.467800 -13.391100 -23.247500
C -20.738700 -13.046100 -21.421400
C -20.706300 -13.125500 -22.785300
O -19.714200 -12.527800 -19.390600
C -19.588700 -12.629000 -20.726000
C -19.546500 -12.812400 -23.491500
H -19.541300 -12.848400 -24.421400
H -19.003500 -12.276500 -19.068400
C -18.425500 -12.345800 -21.425500
C -18.411200 -12.451100 -22.813600
H -17.628900 -12.275200 -23.282600
O -17.264200 -11.778000 -19.446700
C -17.240700 -11.918600 -20.668100
O -16.157300 -11.704700 -21.381100
H -15.544500 -11.475800 -20.886400
O -25.930800 -13.251900 -15.757900
H -25.720500 -14.267300 -13.545600
H -25.416500 -13.999000 -18.375700
H -25.116500 -12.472800 -18.180200
H -25.018800 -12.926500 -13.135900
C -24.873800 -13.840700 -13.390600
C -24.759600 -13.561600 -15.786800
C -24.727700 -13.349000 -18.220700
H -24.408100 -14.299200 -12.687100
H -24.087700 -13.383600 -18.936300
N -24.080100 -13.884200 -14.605500
N -24.059600 -13.641700 -16.960600
C -22.737200 -14.206800 -14.507800
C -22.735300 -13.985400 -16.920200
O -22.209800 -14.422100 -13.401500
C -22.106300 -14.256400 -15.753100
N -21.910200 -14.102900 -17.984300
N -20.817300 -14.563400 -16.101600
C -20.756400 -14.461500 -17.418800
H -20.176500 -14.779400 -15.569800
H -19.980700 -14.624500 -17.906700
