17
Fragment
H -15.000900 -10.762700 -20.548400
O -14.390600 -11.225700 -20.256200
O -13.566300 -10.848100 -22.302400
C -13.461100 -11.369600 -21.190000
H -12.891900 -12.513600 -18.871600
C -12.317300 -12.182800 -20.787800
C -12.215400 -12.696000 -19.482200
H -11.971700 -11.630200 -23.132300
O -11.297900 -12.074500 -22.990600
C -11.287400 -12.476600 -21.704100
C -11.145400 -13.458000 -19.083800
H -11.095600 -13.782900 -18.214200
C -10.196900 -13.248700 -21.305300
C -10.127500 -13.739200 -20.010000
H -9.514500 -13.434800 -21.909300
O -9.111000 -14.516300 -19.584800
H -8.575800 -14.626000 -20.196600
21
Fragment
O -19.951200 -6.920600 -21.650600
H -19.909300 -7.208000 -24.641100
H -19.708000 -5.858900 -23.867300
H -19.526700 -8.686600 -19.757400
C -19.259200 -6.598300 -24.283600
C -18.905200 -7.441800 -22.010500
H -18.712400 -7.402200 -19.378400
H -18.699700 -6.274900 -24.994200
C -18.655000 -8.285400 -19.749000
N -18.432300 -7.292700 -23.286900
N -18.140500 -8.206800 -21.120400
H -18.061800 -8.819200 -19.214700
C -17.265500 -7.915800 -23.649600
C -16.982700 -8.922600 -21.434900
N -16.679600 -7.876200 -24.873500
C -16.570500 -8.708700 -22.769100
O -16.431500 -9.636100 -20.589600
C -15.618900 -8.674600 -24.723900
N -15.504300 -9.202100 -23.493500
H -15.015200 -8.849200 -25.409100
H -14.891600 -9.738000 -23.214200
38
Fragment
H -15.000900 -10.762700 -20.548400
O -14.390600 -11.225700 -20.256200
O -13.566300 -10.848100 -22.302400
C -13.461100 -11.369600 -21.190000
H -12.891900 -12.513600 -18.871600
C -12.317300 -12.182800 -20.787800
C -12.215400 -12.696000 -19.482200
H -11.971700 -11.630200 -23.132300
O -11.297900 -12.074500 -22.990600
C -11.287400 -12.476600 -21.704100
C -11.145400 -13.458000 -19.083800
H -11.095600 -13.782900 -18.214200
C -10.196900 -13.248700 -21.305300
C -10.127500 -13.739200 -20.010000
H -9.514500 -13.434800 -21.909300
O -9.111000 -14.516300 -19.584800
H -8.575800 -14.626000 -20.196600
O -19.951200 -6.920600 -21.650600
H -19.909300 -7.208000 -24.641100
H -19.708000 -5.858900 -23.867300
H -19.526700 -8.686600 -19.757400
C -19.259200 -6.598300 -24.283600
C -18.905200 -7.441800 -22.010500
H -18.712400 -7.402200 -19.378400
H -18.699700 -6.274900 -24.994200
C -18.655000 -8.285400 -19.749000
N -18.432300 -7.292700 -23.286900
N -18.140500 -8.206800 -21.120400
H -18.061800 -8.819200 -19.214700
C -17.265500 -7.915800 -23.649600
C -16.982700 -8.922600 -21.434900
N -16.679600 -7.876200 -24.873500
C -16.570500 -8.708700 -22.769100
O -16.431500 -9.636100 -20.589600
C -15.618900 -8.674600 -24.723900
N -15.504300 -9.202100 -23.493500
H -15.015200 -8.849200 -25.409100
H -14.891600 -9.738000 -23.214200
