34
Fragment
H -25.168700 -22.565300 -11.543000
H -25.029500 -20.650700 -10.237700
C -24.658900 -21.829100 -11.858900
C -24.572800 -20.677800 -11.070600
H -24.094000 -22.713700 -13.613100
C -24.028400 -21.930300 -13.078900
C -23.839700 -19.578300 -11.474000
H -23.791300 -18.795600 -10.938000
C -23.288200 -20.821200 -13.488600
C -23.171900 -19.659000 -12.699700
H -23.162600 -21.555100 -16.239100
N -22.508400 -20.594500 -14.600500
N -22.332500 -18.748400 -13.317000
C -22.329400 -21.502200 -15.726700
H -22.093400 -22.393400 -15.393600
C -21.956300 -19.352700 -14.434600
H -21.611200 -21.168500 -16.304600
N -21.070300 -18.883700 -15.410900
N -20.593400 -17.754100 -15.084700
H -20.084500 -15.803500 -13.942100
H -19.710400 -18.537400 -17.512700
C -19.672300 -17.190700 -15.973500
O -19.417500 -15.397900 -14.355000
C -19.299600 -17.734400 -17.213000
C -19.093000 -15.993100 -15.527200
H -18.465900 -18.493000 -19.530800
C -18.345800 -17.123200 -18.006300
C -18.117600 -15.379500 -16.319600
H -18.044900 -17.034700 -20.035800
C -17.921100 -17.703900 -19.331000
C -17.760100 -15.941900 -17.524200
H -17.702800 -14.576400 -16.027500
H -17.092200 -15.515000 -18.048500
H -16.976000 -17.960800 -19.286500
34
Fragment
H -27.508000 -31.873400 -11.543000
H -27.368800 -29.958700 -10.237700
C -26.998200 -31.137100 -11.858900
C -26.912100 -29.985800 -11.070600
H -26.433200 -32.021700 -13.613100
C -26.367700 -31.238400 -13.078900
C -26.179000 -28.886400 -11.474000
H -26.130500 -28.103600 -10.938000
C -25.627400 -30.129300 -13.488600
C -25.511100 -28.967100 -12.699700
H -25.501800 -30.863200 -16.239100
N -24.847700 -29.902500 -14.600500
N -24.671700 -28.056400 -13.317000
C -24.668700 -30.810300 -15.726700
H -24.432600 -31.701400 -15.393600
C -24.295500 -28.660800 -14.434600
H -23.950500 -30.476600 -16.304600
N -23.409500 -28.191700 -15.410900
N -22.932600 -27.062100 -15.084700
H -22.423700 -25.111600 -13.942100
H -22.049600 -27.845500 -17.512700
C -22.011600 -26.498800 -15.973500
O -21.756800 -24.705900 -14.355000
C -21.638900 -27.042400 -17.213000
C -21.432200 -25.301200 -15.527200
H -20.805200 -27.801100 -19.530800
C -20.685100 -26.431300 -18.006300
C -20.456800 -24.687600 -16.319600
H -20.384100 -26.342800 -20.035800
C -20.260400 -27.012000 -19.331000
C -20.099300 -25.250000 -17.524200
H -20.042000 -23.884500 -16.027500
H -19.431400 -24.823100 -18.048500
H -19.315200 -27.268900 -19.286500
68
Fragment
H -25.168700 -22.565300 -11.543000
H -25.029500 -20.650700 -10.237700
C -24.658900 -21.829100 -11.858900
C -24.572800 -20.677800 -11.070600
H -24.094000 -22.713700 -13.613100
C -24.028400 -21.930300 -13.078900
C -23.839700 -19.578300 -11.474000
H -23.791300 -18.795600 -10.938000
C -23.288200 -20.821200 -13.488600
C -23.171900 -19.659000 -12.699700
H -23.162600 -21.555100 -16.239100
N -22.508400 -20.594500 -14.600500
N -22.332500 -18.748400 -13.317000
C -22.329400 -21.502200 -15.726700
H -22.093400 -22.393400 -15.393600
C -21.956300 -19.352700 -14.434600
H -21.611200 -21.168500 -16.304600
N -21.070300 -18.883700 -15.410900
N -20.593400 -17.754100 -15.084700
H -20.084500 -15.803500 -13.942100
H -19.710400 -18.537400 -17.512700
C -19.672300 -17.190700 -15.973500
O -19.417500 -15.397900 -14.355000
C -19.299600 -17.734400 -17.213000
C -19.093000 -15.993100 -15.527200
H -18.465900 -18.493000 -19.530800
C -18.345800 -17.123200 -18.006300
C -18.117600 -15.379500 -16.319600
H -18.044900 -17.034700 -20.035800
C -17.921100 -17.703900 -19.331000
C -17.760100 -15.941900 -17.524200
H -17.702800 -14.576400 -16.027500
H -17.092200 -15.515000 -18.048500
H -16.976000 -17.960800 -19.286500
H -27.508000 -31.873400 -11.543000
H -27.368800 -29.958700 -10.237700
C -26.998200 -31.137100 -11.858900
C -26.912100 -29.985800 -11.070600
H -26.433200 -32.021700 -13.613100
C -26.367700 -31.238400 -13.078900
C -26.179000 -28.886400 -11.474000
H -26.130500 -28.103600 -10.938000
C -25.627400 -30.129300 -13.488600
C -25.511100 -28.967100 -12.699700
H -25.501800 -30.863200 -16.239100
N -24.847700 -29.902500 -14.600500
N -24.671700 -28.056400 -13.317000
C -24.668700 -30.810300 -15.726700
H -24.432600 -31.701400 -15.393600
C -24.295500 -28.660800 -14.434600
H -23.950500 -30.476600 -16.304600
N -23.409500 -28.191700 -15.410900
N -22.932600 -27.062100 -15.084700
H -22.423700 -25.111600 -13.942100
H -22.049600 -27.845500 -17.512700
C -22.011600 -26.498800 -15.973500
O -21.756800 -24.705900 -14.355000
C -21.638900 -27.042400 -17.213000
C -21.432200 -25.301200 -15.527200
H -20.805200 -27.801100 -19.530800
C -20.685100 -26.431300 -18.006300
C -20.456800 -24.687600 -16.319600
H -20.384100 -26.342800 -20.035800
C -20.260400 -27.012000 -19.331000
C -20.099300 -25.250000 -17.524200
H -20.042000 -23.884500 -16.027500
H -19.431400 -24.823100 -18.048500
H -19.315200 -27.268900 -19.286500
