34
Fragment
H -25.168700 -22.565300 -11.543000
H -25.029500 -20.650700 -10.237700
C -24.658900 -21.829100 -11.858900
C -24.572800 -20.677800 -11.070600
H -24.094000 -22.713700 -13.613100
C -24.028400 -21.930300 -13.078900
C -23.839700 -19.578300 -11.474000
H -23.791300 -18.795600 -10.938000
C -23.288200 -20.821200 -13.488600
C -23.171900 -19.659000 -12.699700
H -23.162600 -21.555100 -16.239100
N -22.508400 -20.594500 -14.600500
N -22.332500 -18.748400 -13.317000
C -22.329400 -21.502200 -15.726700
H -22.093400 -22.393400 -15.393600
C -21.956300 -19.352700 -14.434600
H -21.611200 -21.168500 -16.304600
N -21.070300 -18.883700 -15.410900
N -20.593400 -17.754100 -15.084700
H -20.084500 -15.803500 -13.942100
H -19.710400 -18.537400 -17.512700
C -19.672300 -17.190700 -15.973500
O -19.417500 -15.397900 -14.355000
C -19.299600 -17.734400 -17.213000
C -19.093000 -15.993100 -15.527200
H -18.465900 -18.493000 -19.530800
C -18.345800 -17.123200 -18.006300
C -18.117600 -15.379500 -16.319600
H -18.044900 -17.034700 -20.035800
C -17.921100 -17.703900 -19.331000
C -17.760100 -15.941900 -17.524200
H -17.702800 -14.576400 -16.027500
H -17.092200 -15.515000 -18.048500
H -16.976000 -17.960800 -19.286500
34
Fragment
H -30.995600 -25.485800 0.048100
H -30.879300 -27.931600 -1.189900
H -30.268800 -28.870100 -3.210900
C -30.211400 -27.504700 -1.714200
C -30.050400 -25.742600 0.092500
H -29.926700 -26.411900 0.797400
C -29.854000 -28.067100 -2.918900
C -29.625700 -26.323400 -1.232100
H -29.505600 -24.953500 0.292400
C -28.878600 -27.453500 -3.711200
C -28.671900 -25.712200 -2.025400
O -28.554000 -28.048700 -4.883400
C -28.299200 -26.255800 -3.265000
H -28.261100 -24.909200 -1.725700
H -27.887000 -27.643100 -5.296300
N -27.378100 -25.692500 -4.153700
N -26.901200 -24.562900 -3.827500
H -26.360300 -22.278000 -2.933900
C -26.015200 -24.093900 -4.803800
H -25.878100 -21.053200 -3.844800
C -25.642100 -21.944400 -3.511700
N -25.639100 -24.698200 -5.921400
N -25.463100 -22.852100 -4.637900
H -24.808900 -21.891500 -2.999300
C -24.799600 -23.787500 -6.538800
C -24.683300 -22.625300 -5.749800
H -24.180300 -24.651000 -8.300400
C -24.131800 -23.868300 -7.764400
C -23.943100 -21.516300 -6.159600
H -23.877600 -20.732900 -5.625300
C -23.398700 -22.768800 -8.167900
C -23.312600 -21.617500 -7.379500
H -22.942000 -22.795900 -9.000700
H -22.802800 -20.881300 -7.695400
68
Fragment
H -25.168700 -22.565300 -11.543000
H -25.029500 -20.650700 -10.237700
C -24.658900 -21.829100 -11.858900
C -24.572800 -20.677800 -11.070600
H -24.094000 -22.713700 -13.613100
C -24.028400 -21.930300 -13.078900
C -23.839700 -19.578300 -11.474000
H -23.791300 -18.795600 -10.938000
C -23.288200 -20.821200 -13.488600
C -23.171900 -19.659000 -12.699700
H -23.162600 -21.555100 -16.239100
N -22.508400 -20.594500 -14.600500
N -22.332500 -18.748400 -13.317000
C -22.329400 -21.502200 -15.726700
H -22.093400 -22.393400 -15.393600
C -21.956300 -19.352700 -14.434600
H -21.611200 -21.168500 -16.304600
N -21.070300 -18.883700 -15.410900
N -20.593400 -17.754100 -15.084700
H -20.084500 -15.803500 -13.942100
H -19.710400 -18.537400 -17.512700
C -19.672300 -17.190700 -15.973500
O -19.417500 -15.397900 -14.355000
C -19.299600 -17.734400 -17.213000
C -19.093000 -15.993100 -15.527200
H -18.465900 -18.493000 -19.530800
C -18.345800 -17.123200 -18.006300
C -18.117600 -15.379500 -16.319600
H -18.044900 -17.034700 -20.035800
C -17.921100 -17.703900 -19.331000
C -17.760100 -15.941900 -17.524200
H -17.702800 -14.576400 -16.027500
H -17.092200 -15.515000 -18.048500
H -16.976000 -17.960800 -19.286500
H -30.995600 -25.485800 0.048100
H -30.879300 -27.931600 -1.189900
H -30.268800 -28.870100 -3.210900
C -30.211400 -27.504700 -1.714200
C -30.050400 -25.742600 0.092500
H -29.926700 -26.411900 0.797400
C -29.854000 -28.067100 -2.918900
C -29.625700 -26.323400 -1.232100
H -29.505600 -24.953500 0.292400
C -28.878600 -27.453500 -3.711200
C -28.671900 -25.712200 -2.025400
O -28.554000 -28.048700 -4.883400
C -28.299200 -26.255800 -3.265000
H -28.261100 -24.909200 -1.725700
H -27.887000 -27.643100 -5.296300
N -27.378100 -25.692500 -4.153700
N -26.901200 -24.562900 -3.827500
H -26.360300 -22.278000 -2.933900
C -26.015200 -24.093900 -4.803800
H -25.878100 -21.053200 -3.844800
C -25.642100 -21.944400 -3.511700
N -25.639100 -24.698200 -5.921400
N -25.463100 -22.852100 -4.637900
H -24.808900 -21.891500 -2.999300
C -24.799600 -23.787500 -6.538800
C -24.683300 -22.625300 -5.749800
H -24.180300 -24.651000 -8.300400
C -24.131800 -23.868300 -7.764400
C -23.943100 -21.516300 -6.159600
H -23.877600 -20.732900 -5.625300
C -23.398700 -22.768800 -8.167900
C -23.312600 -21.617500 -7.379500
H -22.942000 -22.795900 -9.000700
H -22.802800 -20.881300 -7.695400
