34
Fragment
H -25.168700 -22.565300 -11.543000
H -25.029500 -20.650700 -10.237700
C -24.658900 -21.829100 -11.858900
C -24.572800 -20.677800 -11.070600
H -24.094000 -22.713700 -13.613100
C -24.028400 -21.930300 -13.078900
C -23.839700 -19.578300 -11.474000
H -23.791300 -18.795600 -10.938000
C -23.288200 -20.821200 -13.488600
C -23.171900 -19.659000 -12.699700
H -23.162600 -21.555100 -16.239100
N -22.508400 -20.594500 -14.600500
N -22.332500 -18.748400 -13.317000
C -22.329400 -21.502200 -15.726700
H -22.093400 -22.393400 -15.393600
C -21.956300 -19.352700 -14.434600
H -21.611200 -21.168500 -16.304600
N -21.070300 -18.883700 -15.410900
N -20.593400 -17.754100 -15.084700
H -20.084500 -15.803500 -13.942100
H -19.710400 -18.537400 -17.512700
C -19.672300 -17.190700 -15.973500
O -19.417500 -15.397900 -14.355000
C -19.299600 -17.734400 -17.213000
C -19.093000 -15.993100 -15.527200
H -18.465900 -18.493000 -19.530800
C -18.345800 -17.123200 -18.006300
C -18.117600 -15.379500 -16.319600
H -18.044900 -17.034700 -20.035800
C -17.921100 -17.703900 -19.331000
C -17.760100 -15.941900 -17.524200
H -17.702800 -14.576400 -16.027500
H -17.092200 -15.515000 -18.048500
H -16.976000 -17.960800 -19.286500
34
Fragment
H -19.081300 -9.976800 -9.571100
H -18.965000 -12.422600 -10.809100
H -18.354500 -13.361200 -12.830100
C -18.297200 -11.995700 -11.333400
C -18.136100 -10.233700 -9.526700
H -18.012400 -10.902900 -8.821800
C -17.939700 -12.558100 -12.538100
C -17.711400 -10.814400 -10.851300
H -17.591300 -9.444600 -9.326800
C -16.964300 -11.944500 -13.330400
C -16.757600 -10.203200 -11.644600
O -16.639700 -12.539700 -14.502600
C -16.384900 -10.746900 -12.884200
H -16.346900 -9.400200 -11.344900
H -15.972800 -12.134100 -14.915500
N -15.463800 -10.183600 -13.772900
N -14.986900 -9.053900 -13.446700
H -14.446000 -6.769100 -12.553100
C -14.100900 -8.584900 -14.423000
H -13.963900 -5.544300 -13.464000
C -13.727800 -6.435400 -13.130900
N -13.724800 -9.189200 -15.540600
N -13.548800 -7.343200 -14.257100
H -12.894700 -6.382500 -12.618500
C -12.885300 -8.278600 -16.158000
C -12.769000 -7.116400 -15.369000
H -12.266000 -9.142000 -17.919600
C -12.217500 -8.359300 -17.383600
C -12.028800 -6.007300 -15.778800
H -11.963300 -5.224000 -15.244500
C -11.484400 -7.259900 -17.787100
C -11.398300 -6.108500 -16.998700
H -11.027700 -7.287000 -18.619900
H -10.888500 -5.372300 -17.314600
68
Fragment
H -25.168700 -22.565300 -11.543000
H -25.029500 -20.650700 -10.237700
C -24.658900 -21.829100 -11.858900
C -24.572800 -20.677800 -11.070600
H -24.094000 -22.713700 -13.613100
C -24.028400 -21.930300 -13.078900
C -23.839700 -19.578300 -11.474000
H -23.791300 -18.795600 -10.938000
C -23.288200 -20.821200 -13.488600
C -23.171900 -19.659000 -12.699700
H -23.162600 -21.555100 -16.239100
N -22.508400 -20.594500 -14.600500
N -22.332500 -18.748400 -13.317000
C -22.329400 -21.502200 -15.726700
H -22.093400 -22.393400 -15.393600
C -21.956300 -19.352700 -14.434600
H -21.611200 -21.168500 -16.304600
N -21.070300 -18.883700 -15.410900
N -20.593400 -17.754100 -15.084700
H -20.084500 -15.803500 -13.942100
H -19.710400 -18.537400 -17.512700
C -19.672300 -17.190700 -15.973500
O -19.417500 -15.397900 -14.355000
C -19.299600 -17.734400 -17.213000
C -19.093000 -15.993100 -15.527200
H -18.465900 -18.493000 -19.530800
C -18.345800 -17.123200 -18.006300
C -18.117600 -15.379500 -16.319600
H -18.044900 -17.034700 -20.035800
C -17.921100 -17.703900 -19.331000
C -17.760100 -15.941900 -17.524200
H -17.702800 -14.576400 -16.027500
H -17.092200 -15.515000 -18.048500
H -16.976000 -17.960800 -19.286500
H -19.081300 -9.976800 -9.571100
H -18.965000 -12.422600 -10.809100
H -18.354500 -13.361200 -12.830100
C -18.297200 -11.995700 -11.333400
C -18.136100 -10.233700 -9.526700
H -18.012400 -10.902900 -8.821800
C -17.939700 -12.558100 -12.538100
C -17.711400 -10.814400 -10.851300
H -17.591300 -9.444600 -9.326800
C -16.964300 -11.944500 -13.330400
C -16.757600 -10.203200 -11.644600
O -16.639700 -12.539700 -14.502600
C -16.384900 -10.746900 -12.884200
H -16.346900 -9.400200 -11.344900
H -15.972800 -12.134100 -14.915500
N -15.463800 -10.183600 -13.772900
N -14.986900 -9.053900 -13.446700
H -14.446000 -6.769100 -12.553100
C -14.100900 -8.584900 -14.423000
H -13.963900 -5.544300 -13.464000
C -13.727800 -6.435400 -13.130900
N -13.724800 -9.189200 -15.540600
N -13.548800 -7.343200 -14.257100
H -12.894700 -6.382500 -12.618500
C -12.885300 -8.278600 -16.158000
C -12.769000 -7.116400 -15.369000
H -12.266000 -9.142000 -17.919600
C -12.217500 -8.359300 -17.383600
C -12.028800 -6.007300 -15.778800
H -11.963300 -5.224000 -15.244500
C -11.484400 -7.259900 -17.787100
C -11.398300 -6.108500 -16.998700
H -11.027700 -7.287000 -18.619900
H -10.888500 -5.372300 -17.314600
