34
Fragment
H -25.168700 -22.565300 -11.543000
H -25.029500 -20.650700 -10.237700
C -24.658900 -21.829100 -11.858900
C -24.572800 -20.677800 -11.070600
H -24.094000 -22.713700 -13.613100
C -24.028400 -21.930300 -13.078900
C -23.839700 -19.578300 -11.474000
H -23.791300 -18.795600 -10.938000
C -23.288200 -20.821200 -13.488600
C -23.171900 -19.659000 -12.699700
H -23.162600 -21.555100 -16.239100
N -22.508400 -20.594500 -14.600500
N -22.332500 -18.748400 -13.317000
C -22.329400 -21.502200 -15.726700
H -22.093400 -22.393400 -15.393600
C -21.956300 -19.352700 -14.434600
H -21.611200 -21.168500 -16.304600
N -21.070300 -18.883700 -15.410900
N -20.593400 -17.754100 -15.084700
H -20.084500 -15.803500 -13.942100
H -19.710400 -18.537400 -17.512700
C -19.672300 -17.190700 -15.973500
O -19.417500 -15.397900 -14.355000
C -19.299600 -17.734400 -17.213000
C -19.093000 -15.993100 -15.527200
H -18.465900 -18.493000 -19.530800
C -18.345800 -17.123200 -18.006300
C -18.117600 -15.379500 -16.319600
H -18.044900 -17.034700 -20.035800
C -17.921100 -17.703900 -19.331000
C -17.760100 -15.941900 -17.524200
H -17.702800 -14.576400 -16.027500
H -17.092200 -15.515000 -18.048500
H -16.976000 -17.960800 -19.286500
34
Fragment
H -32.607500 -28.592900 -9.571100
H -32.491200 -31.038700 -10.809100
H -31.880700 -31.977300 -12.830100
C -31.823300 -30.611800 -11.333400
C -31.662300 -28.849800 -9.526700
H -31.538600 -29.519000 -8.821800
C -31.465900 -31.174300 -12.538100
C -31.237600 -29.430500 -10.851300
H -31.117500 -28.060700 -9.326800
C -30.490500 -30.560600 -13.330400
C -30.283800 -28.819400 -11.644600
O -30.165900 -31.155900 -14.502600
C -29.911100 -29.363000 -12.884200
H -29.873000 -28.016300 -11.344900
H -29.498900 -30.750200 -14.915500
N -28.990000 -28.799700 -13.772900
N -28.513100 -27.670100 -13.446700
H -27.972200 -25.385200 -12.553100
C -27.627100 -27.201100 -14.423000
H -27.490000 -24.160400 -13.464000
C -27.254000 -25.051500 -13.130900
N -27.251000 -27.805400 -15.540600
N -27.075000 -25.959300 -14.257100
H -26.420800 -24.998600 -12.618500
C -26.411500 -26.894700 -16.158000
C -26.295200 -25.732500 -15.369000
H -25.792100 -27.758200 -17.919600
C -25.743700 -26.975400 -17.383600
C -25.555000 -24.623400 -15.778800
H -25.489500 -23.840100 -15.244500
C -25.010600 -25.876000 -17.787100
C -24.924500 -24.724700 -16.998700
H -24.553900 -25.903100 -18.619900
H -24.414700 -23.988400 -17.314600
68
Fragment
H -25.168700 -22.565300 -11.543000
H -25.029500 -20.650700 -10.237700
C -24.658900 -21.829100 -11.858900
C -24.572800 -20.677800 -11.070600
H -24.094000 -22.713700 -13.613100
C -24.028400 -21.930300 -13.078900
C -23.839700 -19.578300 -11.474000
H -23.791300 -18.795600 -10.938000
C -23.288200 -20.821200 -13.488600
C -23.171900 -19.659000 -12.699700
H -23.162600 -21.555100 -16.239100
N -22.508400 -20.594500 -14.600500
N -22.332500 -18.748400 -13.317000
C -22.329400 -21.502200 -15.726700
H -22.093400 -22.393400 -15.393600
C -21.956300 -19.352700 -14.434600
H -21.611200 -21.168500 -16.304600
N -21.070300 -18.883700 -15.410900
N -20.593400 -17.754100 -15.084700
H -20.084500 -15.803500 -13.942100
H -19.710400 -18.537400 -17.512700
C -19.672300 -17.190700 -15.973500
O -19.417500 -15.397900 -14.355000
C -19.299600 -17.734400 -17.213000
C -19.093000 -15.993100 -15.527200
H -18.465900 -18.493000 -19.530800
C -18.345800 -17.123200 -18.006300
C -18.117600 -15.379500 -16.319600
H -18.044900 -17.034700 -20.035800
C -17.921100 -17.703900 -19.331000
C -17.760100 -15.941900 -17.524200
H -17.702800 -14.576400 -16.027500
H -17.092200 -15.515000 -18.048500
H -16.976000 -17.960800 -19.286500
H -32.607500 -28.592900 -9.571100
H -32.491200 -31.038700 -10.809100
H -31.880700 -31.977300 -12.830100
C -31.823300 -30.611800 -11.333400
C -31.662300 -28.849800 -9.526700
H -31.538600 -29.519000 -8.821800
C -31.465900 -31.174300 -12.538100
C -31.237600 -29.430500 -10.851300
H -31.117500 -28.060700 -9.326800
C -30.490500 -30.560600 -13.330400
C -30.283800 -28.819400 -11.644600
O -30.165900 -31.155900 -14.502600
C -29.911100 -29.363000 -12.884200
H -29.873000 -28.016300 -11.344900
H -29.498900 -30.750200 -14.915500
N -28.990000 -28.799700 -13.772900
N -28.513100 -27.670100 -13.446700
H -27.972200 -25.385200 -12.553100
C -27.627100 -27.201100 -14.423000
H -27.490000 -24.160400 -13.464000
C -27.254000 -25.051500 -13.130900
N -27.251000 -27.805400 -15.540600
N -27.075000 -25.959300 -14.257100
H -26.420800 -24.998600 -12.618500
C -26.411500 -26.894700 -16.158000
C -26.295200 -25.732500 -15.369000
H -25.792100 -27.758200 -17.919600
C -25.743700 -26.975400 -17.383600
C -25.555000 -24.623400 -15.778800
H -25.489500 -23.840100 -15.244500
C -25.010600 -25.876000 -17.787100
C -24.924500 -24.724700 -16.998700
H -24.553900 -25.903100 -18.619900
H -24.414700 -23.988400 -17.314600
