34
Fragment
H -25.168700 -22.565300 -11.543000
H -25.029500 -20.650700 -10.237700
C -24.658900 -21.829100 -11.858900
C -24.572800 -20.677800 -11.070600
H -24.094000 -22.713700 -13.613100
C -24.028400 -21.930300 -13.078900
C -23.839700 -19.578300 -11.474000
H -23.791300 -18.795600 -10.938000
C -23.288200 -20.821200 -13.488600
C -23.171900 -19.659000 -12.699700
H -23.162600 -21.555100 -16.239100
N -22.508400 -20.594500 -14.600500
N -22.332500 -18.748400 -13.317000
C -22.329400 -21.502200 -15.726700
H -22.093400 -22.393400 -15.393600
C -21.956300 -19.352700 -14.434600
H -21.611200 -21.168500 -16.304600
N -21.070300 -18.883700 -15.410900
N -20.593400 -17.754100 -15.084700
H -20.084500 -15.803500 -13.942100
H -19.710400 -18.537400 -17.512700
C -19.672300 -17.190700 -15.973500
O -19.417500 -15.397900 -14.355000
C -19.299600 -17.734400 -17.213000
C -19.093000 -15.993100 -15.527200
H -18.465900 -18.493000 -19.530800
C -18.345800 -17.123200 -18.006300
C -18.117600 -15.379500 -16.319600
H -18.044900 -17.034700 -20.035800
C -17.921100 -17.703900 -19.331000
C -17.760100 -15.941900 -17.524200
H -17.702800 -14.576400 -16.027500
H -17.092200 -15.515000 -18.048500
H -16.976000 -17.960800 -19.286500
34
Fragment
H -30.268200 -19.284900 -9.571100
H -30.152000 -21.730700 -10.809100
H -29.541400 -22.669200 -12.830100
C -29.484100 -21.303800 -11.333400
C -29.323100 -19.541700 -9.526700
H -29.199300 -20.211000 -8.821800
C -29.126600 -21.866200 -12.538100
C -28.898400 -20.122500 -10.851300
H -28.778300 -18.752600 -9.326800
C -28.151200 -21.252600 -13.330400
C -27.944600 -19.511300 -11.644600
O -27.826600 -21.847800 -14.502600
C -27.571800 -20.054900 -12.884200
H -27.533800 -18.708300 -11.344900
H -27.159700 -21.442200 -14.915500
N -26.650800 -19.491600 -13.772900
N -26.173900 -18.362000 -13.446700
H -25.633000 -16.077100 -12.553100
C -25.287900 -17.893000 -14.423000
H -25.150800 -14.852300 -13.464000
C -24.914700 -15.743500 -13.130900
N -24.911700 -18.497300 -15.540600
N -24.735800 -16.651200 -14.257100
H -24.081600 -15.690600 -12.618500
C -24.072300 -17.586600 -16.158000
C -23.956000 -16.424400 -15.369000
H -23.452900 -18.450100 -17.919600
C -23.404500 -17.667400 -17.383600
C -23.215800 -15.315400 -15.778800
H -23.150200 -14.532000 -15.244500
C -22.671300 -16.567900 -17.787100
C -22.585300 -15.416600 -16.998700
H -22.214600 -16.595000 -18.619900
H -22.075500 -14.680400 -17.314600
68
Fragment
H -25.168700 -22.565300 -11.543000
H -25.029500 -20.650700 -10.237700
C -24.658900 -21.829100 -11.858900
C -24.572800 -20.677800 -11.070600
H -24.094000 -22.713700 -13.613100
C -24.028400 -21.930300 -13.078900
C -23.839700 -19.578300 -11.474000
H -23.791300 -18.795600 -10.938000
C -23.288200 -20.821200 -13.488600
C -23.171900 -19.659000 -12.699700
H -23.162600 -21.555100 -16.239100
N -22.508400 -20.594500 -14.600500
N -22.332500 -18.748400 -13.317000
C -22.329400 -21.502200 -15.726700
H -22.093400 -22.393400 -15.393600
C -21.956300 -19.352700 -14.434600
H -21.611200 -21.168500 -16.304600
N -21.070300 -18.883700 -15.410900
N -20.593400 -17.754100 -15.084700
H -20.084500 -15.803500 -13.942100
H -19.710400 -18.537400 -17.512700
C -19.672300 -17.190700 -15.973500
O -19.417500 -15.397900 -14.355000
C -19.299600 -17.734400 -17.213000
C -19.093000 -15.993100 -15.527200
H -18.465900 -18.493000 -19.530800
C -18.345800 -17.123200 -18.006300
C -18.117600 -15.379500 -16.319600
H -18.044900 -17.034700 -20.035800
C -17.921100 -17.703900 -19.331000
C -17.760100 -15.941900 -17.524200
H -17.702800 -14.576400 -16.027500
H -17.092200 -15.515000 -18.048500
H -16.976000 -17.960800 -19.286500
H -30.268200 -19.284900 -9.571100
H -30.152000 -21.730700 -10.809100
H -29.541400 -22.669200 -12.830100
C -29.484100 -21.303800 -11.333400
C -29.323100 -19.541700 -9.526700
H -29.199300 -20.211000 -8.821800
C -29.126600 -21.866200 -12.538100
C -28.898400 -20.122500 -10.851300
H -28.778300 -18.752600 -9.326800
C -28.151200 -21.252600 -13.330400
C -27.944600 -19.511300 -11.644600
O -27.826600 -21.847800 -14.502600
C -27.571800 -20.054900 -12.884200
H -27.533800 -18.708300 -11.344900
H -27.159700 -21.442200 -14.915500
N -26.650800 -19.491600 -13.772900
N -26.173900 -18.362000 -13.446700
H -25.633000 -16.077100 -12.553100
C -25.287900 -17.893000 -14.423000
H -25.150800 -14.852300 -13.464000
C -24.914700 -15.743500 -13.130900
N -24.911700 -18.497300 -15.540600
N -24.735800 -16.651200 -14.257100
H -24.081600 -15.690600 -12.618500
C -24.072300 -17.586600 -16.158000
C -23.956000 -16.424400 -15.369000
H -23.452900 -18.450100 -17.919600
C -23.404500 -17.667400 -17.383600
C -23.215800 -15.315400 -15.778800
H -23.150200 -14.532000 -15.244500
C -22.671300 -16.567900 -17.787100
C -22.585300 -15.416600 -16.998700
H -22.214600 -16.595000 -18.619900
H -22.075500 -14.680400 -17.314600
