34
Fragment
H -25.168700 -22.565300 -11.543000
H -25.029500 -20.650700 -10.237700
C -24.658900 -21.829100 -11.858900
C -24.572800 -20.677800 -11.070600
H -24.094000 -22.713700 -13.613100
C -24.028400 -21.930300 -13.078900
C -23.839700 -19.578300 -11.474000
H -23.791300 -18.795600 -10.938000
C -23.288200 -20.821200 -13.488600
C -23.171900 -19.659000 -12.699700
H -23.162600 -21.555100 -16.239100
N -22.508400 -20.594500 -14.600500
N -22.332500 -18.748400 -13.317000
C -22.329400 -21.502200 -15.726700
H -22.093400 -22.393400 -15.393600
C -21.956300 -19.352700 -14.434600
H -21.611200 -21.168500 -16.304600
N -21.070300 -18.883700 -15.410900
N -20.593400 -17.754100 -15.084700
H -20.084500 -15.803500 -13.942100
H -19.710400 -18.537400 -17.512700
C -19.672300 -17.190700 -15.973500
O -19.417500 -15.397900 -14.355000
C -19.299600 -17.734400 -17.213000
C -19.093000 -15.993100 -15.527200
H -18.465900 -18.493000 -19.530800
C -18.345800 -17.123200 -18.006300
C -18.117600 -15.379500 -16.319600
H -18.044900 -17.034700 -20.035800
C -17.921100 -17.703900 -19.331000
C -17.760100 -15.941900 -17.524200
H -17.702800 -14.576400 -16.027500
H -17.092200 -15.515000 -18.048500
H -16.976000 -17.960800 -19.286500
34
Fragment
H -34.743800 -28.766200 -1.923800
H -34.604600 -26.851600 -0.618500
C -34.234000 -28.030000 -2.239700
C -34.147900 -26.878700 -1.451300
H -33.669000 -28.914600 -3.993900
C -33.603500 -28.131200 -3.459600
C -33.414800 -25.779200 -1.854800
H -33.366300 -24.996500 -1.318800
C -32.863300 -27.022100 -3.869400
C -32.746900 -25.859900 -3.080500
H -32.737600 -27.756000 -6.619900
N -32.083500 -26.795400 -4.981300
N -31.907500 -24.949300 -3.697800
C -31.904500 -27.703100 -6.107500
H -31.668400 -28.594300 -5.774400
C -31.531300 -25.553600 -4.815400
H -31.186300 -27.369400 -6.685300
N -30.645400 -25.084600 -5.791700
N -30.168500 -23.954900 -5.465500
H -29.659500 -22.004400 -4.322900
H -29.285400 -24.738300 -7.893500
C -29.247400 -23.391600 -6.354300
O -28.992600 -21.598800 -4.735800
C -28.874700 -23.935300 -7.593800
C -28.668000 -22.194000 -5.908000
H -28.041000 -24.693900 -9.911600
C -27.920900 -23.324100 -8.387100
C -27.692600 -21.580400 -6.700400
H -27.619900 -23.235600 -10.416600
C -27.496200 -23.904800 -9.711700
C -27.335100 -22.142800 -7.905000
H -27.277800 -20.777300 -6.408300
H -26.667200 -21.715900 -8.429300
H -26.551000 -24.161700 -9.667300
68
Fragment
H -25.168700 -22.565300 -11.543000
H -25.029500 -20.650700 -10.237700
C -24.658900 -21.829100 -11.858900
C -24.572800 -20.677800 -11.070600
H -24.094000 -22.713700 -13.613100
C -24.028400 -21.930300 -13.078900
C -23.839700 -19.578300 -11.474000
H -23.791300 -18.795600 -10.938000
C -23.288200 -20.821200 -13.488600
C -23.171900 -19.659000 -12.699700
H -23.162600 -21.555100 -16.239100
N -22.508400 -20.594500 -14.600500
N -22.332500 -18.748400 -13.317000
C -22.329400 -21.502200 -15.726700
H -22.093400 -22.393400 -15.393600
C -21.956300 -19.352700 -14.434600
H -21.611200 -21.168500 -16.304600
N -21.070300 -18.883700 -15.410900
N -20.593400 -17.754100 -15.084700
H -20.084500 -15.803500 -13.942100
H -19.710400 -18.537400 -17.512700
C -19.672300 -17.190700 -15.973500
O -19.417500 -15.397900 -14.355000
C -19.299600 -17.734400 -17.213000
C -19.093000 -15.993100 -15.527200
H -18.465900 -18.493000 -19.530800
C -18.345800 -17.123200 -18.006300
C -18.117600 -15.379500 -16.319600
H -18.044900 -17.034700 -20.035800
C -17.921100 -17.703900 -19.331000
C -17.760100 -15.941900 -17.524200
H -17.702800 -14.576400 -16.027500
H -17.092200 -15.515000 -18.048500
H -16.976000 -17.960800 -19.286500
H -34.743800 -28.766200 -1.923800
H -34.604600 -26.851600 -0.618500
C -34.234000 -28.030000 -2.239700
C -34.147900 -26.878700 -1.451300
H -33.669000 -28.914600 -3.993900
C -33.603500 -28.131200 -3.459600
C -33.414800 -25.779200 -1.854800
H -33.366300 -24.996500 -1.318800
C -32.863300 -27.022100 -3.869400
C -32.746900 -25.859900 -3.080500
H -32.737600 -27.756000 -6.619900
N -32.083500 -26.795400 -4.981300
N -31.907500 -24.949300 -3.697800
C -31.904500 -27.703100 -6.107500
H -31.668400 -28.594300 -5.774400
C -31.531300 -25.553600 -4.815400
H -31.186300 -27.369400 -6.685300
N -30.645400 -25.084600 -5.791700
N -30.168500 -23.954900 -5.465500
H -29.659500 -22.004400 -4.322900
H -29.285400 -24.738300 -7.893500
C -29.247400 -23.391600 -6.354300
O -28.992600 -21.598800 -4.735800
C -28.874700 -23.935300 -7.593800
C -28.668000 -22.194000 -5.908000
H -28.041000 -24.693900 -9.911600
C -27.920900 -23.324100 -8.387100
C -27.692600 -21.580400 -6.700400
H -27.619900 -23.235600 -10.416600
C -27.496200 -23.904800 -9.711700
C -27.335100 -22.142800 -7.905000
H -27.277800 -20.777300 -6.408300
H -26.667200 -21.715900 -8.429300
H -26.551000 -24.161700 -9.667300
