33
Fragment
F -12.473100 -26.568100 -11.188500
H -11.570800 -24.216800 -11.549700
C -11.230800 -26.233100 -11.664600
C -10.928100 -24.875600 -11.785900
H -10.606300 -28.158900 -11.874600
C -10.362800 -27.247000 -11.980800
C -9.679700 -24.499000 -12.254100
H -9.444200 -23.582100 -12.337200
C -9.099900 -26.878600 -12.467400
H -9.039500 -31.915600 -13.107500
C -8.779300 -25.507400 -12.600000
H -8.717900 -29.489500 -12.528400
H -8.369200 -31.665100 -11.676300
C -8.229800 -32.041000 -12.570600
H -8.032400 -32.997700 -12.495400
C -7.954100 -27.640800 -12.904000
C -7.935100 -29.089200 -12.888700
N -7.491100 -25.434000 -13.092400
N -7.119000 -31.367300 -13.209200
C -7.005200 -26.698100 -13.267800
C -6.996700 -29.968600 -13.297900
H -6.971300 -24.719600 -13.272700
H -6.315000 -33.754700 -13.512600
H -6.137000 -26.902800 -13.594500
C -5.987100 -31.996500 -13.685600
N -5.668200 -33.229600 -13.770200
C -5.666300 -29.733800 -13.907100
N -5.130800 -30.982200 -14.114100
O -5.117400 -28.680100 -14.192600
H -3.971200 -31.955700 -15.423700
C -3.866300 -31.225400 -14.778300
H -3.582200 -30.412900 -15.247400
H -3.190400 -31.472100 -14.112900
33
Fragment
F -14.085600 -40.344900 -7.254700
H -13.183400 -42.696200 -7.615900
C -12.843300 -40.679900 -7.730800
C -12.540700 -42.037400 -7.852000
H -12.218900 -38.754100 -7.940800
C -11.975400 -39.666000 -8.047000
C -11.292200 -42.414000 -8.320200
H -11.056800 -43.330900 -8.403400
C -10.712400 -40.034400 -8.533600
H -10.652100 -34.997400 -9.173600
C -10.391900 -41.405600 -8.666200
H -10.330500 -37.423500 -8.594600
H -9.981800 -35.247900 -7.742500
C -9.842400 -34.872000 -8.636800
H -9.644900 -33.915300 -8.561500
C -9.566700 -39.272200 -8.970200
C -9.547700 -37.823800 -8.954900
N -9.103700 -41.479000 -9.158500
N -8.731600 -35.545700 -9.275400
C -8.617800 -40.214900 -9.334000
C -8.609300 -36.944400 -9.364100
H -8.583900 -42.193400 -9.338900
H -7.927600 -33.158300 -9.578800
H -7.749600 -40.010200 -9.660700
C -7.599600 -34.916500 -9.751800
N -7.280700 -33.683400 -9.836400
C -7.278900 -37.179200 -9.973300
N -6.743300 -35.930800 -10.180300
O -6.729900 -38.232900 -10.258800
H -5.583800 -34.957300 -11.489900
C -5.478900 -35.687600 -10.844500
H -5.194800 -36.500100 -11.313600
H -4.803000 -35.440900 -10.179100
66
Fragment
F -12.473100 -26.568100 -11.188500
H -11.570800 -24.216800 -11.549700
C -11.230800 -26.233100 -11.664600
C -10.928100 -24.875600 -11.785900
H -10.606300 -28.158900 -11.874600
C -10.362800 -27.247000 -11.980800
C -9.679700 -24.499000 -12.254100
H -9.444200 -23.582100 -12.337200
C -9.099900 -26.878600 -12.467400
H -9.039500 -31.915600 -13.107500
C -8.779300 -25.507400 -12.600000
H -8.717900 -29.489500 -12.528400
H -8.369200 -31.665100 -11.676300
C -8.229800 -32.041000 -12.570600
H -8.032400 -32.997700 -12.495400
C -7.954100 -27.640800 -12.904000
C -7.935100 -29.089200 -12.888700
N -7.491100 -25.434000 -13.092400
N -7.119000 -31.367300 -13.209200
C -7.005200 -26.698100 -13.267800
C -6.996700 -29.968600 -13.297900
H -6.971300 -24.719600 -13.272700
H -6.315000 -33.754700 -13.512600
H -6.137000 -26.902800 -13.594500
C -5.987100 -31.996500 -13.685600
N -5.668200 -33.229600 -13.770200
C -5.666300 -29.733800 -13.907100
N -5.130800 -30.982200 -14.114100
O -5.117400 -28.680100 -14.192600
H -3.971200 -31.955700 -15.423700
C -3.866300 -31.225400 -14.778300
H -3.582200 -30.412900 -15.247400
H -3.190400 -31.472100 -14.112900
F -14.085600 -40.344900 -7.254700
H -13.183400 -42.696200 -7.615900
C -12.843300 -40.679900 -7.730800
C -12.540700 -42.037400 -7.852000
H -12.218900 -38.754100 -7.940800
C -11.975400 -39.666000 -8.047000
C -11.292200 -42.414000 -8.320200
H -11.056800 -43.330900 -8.403400
C -10.712400 -40.034400 -8.533600
H -10.652100 -34.997400 -9.173600
C -10.391900 -41.405600 -8.666200
H -10.330500 -37.423500 -8.594600
H -9.981800 -35.247900 -7.742500
C -9.842400 -34.872000 -8.636800
H -9.644900 -33.915300 -8.561500
C -9.566700 -39.272200 -8.970200
C -9.547700 -37.823800 -8.954900
N -9.103700 -41.479000 -9.158500
N -8.731600 -35.545700 -9.275400
C -8.617800 -40.214900 -9.334000
C -8.609300 -36.944400 -9.364100
H -8.583900 -42.193400 -9.338900
H -7.927600 -33.158300 -9.578800
H -7.749600 -40.010200 -9.660700
C -7.599600 -34.916500 -9.751800
N -7.280700 -33.683400 -9.836400
C -7.278900 -37.179200 -9.973300
N -6.743300 -35.930800 -10.180300
O -6.729900 -38.232900 -10.258800
H -5.583800 -34.957300 -11.489900
C -5.478900 -35.687600 -10.844500
H -5.194800 -36.500100 -11.313600
H -4.803000 -35.440900 -10.179100
