33
Fragment
F -12.473100 -26.568100 -11.188500
H -11.570800 -24.216800 -11.549700
C -11.230800 -26.233100 -11.664600
C -10.928100 -24.875600 -11.785900
H -10.606300 -28.158900 -11.874600
C -10.362800 -27.247000 -11.980800
C -9.679700 -24.499000 -12.254100
H -9.444200 -23.582100 -12.337200
C -9.099900 -26.878600 -12.467400
H -9.039500 -31.915600 -13.107500
C -8.779300 -25.507400 -12.600000
H -8.717900 -29.489500 -12.528400
H -8.369200 -31.665100 -11.676300
C -8.229800 -32.041000 -12.570600
H -8.032400 -32.997700 -12.495400
C -7.954100 -27.640800 -12.904000
C -7.935100 -29.089200 -12.888700
N -7.491100 -25.434000 -13.092400
N -7.119000 -31.367300 -13.209200
C -7.005200 -26.698100 -13.267800
C -6.996700 -29.968600 -13.297900
H -6.971300 -24.719600 -13.272700
H -6.315000 -33.754700 -13.512600
H -6.137000 -26.902800 -13.594500
C -5.987100 -31.996500 -13.685600
N -5.668200 -33.229600 -13.770200
C -5.666300 -29.733800 -13.907100
N -5.130800 -30.982200 -14.114100
O -5.117400 -28.680100 -14.192600
H -3.971200 -31.955700 -15.423700
C -3.866300 -31.225400 -14.778300
H -3.582200 -30.412900 -15.247400
H -3.190400 -31.472100 -14.112900
33
Fragment
F -14.085600 -21.226900 -7.254700
H -13.183400 -23.578200 -7.615900
C -12.843300 -21.561900 -7.730800
C -12.540700 -22.919400 -7.852000
H -12.218900 -19.636100 -7.940800
C -11.975400 -20.548000 -8.047000
C -11.292200 -23.296000 -8.320200
H -11.056800 -24.212900 -8.403400
C -10.712400 -20.916400 -8.533600
H -10.652100 -15.879400 -9.173600
C -10.391900 -22.287600 -8.666200
H -10.330500 -18.305500 -8.594600
H -9.981800 -16.129900 -7.742500
C -9.842400 -15.754000 -8.636800
H -9.644900 -14.797300 -8.561500
C -9.566700 -20.154200 -8.970200
C -9.547700 -18.705800 -8.954900
N -9.103700 -22.361000 -9.158500
N -8.731600 -16.427700 -9.275400
C -8.617800 -21.096900 -9.334000
C -8.609300 -17.826400 -9.364100
H -8.583900 -23.075400 -9.338900
H -7.927600 -14.040300 -9.578800
H -7.749600 -20.892200 -9.660700
C -7.599600 -15.798500 -9.751800
N -7.280700 -14.565400 -9.836400
C -7.278900 -18.061200 -9.973300
N -6.743300 -16.812800 -10.180300
O -6.729900 -19.114900 -10.258800
H -5.583800 -15.839300 -11.489900
C -5.478900 -16.569600 -10.844500
H -5.194800 -17.382100 -11.313600
H -4.803000 -16.322900 -10.179100
66
Fragment
F -12.473100 -26.568100 -11.188500
H -11.570800 -24.216800 -11.549700
C -11.230800 -26.233100 -11.664600
C -10.928100 -24.875600 -11.785900
H -10.606300 -28.158900 -11.874600
C -10.362800 -27.247000 -11.980800
C -9.679700 -24.499000 -12.254100
H -9.444200 -23.582100 -12.337200
C -9.099900 -26.878600 -12.467400
H -9.039500 -31.915600 -13.107500
C -8.779300 -25.507400 -12.600000
H -8.717900 -29.489500 -12.528400
H -8.369200 -31.665100 -11.676300
C -8.229800 -32.041000 -12.570600
H -8.032400 -32.997700 -12.495400
C -7.954100 -27.640800 -12.904000
C -7.935100 -29.089200 -12.888700
N -7.491100 -25.434000 -13.092400
N -7.119000 -31.367300 -13.209200
C -7.005200 -26.698100 -13.267800
C -6.996700 -29.968600 -13.297900
H -6.971300 -24.719600 -13.272700
H -6.315000 -33.754700 -13.512600
H -6.137000 -26.902800 -13.594500
C -5.987100 -31.996500 -13.685600
N -5.668200 -33.229600 -13.770200
C -5.666300 -29.733800 -13.907100
N -5.130800 -30.982200 -14.114100
O -5.117400 -28.680100 -14.192600
H -3.971200 -31.955700 -15.423700
C -3.866300 -31.225400 -14.778300
H -3.582200 -30.412900 -15.247400
H -3.190400 -31.472100 -14.112900
F -14.085600 -21.226900 -7.254700
H -13.183400 -23.578200 -7.615900
C -12.843300 -21.561900 -7.730800
C -12.540700 -22.919400 -7.852000
H -12.218900 -19.636100 -7.940800
C -11.975400 -20.548000 -8.047000
C -11.292200 -23.296000 -8.320200
H -11.056800 -24.212900 -8.403400
C -10.712400 -20.916400 -8.533600
H -10.652100 -15.879400 -9.173600
C -10.391900 -22.287600 -8.666200
H -10.330500 -18.305500 -8.594600
H -9.981800 -16.129900 -7.742500
C -9.842400 -15.754000 -8.636800
H -9.644900 -14.797300 -8.561500
C -9.566700 -20.154200 -8.970200
C -9.547700 -18.705800 -8.954900
N -9.103700 -22.361000 -9.158500
N -8.731600 -16.427700 -9.275400
C -8.617800 -21.096900 -9.334000
C -8.609300 -17.826400 -9.364100
H -8.583900 -23.075400 -9.338900
H -7.927600 -14.040300 -9.578800
H -7.749600 -20.892200 -9.660700
C -7.599600 -15.798500 -9.751800
N -7.280700 -14.565400 -9.836400
C -7.278900 -18.061200 -9.973300
N -6.743300 -16.812800 -10.180300
O -6.729900 -19.114900 -10.258800
H -5.583800 -15.839300 -11.489900
C -5.478900 -16.569600 -10.844500
H -5.194800 -17.382100 -11.313600
H -4.803000 -16.322900 -10.179100
