33
Fragment
F -12.473100 -26.568100 -11.188500
H -11.570800 -24.216800 -11.549700
C -11.230800 -26.233100 -11.664600
C -10.928100 -24.875600 -11.785900
H -10.606300 -28.158900 -11.874600
C -10.362800 -27.247000 -11.980800
C -9.679700 -24.499000 -12.254100
H -9.444200 -23.582100 -12.337200
C -9.099900 -26.878600 -12.467400
H -9.039500 -31.915600 -13.107500
C -8.779300 -25.507400 -12.600000
H -8.717900 -29.489500 -12.528400
H -8.369200 -31.665100 -11.676300
C -8.229800 -32.041000 -12.570600
H -8.032400 -32.997700 -12.495400
C -7.954100 -27.640800 -12.904000
C -7.935100 -29.089200 -12.888700
N -7.491100 -25.434000 -13.092400
N -7.119000 -31.367300 -13.209200
C -7.005200 -26.698100 -13.267800
C -6.996700 -29.968600 -13.297900
H -6.971300 -24.719600 -13.272700
H -6.315000 -33.754700 -13.512600
H -6.137000 -26.902800 -13.594500
C -5.987100 -31.996500 -13.685600
N -5.668200 -33.229600 -13.770200
C -5.666300 -29.733800 -13.907100
N -5.130800 -30.982200 -14.114100
O -5.117400 -28.680100 -14.192600
H -3.971200 -31.955700 -15.423700
C -3.866300 -31.225400 -14.778300
H -3.582200 -30.412900 -15.247400
H -3.190400 -31.472100 -14.112900
33
Fragment
H -7.749600 -21.913100 -13.423700
H -7.357800 -20.853900 -12.289200
C -7.073700 -21.666400 -12.758400
H -6.968800 -22.396700 -12.113000
O -5.822600 -19.121100 -13.344000
N -5.809200 -21.423200 -13.422600
C -5.273700 -20.174800 -13.629600
N -5.271800 -23.670600 -13.766400
C -4.952900 -22.437500 -13.851100
H -4.803000 -17.343800 -13.942200
H -4.625000 -24.195700 -14.024000
H -3.968700 -15.160600 -14.264000
C -3.943300 -20.409600 -14.238700
C -3.934800 -17.139100 -14.268900
N -3.821000 -21.808300 -14.327500
N -3.448900 -15.875000 -14.444300
C -3.004900 -19.530200 -14.647900
C -2.985900 -18.081800 -14.632700
H -2.907600 -23.438700 -15.041300
C -2.710200 -22.482000 -14.966100
H -2.570800 -22.106100 -15.860300
H -2.222100 -19.930500 -15.008300
C -2.160700 -15.948400 -14.936700
H -1.900500 -22.356600 -14.429200
C -1.840100 -17.319600 -15.069200
H -1.495800 -14.023100 -15.199500
C -1.260300 -14.940000 -15.282600
C -0.577200 -17.688000 -15.555900
H -0.333700 -18.599900 -15.662100
C -0.011900 -15.316600 -15.750800
C 0.290800 -16.674100 -15.872100
H 0.630800 -14.657800 -15.987000
F 1.533100 -17.009100 -16.348100
66
Fragment
F -12.473100 -26.568100 -11.188500
H -11.570800 -24.216800 -11.549700
C -11.230800 -26.233100 -11.664600
C -10.928100 -24.875600 -11.785900
H -10.606300 -28.158900 -11.874600
C -10.362800 -27.247000 -11.980800
C -9.679700 -24.499000 -12.254100
H -9.444200 -23.582100 -12.337200
C -9.099900 -26.878600 -12.467400
H -9.039500 -31.915600 -13.107500
C -8.779300 -25.507400 -12.600000
H -8.717900 -29.489500 -12.528400
H -8.369200 -31.665100 -11.676300
C -8.229800 -32.041000 -12.570600
H -8.032400 -32.997700 -12.495400
C -7.954100 -27.640800 -12.904000
C -7.935100 -29.089200 -12.888700
N -7.491100 -25.434000 -13.092400
N -7.119000 -31.367300 -13.209200
C -7.005200 -26.698100 -13.267800
C -6.996700 -29.968600 -13.297900
H -6.971300 -24.719600 -13.272700
H -6.315000 -33.754700 -13.512600
H -6.137000 -26.902800 -13.594500
C -5.987100 -31.996500 -13.685600
N -5.668200 -33.229600 -13.770200
C -5.666300 -29.733800 -13.907100
N -5.130800 -30.982200 -14.114100
O -5.117400 -28.680100 -14.192600
H -3.971200 -31.955700 -15.423700
C -3.866300 -31.225400 -14.778300
H -3.582200 -30.412900 -15.247400
H -3.190400 -31.472100 -14.112900
H -7.749600 -21.913100 -13.423700
H -7.357800 -20.853900 -12.289200
C -7.073700 -21.666400 -12.758400
H -6.968800 -22.396700 -12.113000
O -5.822600 -19.121100 -13.344000
N -5.809200 -21.423200 -13.422600
C -5.273700 -20.174800 -13.629600
N -5.271800 -23.670600 -13.766400
C -4.952900 -22.437500 -13.851100
H -4.803000 -17.343800 -13.942200
H -4.625000 -24.195700 -14.024000
H -3.968700 -15.160600 -14.264000
C -3.943300 -20.409600 -14.238700
C -3.934800 -17.139100 -14.268900
N -3.821000 -21.808300 -14.327500
N -3.448900 -15.875000 -14.444300
C -3.004900 -19.530200 -14.647900
C -2.985900 -18.081800 -14.632700
H -2.907600 -23.438700 -15.041300
C -2.710200 -22.482000 -14.966100
H -2.570800 -22.106100 -15.860300
H -2.222100 -19.930500 -15.008300
C -2.160700 -15.948400 -14.936700
H -1.900500 -22.356600 -14.429200
C -1.840100 -17.319600 -15.069200
H -1.495800 -14.023100 -15.199500
C -1.260300 -14.940000 -15.282600
C -0.577200 -17.688000 -15.555900
H -0.333700 -18.599900 -15.662100
C -0.011900 -15.316600 -15.750800
C 0.290800 -16.674100 -15.872100
H 0.630800 -14.657800 -15.987000
F 1.533100 -17.009100 -16.348100
