33
Fragment
F -12.473100 -26.568100 -11.188500
H -11.570800 -24.216800 -11.549700
C -11.230800 -26.233100 -11.664600
C -10.928100 -24.875600 -11.785900
H -10.606300 -28.158900 -11.874600
C -10.362800 -27.247000 -11.980800
C -9.679700 -24.499000 -12.254100
H -9.444200 -23.582100 -12.337200
C -9.099900 -26.878600 -12.467400
H -9.039500 -31.915600 -13.107500
C -8.779300 -25.507400 -12.600000
H -8.717900 -29.489500 -12.528400
H -8.369200 -31.665100 -11.676300
C -8.229800 -32.041000 -12.570600
H -8.032400 -32.997700 -12.495400
C -7.954100 -27.640800 -12.904000
C -7.935100 -29.089200 -12.888700
N -7.491100 -25.434000 -13.092400
N -7.119000 -31.367300 -13.209200
C -7.005200 -26.698100 -13.267800
C -6.996700 -29.968600 -13.297900
H -6.971300 -24.719600 -13.272700
H -6.315000 -33.754700 -13.512600
H -6.137000 -26.902800 -13.594500
C -5.987100 -31.996500 -13.685600
N -5.668200 -33.229600 -13.770200
C -5.666300 -29.733800 -13.907100
N -5.130800 -30.982200 -14.114100
O -5.117400 -28.680100 -14.192600
H -3.971200 -31.955700 -15.423700
C -3.866300 -31.225400 -14.778300
H -3.582200 -30.412900 -15.247400
H -3.190400 -31.472100 -14.112900
12
Fragment
H -12.909200 -31.248400 -8.892000
H -12.510500 -28.694200 -9.187000
H -12.477100 -30.946300 -7.381400
C -12.151100 -31.186200 -8.274100
H -11.816000 -28.526000 -7.755100
H -11.691300 -32.051300 -8.232700
C -11.671700 -28.786900 -8.688500
N -11.228000 -30.169500 -8.741900
H -10.987700 -28.208600 -9.087100
C -10.018000 -30.495700 -9.213500
O -9.576400 -31.638800 -9.287400
H -9.458100 -29.789700 -9.513500
45
Fragment
F -12.473100 -26.568100 -11.188500
H -11.570800 -24.216800 -11.549700
C -11.230800 -26.233100 -11.664600
C -10.928100 -24.875600 -11.785900
H -10.606300 -28.158900 -11.874600
C -10.362800 -27.247000 -11.980800
C -9.679700 -24.499000 -12.254100
H -9.444200 -23.582100 -12.337200
C -9.099900 -26.878600 -12.467400
H -9.039500 -31.915600 -13.107500
C -8.779300 -25.507400 -12.600000
H -8.717900 -29.489500 -12.528400
H -8.369200 -31.665100 -11.676300
C -8.229800 -32.041000 -12.570600
H -8.032400 -32.997700 -12.495400
C -7.954100 -27.640800 -12.904000
C -7.935100 -29.089200 -12.888700
N -7.491100 -25.434000 -13.092400
N -7.119000 -31.367300 -13.209200
C -7.005200 -26.698100 -13.267800
C -6.996700 -29.968600 -13.297900
H -6.971300 -24.719600 -13.272700
H -6.315000 -33.754700 -13.512600
H -6.137000 -26.902800 -13.594500
C -5.987100 -31.996500 -13.685600
N -5.668200 -33.229600 -13.770200
C -5.666300 -29.733800 -13.907100
N -5.130800 -30.982200 -14.114100
O -5.117400 -28.680100 -14.192600
H -3.971200 -31.955700 -15.423700
C -3.866300 -31.225400 -14.778300
H -3.582200 -30.412900 -15.247400
H -3.190400 -31.472100 -14.112900
H -12.909200 -31.248400 -8.892000
H -12.510500 -28.694200 -9.187000
H -12.477100 -30.946300 -7.381400
C -12.151100 -31.186200 -8.274100
H -11.816000 -28.526000 -7.755100
H -11.691300 -32.051300 -8.232700
C -11.671700 -28.786900 -8.688500
N -11.228000 -30.169500 -8.741900
H -10.987700 -28.208600 -9.087100
C -10.018000 -30.495700 -9.213500
O -9.576400 -31.638800 -9.287400
H -9.458100 -29.789700 -9.513500
