33
Fragment
F -12.473100 -26.568100 -11.188500
H -11.570800 -24.216800 -11.549700
C -11.230800 -26.233100 -11.664600
C -10.928100 -24.875600 -11.785900
H -10.606300 -28.158900 -11.874600
C -10.362800 -27.247000 -11.980800
C -9.679700 -24.499000 -12.254100
H -9.444200 -23.582100 -12.337200
C -9.099900 -26.878600 -12.467400
H -9.039500 -31.915600 -13.107500
C -8.779300 -25.507400 -12.600000
H -8.717900 -29.489500 -12.528400
H -8.369200 -31.665100 -11.676300
C -8.229800 -32.041000 -12.570600
H -8.032400 -32.997700 -12.495400
C -7.954100 -27.640800 -12.904000
C -7.935100 -29.089200 -12.888700
N -7.491100 -25.434000 -13.092400
N -7.119000 -31.367300 -13.209200
C -7.005200 -26.698100 -13.267800
C -6.996700 -29.968600 -13.297900
H -6.971300 -24.719600 -13.272700
H -6.315000 -33.754700 -13.512600
H -6.137000 -26.902800 -13.594500
C -5.987100 -31.996500 -13.685600
N -5.668200 -33.229600 -13.770200
C -5.666300 -29.733800 -13.907100
N -5.130800 -30.982200 -14.114100
O -5.117400 -28.680100 -14.192600
H -3.971200 -31.955700 -15.423700
C -3.866300 -31.225400 -14.778300
H -3.582200 -30.412900 -15.247400
H -3.190400 -31.472100 -14.112900
33
Fragment
H -6.137000 -25.881900 -17.357500
H -5.745200 -26.941100 -16.223000
C -5.461100 -26.128600 -16.692200
H -5.356200 -25.398300 -16.046800
O -4.210100 -28.673900 -17.277800
N -4.196700 -26.371800 -17.356400
C -3.661100 -27.620200 -17.563400
N -3.659300 -24.124400 -17.700300
C -3.340400 -25.357500 -17.784900
H -3.190400 -30.451200 -17.876000
H -3.012400 -23.599300 -17.957800
H -2.356100 -32.634400 -18.197800
C -2.330700 -27.385400 -18.172600
C -2.322200 -30.655900 -18.202700
N -2.208400 -25.986700 -18.261300
N -1.836300 -31.920000 -18.378100
C -1.392300 -28.264800 -18.581700
C -1.373300 -29.713200 -18.566500
H -1.295100 -24.356300 -18.975100
C -1.097600 -25.313000 -18.899900
H -0.958200 -25.688900 -19.794100
H -0.609500 -27.864500 -18.942100
C -0.548100 -31.846600 -18.870500
H -0.287900 -25.438400 -18.363000
C -0.227600 -30.475400 -19.003100
H 0.116800 -33.771900 -19.133300
C 0.352200 -32.855000 -19.216400
C 1.035400 -30.107000 -19.489700
H 1.278900 -29.195100 -19.595900
C 1.600700 -32.478400 -19.684600
C 1.903300 -31.120900 -19.805900
H 2.243400 -33.137200 -19.920800
F 3.145600 -30.785900 -20.281900
66
Fragment
F -12.473100 -26.568100 -11.188500
H -11.570800 -24.216800 -11.549700
C -11.230800 -26.233100 -11.664600
C -10.928100 -24.875600 -11.785900
H -10.606300 -28.158900 -11.874600
C -10.362800 -27.247000 -11.980800
C -9.679700 -24.499000 -12.254100
H -9.444200 -23.582100 -12.337200
C -9.099900 -26.878600 -12.467400
H -9.039500 -31.915600 -13.107500
C -8.779300 -25.507400 -12.600000
H -8.717900 -29.489500 -12.528400
H -8.369200 -31.665100 -11.676300
C -8.229800 -32.041000 -12.570600
H -8.032400 -32.997700 -12.495400
C -7.954100 -27.640800 -12.904000
C -7.935100 -29.089200 -12.888700
N -7.491100 -25.434000 -13.092400
N -7.119000 -31.367300 -13.209200
C -7.005200 -26.698100 -13.267800
C -6.996700 -29.968600 -13.297900
H -6.971300 -24.719600 -13.272700
H -6.315000 -33.754700 -13.512600
H -6.137000 -26.902800 -13.594500
C -5.987100 -31.996500 -13.685600
N -5.668200 -33.229600 -13.770200
C -5.666300 -29.733800 -13.907100
N -5.130800 -30.982200 -14.114100
O -5.117400 -28.680100 -14.192600
H -3.971200 -31.955700 -15.423700
C -3.866300 -31.225400 -14.778300
H -3.582200 -30.412900 -15.247400
H -3.190400 -31.472100 -14.112900
H -6.137000 -25.881900 -17.357500
H -5.745200 -26.941100 -16.223000
C -5.461100 -26.128600 -16.692200
H -5.356200 -25.398300 -16.046800
O -4.210100 -28.673900 -17.277800
N -4.196700 -26.371800 -17.356400
C -3.661100 -27.620200 -17.563400
N -3.659300 -24.124400 -17.700300
C -3.340400 -25.357500 -17.784900
H -3.190400 -30.451200 -17.876000
H -3.012400 -23.599300 -17.957800
H -2.356100 -32.634400 -18.197800
C -2.330700 -27.385400 -18.172600
C -2.322200 -30.655900 -18.202700
N -2.208400 -25.986700 -18.261300
N -1.836300 -31.920000 -18.378100
C -1.392300 -28.264800 -18.581700
C -1.373300 -29.713200 -18.566500
H -1.295100 -24.356300 -18.975100
C -1.097600 -25.313000 -18.899900
H -0.958200 -25.688900 -19.794100
H -0.609500 -27.864500 -18.942100
C -0.548100 -31.846600 -18.870500
H -0.287900 -25.438400 -18.363000
C -0.227600 -30.475400 -19.003100
H 0.116800 -33.771900 -19.133300
C 0.352200 -32.855000 -19.216400
C 1.035400 -30.107000 -19.489700
H 1.278900 -29.195100 -19.595900
C 1.600700 -32.478400 -19.684600
C 1.903300 -31.120900 -19.805900
H 2.243400 -33.137200 -19.920800
F 3.145600 -30.785900 -20.281900
