33
Fragment
F -12.473100 -26.568100 -11.188500
H -11.570800 -24.216800 -11.549700
C -11.230800 -26.233100 -11.664600
C -10.928100 -24.875600 -11.785900
H -10.606300 -28.158900 -11.874600
C -10.362800 -27.247000 -11.980800
C -9.679700 -24.499000 -12.254100
H -9.444200 -23.582100 -12.337200
C -9.099900 -26.878600 -12.467400
H -9.039500 -31.915600 -13.107500
C -8.779300 -25.507400 -12.600000
H -8.717900 -29.489500 -12.528400
H -8.369200 -31.665100 -11.676300
C -8.229800 -32.041000 -12.570600
H -8.032400 -32.997700 -12.495400
C -7.954100 -27.640800 -12.904000
C -7.935100 -29.089200 -12.888700
N -7.491100 -25.434000 -13.092400
N -7.119000 -31.367300 -13.209200
C -7.005200 -26.698100 -13.267800
C -6.996700 -29.968600 -13.297900
H -6.971300 -24.719600 -13.272700
H -6.315000 -33.754700 -13.512600
H -6.137000 -26.902800 -13.594500
C -5.987100 -31.996500 -13.685600
N -5.668200 -33.229600 -13.770200
C -5.666300 -29.733800 -13.907100
N -5.130800 -30.982200 -14.114100
O -5.117400 -28.680100 -14.192600
H -3.971200 -31.955700 -15.423700
C -3.866300 -31.225400 -14.778300
H -3.582200 -30.412900 -15.247400
H -3.190400 -31.472100 -14.112900
33
Fragment
H -20.476200 -25.881900 -9.489900
H -20.084300 -26.941100 -8.355400
C -19.800200 -26.128600 -8.824600
H -19.695400 -25.398300 -8.179200
O -18.549200 -28.673900 -9.410200
N -18.535800 -26.371800 -9.488700
C -18.000300 -27.620200 -9.695700
N -17.998400 -24.124400 -9.832600
C -17.679500 -25.357500 -9.917300
H -17.529600 -30.451200 -10.008400
H -17.351600 -23.599300 -10.090200
H -16.695300 -32.634400 -10.330200
C -16.669800 -27.385400 -10.304900
C -16.661400 -30.655900 -10.335100
N -16.547500 -25.986700 -10.393700
N -16.175500 -31.920000 -10.510500
C -15.731500 -28.264800 -10.714100
C -15.712500 -29.713200 -10.698900
H -15.634200 -24.356300 -11.107500
C -15.436800 -25.313000 -11.032300
H -15.297400 -25.688900 -11.926500
H -14.948700 -27.864500 -11.074500
C -14.887200 -31.846600 -11.002900
H -14.627000 -25.438400 -10.495400
C -14.566700 -30.475400 -11.135400
H -14.222400 -33.771900 -11.265600
C -13.986900 -32.855000 -11.348800
C -13.303700 -30.107000 -11.622100
H -13.060300 -29.195100 -11.728300
C -12.738500 -32.478400 -11.817000
C -12.435800 -31.120900 -11.938200
H -12.095700 -33.137200 -12.053200
F -11.193500 -30.785900 -12.414300
66
Fragment
F -12.473100 -26.568100 -11.188500
H -11.570800 -24.216800 -11.549700
C -11.230800 -26.233100 -11.664600
C -10.928100 -24.875600 -11.785900
H -10.606300 -28.158900 -11.874600
C -10.362800 -27.247000 -11.980800
C -9.679700 -24.499000 -12.254100
H -9.444200 -23.582100 -12.337200
C -9.099900 -26.878600 -12.467400
H -9.039500 -31.915600 -13.107500
C -8.779300 -25.507400 -12.600000
H -8.717900 -29.489500 -12.528400
H -8.369200 -31.665100 -11.676300
C -8.229800 -32.041000 -12.570600
H -8.032400 -32.997700 -12.495400
C -7.954100 -27.640800 -12.904000
C -7.935100 -29.089200 -12.888700
N -7.491100 -25.434000 -13.092400
N -7.119000 -31.367300 -13.209200
C -7.005200 -26.698100 -13.267800
C -6.996700 -29.968600 -13.297900
H -6.971300 -24.719600 -13.272700
H -6.315000 -33.754700 -13.512600
H -6.137000 -26.902800 -13.594500
C -5.987100 -31.996500 -13.685600
N -5.668200 -33.229600 -13.770200
C -5.666300 -29.733800 -13.907100
N -5.130800 -30.982200 -14.114100
O -5.117400 -28.680100 -14.192600
H -3.971200 -31.955700 -15.423700
C -3.866300 -31.225400 -14.778300
H -3.582200 -30.412900 -15.247400
H -3.190400 -31.472100 -14.112900
H -20.476200 -25.881900 -9.489900
H -20.084300 -26.941100 -8.355400
C -19.800200 -26.128600 -8.824600
H -19.695400 -25.398300 -8.179200
O -18.549200 -28.673900 -9.410200
N -18.535800 -26.371800 -9.488700
C -18.000300 -27.620200 -9.695700
N -17.998400 -24.124400 -9.832600
C -17.679500 -25.357500 -9.917300
H -17.529600 -30.451200 -10.008400
H -17.351600 -23.599300 -10.090200
H -16.695300 -32.634400 -10.330200
C -16.669800 -27.385400 -10.304900
C -16.661400 -30.655900 -10.335100
N -16.547500 -25.986700 -10.393700
N -16.175500 -31.920000 -10.510500
C -15.731500 -28.264800 -10.714100
C -15.712500 -29.713200 -10.698900
H -15.634200 -24.356300 -11.107500
C -15.436800 -25.313000 -11.032300
H -15.297400 -25.688900 -11.926500
H -14.948700 -27.864500 -11.074500
C -14.887200 -31.846600 -11.002900
H -14.627000 -25.438400 -10.495400
C -14.566700 -30.475400 -11.135400
H -14.222400 -33.771900 -11.265600
C -13.986900 -32.855000 -11.348800
C -13.303700 -30.107000 -11.622100
H -13.060300 -29.195100 -11.728300
C -12.738500 -32.478400 -11.817000
C -12.435800 -31.120900 -11.938200
H -12.095700 -33.137200 -12.053200
F -11.193500 -30.785900 -12.414300
