36
Fragment
H -13.317100 -14.021800 -24.488900
H -13.066000 -14.145900 -22.231100
H -12.572100 -16.208900 -24.218100
C -12.372600 -14.113900 -24.206600
C -12.230500 -13.903400 -22.703800
H -12.004800 -12.961800 -22.497500
C -11.869000 -15.546200 -24.431200
H -11.821500 -13.462100 -24.708200
H -11.573700 -15.677300 -25.367600
O -11.156300 -13.971600 -20.243300
N -11.120900 -14.811800 -22.322000
C -10.702400 -14.808200 -21.043000
C -10.683700 -15.662000 -23.455500
H -10.566100 -16.609300 -23.158300
H -10.187200 -16.570300 -20.079200
C -9.704600 -15.846600 -20.552700
H -9.483200 -14.170100 -24.278400
C -9.400700 -15.138400 -24.088700
H -9.235800 -16.245600 -21.327300
H -9.221800 -15.611000 -24.939300
H -9.160400 -14.789900 -18.848700
C -8.677100 -15.209800 -19.604500
O -8.336000 -15.371000 -23.161300
H -8.308900 -13.666600 -20.944700
H -8.103000 -15.925600 -19.232900
C -7.780200 -14.152500 -20.263500
H -7.503200 -13.496500 -19.575800
H -7.494800 -13.568300 -23.276100
C -7.215900 -14.517300 -23.325100
H -6.786300 -14.675900 -24.203400
N -6.580700 -14.699900 -20.901400
C -6.269700 -14.840100 -22.216800
N -5.553400 -15.092000 -20.117900
C -4.989000 -15.351500 -22.201500
N -4.577800 -15.488900 -20.909000
H -4.475400 -15.572800 -22.969900
36
Fragment
H -24.382500 -14.021800 -24.488900
H -24.131400 -14.145900 -22.231100
H -23.637500 -16.208900 -24.218100
C -23.438000 -14.113900 -24.206600
C -23.295900 -13.903400 -22.703800
H -23.070200 -12.961800 -22.497500
C -22.934400 -15.546200 -24.431200
H -22.886900 -13.462100 -24.708200
H -22.639100 -15.677300 -25.367600
O -22.221700 -13.971600 -20.243300
N -22.186300 -14.811800 -22.322000
C -21.767800 -14.808200 -21.043000
C -21.749100 -15.662000 -23.455500
H -21.631500 -16.609300 -23.158300
H -21.252600 -16.570300 -20.079200
C -20.770000 -15.846600 -20.552700
H -20.548600 -14.170100 -24.278400
C -20.466100 -15.138400 -24.088700
H -20.301200 -16.245600 -21.327300
H -20.287200 -15.611000 -24.939300
H -20.225800 -14.789900 -18.848700
C -19.742500 -15.209800 -19.604500
O -19.401400 -15.371000 -23.161300
H -19.374300 -13.666600 -20.944700
H -19.168400 -15.925600 -19.232900
C -18.845600 -14.152500 -20.263500
H -18.568600 -13.496500 -19.575800
H -18.560200 -13.568300 -23.276100
C -18.281300 -14.517300 -23.325100
H -17.851700 -14.675900 -24.203400
N -17.646100 -14.699900 -20.901400
C -17.335100 -14.840100 -22.216800
N -16.618800 -15.092000 -20.117900
C -16.054400 -15.351500 -22.201500
N -15.643200 -15.488900 -20.909000
H -15.540800 -15.572800 -22.969900
72
Fragment
H -13.317100 -14.021800 -24.488900
H -13.066000 -14.145900 -22.231100
H -12.572100 -16.208900 -24.218100
C -12.372600 -14.113900 -24.206600
C -12.230500 -13.903400 -22.703800
H -12.004800 -12.961800 -22.497500
C -11.869000 -15.546200 -24.431200
H -11.821500 -13.462100 -24.708200
H -11.573700 -15.677300 -25.367600
O -11.156300 -13.971600 -20.243300
N -11.120900 -14.811800 -22.322000
C -10.702400 -14.808200 -21.043000
C -10.683700 -15.662000 -23.455500
H -10.566100 -16.609300 -23.158300
H -10.187200 -16.570300 -20.079200
C -9.704600 -15.846600 -20.552700
H -9.483200 -14.170100 -24.278400
C -9.400700 -15.138400 -24.088700
H -9.235800 -16.245600 -21.327300
H -9.221800 -15.611000 -24.939300
H -9.160400 -14.789900 -18.848700
C -8.677100 -15.209800 -19.604500
O -8.336000 -15.371000 -23.161300
H -8.308900 -13.666600 -20.944700
H -8.103000 -15.925600 -19.232900
C -7.780200 -14.152500 -20.263500
H -7.503200 -13.496500 -19.575800
H -7.494800 -13.568300 -23.276100
C -7.215900 -14.517300 -23.325100
H -6.786300 -14.675900 -24.203400
N -6.580700 -14.699900 -20.901400
C -6.269700 -14.840100 -22.216800
N -5.553400 -15.092000 -20.117900
C -4.989000 -15.351500 -22.201500
N -4.577800 -15.488900 -20.909000
H -4.475400 -15.572800 -22.969900
H -24.382500 -14.021800 -24.488900
H -24.131400 -14.145900 -22.231100
H -23.637500 -16.208900 -24.218100
C -23.438000 -14.113900 -24.206600
C -23.295900 -13.903400 -22.703800
H -23.070200 -12.961800 -22.497500
C -22.934400 -15.546200 -24.431200
H -22.886900 -13.462100 -24.708200
H -22.639100 -15.677300 -25.367600
O -22.221700 -13.971600 -20.243300
N -22.186300 -14.811800 -22.322000
C -21.767800 -14.808200 -21.043000
C -21.749100 -15.662000 -23.455500
H -21.631500 -16.609300 -23.158300
H -21.252600 -16.570300 -20.079200
C -20.770000 -15.846600 -20.552700
H -20.548600 -14.170100 -24.278400
C -20.466100 -15.138400 -24.088700
H -20.301200 -16.245600 -21.327300
H -20.287200 -15.611000 -24.939300
H -20.225800 -14.789900 -18.848700
C -19.742500 -15.209800 -19.604500
O -19.401400 -15.371000 -23.161300
H -19.374300 -13.666600 -20.944700
H -19.168400 -15.925600 -19.232900
C -18.845600 -14.152500 -20.263500
H -18.568600 -13.496500 -19.575800
H -18.560200 -13.568300 -23.276100
C -18.281300 -14.517300 -23.325100
H -17.851700 -14.675900 -24.203400
N -17.646100 -14.699900 -20.901400
C -17.335100 -14.840100 -22.216800
N -16.618800 -15.092000 -20.117900
C -16.054400 -15.351500 -22.201500
N -15.643200 -15.488900 -20.909000
H -15.540800 -15.572800 -22.969900
