36
Fragment
H -13.317100 -14.021800 -24.488900
H -13.066000 -14.145900 -22.231100
H -12.572100 -16.208900 -24.218100
C -12.372600 -14.113900 -24.206600
C -12.230500 -13.903400 -22.703800
H -12.004800 -12.961800 -22.497500
C -11.869000 -15.546200 -24.431200
H -11.821500 -13.462100 -24.708200
H -11.573700 -15.677300 -25.367600
O -11.156300 -13.971600 -20.243300
N -11.120900 -14.811800 -22.322000
C -10.702400 -14.808200 -21.043000
C -10.683700 -15.662000 -23.455500
H -10.566100 -16.609300 -23.158300
H -10.187200 -16.570300 -20.079200
C -9.704600 -15.846600 -20.552700
H -9.483200 -14.170100 -24.278400
C -9.400700 -15.138400 -24.088700
H -9.235800 -16.245600 -21.327300
H -9.221800 -15.611000 -24.939300
H -9.160400 -14.789900 -18.848700
C -8.677100 -15.209800 -19.604500
O -8.336000 -15.371000 -23.161300
H -8.308900 -13.666600 -20.944700
H -8.103000 -15.925600 -19.232900
C -7.780200 -14.152500 -20.263500
H -7.503200 -13.496500 -19.575800
H -7.494800 -13.568300 -23.276100
C -7.215900 -14.517300 -23.325100
H -6.786300 -14.675900 -24.203400
N -6.580700 -14.699900 -20.901400
C -6.269700 -14.840100 -22.216800
N -5.553400 -15.092000 -20.117900
C -4.989000 -15.351500 -22.201500
N -4.577800 -15.488900 -20.909000
H -4.475400 -15.572800 -22.969900
36
Fragment
H -2.251700 -14.021800 -24.488900
H -2.000600 -14.145900 -22.231100
H -1.506700 -16.208900 -24.218100
C -1.307200 -14.113900 -24.206600
C -1.165100 -13.903400 -22.703800
H -0.939400 -12.961800 -22.497500
C -0.803600 -15.546200 -24.431200
H -0.756100 -13.462100 -24.708200
H -0.508300 -15.677300 -25.367600
O -0.090900 -13.971600 -20.243300
N -0.055500 -14.811800 -22.322000
C 0.363000 -14.808200 -21.043000
C 0.381700 -15.662000 -23.455500
H 0.499300 -16.609300 -23.158300
H 0.878200 -16.570300 -20.079200
C 1.360800 -15.846600 -20.552700
H 1.582200 -14.170100 -24.278400
C 1.664700 -15.138400 -24.088700
H 1.829600 -16.245600 -21.327300
H 1.843600 -15.611000 -24.939300
H 1.905000 -14.789900 -18.848700
C 2.388300 -15.209800 -19.604500
O 2.729400 -15.371000 -23.161300
H 2.756500 -13.666600 -20.944700
H 2.962400 -15.925600 -19.232900
C 3.285200 -14.152500 -20.263500
H 3.562200 -13.496500 -19.575800
H 3.570600 -13.568300 -23.276100
C 3.849500 -14.517300 -23.325100
H 4.279100 -14.675900 -24.203400
N 4.484700 -14.699900 -20.901400
C 4.795700 -14.840100 -22.216800
N 5.512000 -15.092000 -20.117900
C 6.076400 -15.351500 -22.201500
N 6.487600 -15.488900 -20.909000
H 6.590000 -15.572800 -22.969900
72
Fragment
H -13.317100 -14.021800 -24.488900
H -13.066000 -14.145900 -22.231100
H -12.572100 -16.208900 -24.218100
C -12.372600 -14.113900 -24.206600
C -12.230500 -13.903400 -22.703800
H -12.004800 -12.961800 -22.497500
C -11.869000 -15.546200 -24.431200
H -11.821500 -13.462100 -24.708200
H -11.573700 -15.677300 -25.367600
O -11.156300 -13.971600 -20.243300
N -11.120900 -14.811800 -22.322000
C -10.702400 -14.808200 -21.043000
C -10.683700 -15.662000 -23.455500
H -10.566100 -16.609300 -23.158300
H -10.187200 -16.570300 -20.079200
C -9.704600 -15.846600 -20.552700
H -9.483200 -14.170100 -24.278400
C -9.400700 -15.138400 -24.088700
H -9.235800 -16.245600 -21.327300
H -9.221800 -15.611000 -24.939300
H -9.160400 -14.789900 -18.848700
C -8.677100 -15.209800 -19.604500
O -8.336000 -15.371000 -23.161300
H -8.308900 -13.666600 -20.944700
H -8.103000 -15.925600 -19.232900
C -7.780200 -14.152500 -20.263500
H -7.503200 -13.496500 -19.575800
H -7.494800 -13.568300 -23.276100
C -7.215900 -14.517300 -23.325100
H -6.786300 -14.675900 -24.203400
N -6.580700 -14.699900 -20.901400
C -6.269700 -14.840100 -22.216800
N -5.553400 -15.092000 -20.117900
C -4.989000 -15.351500 -22.201500
N -4.577800 -15.488900 -20.909000
H -4.475400 -15.572800 -22.969900
H -2.251700 -14.021800 -24.488900
H -2.000600 -14.145900 -22.231100
H -1.506700 -16.208900 -24.218100
C -1.307200 -14.113900 -24.206600
C -1.165100 -13.903400 -22.703800
H -0.939400 -12.961800 -22.497500
C -0.803600 -15.546200 -24.431200
H -0.756100 -13.462100 -24.708200
H -0.508300 -15.677300 -25.367600
O -0.090900 -13.971600 -20.243300
N -0.055500 -14.811800 -22.322000
C 0.363000 -14.808200 -21.043000
C 0.381700 -15.662000 -23.455500
H 0.499300 -16.609300 -23.158300
H 0.878200 -16.570300 -20.079200
C 1.360800 -15.846600 -20.552700
H 1.582200 -14.170100 -24.278400
C 1.664700 -15.138400 -24.088700
H 1.829600 -16.245600 -21.327300
H 1.843600 -15.611000 -24.939300
H 1.905000 -14.789900 -18.848700
C 2.388300 -15.209800 -19.604500
O 2.729400 -15.371000 -23.161300
H 2.756500 -13.666600 -20.944700
H 2.962400 -15.925600 -19.232900
C 3.285200 -14.152500 -20.263500
H 3.562200 -13.496500 -19.575800
H 3.570600 -13.568300 -23.276100
C 3.849500 -14.517300 -23.325100
H 4.279100 -14.675900 -24.203400
N 4.484700 -14.699900 -20.901400
C 4.795700 -14.840100 -22.216800
N 5.512000 -15.092000 -20.117900
C 6.076400 -15.351500 -22.201500
N 6.487600 -15.488900 -20.909000
H 6.590000 -15.572800 -22.969900
