36
Fragment
H -13.317100 -14.021800 -24.488900
H -13.066000 -14.145900 -22.231100
H -12.572100 -16.208900 -24.218100
C -12.372600 -14.113900 -24.206600
C -12.230500 -13.903400 -22.703800
H -12.004800 -12.961800 -22.497500
C -11.869000 -15.546200 -24.431200
H -11.821500 -13.462100 -24.708200
H -11.573700 -15.677300 -25.367600
O -11.156300 -13.971600 -20.243300
N -11.120900 -14.811800 -22.322000
C -10.702400 -14.808200 -21.043000
C -10.683700 -15.662000 -23.455500
H -10.566100 -16.609300 -23.158300
H -10.187200 -16.570300 -20.079200
C -9.704600 -15.846600 -20.552700
H -9.483200 -14.170100 -24.278400
C -9.400700 -15.138400 -24.088700
H -9.235800 -16.245600 -21.327300
H -9.221800 -15.611000 -24.939300
H -9.160400 -14.789900 -18.848700
C -8.677100 -15.209800 -19.604500
O -8.336000 -15.371000 -23.161300
H -8.308900 -13.666600 -20.944700
H -8.103000 -15.925600 -19.232900
C -7.780200 -14.152500 -20.263500
H -7.503200 -13.496500 -19.575800
H -7.494800 -13.568300 -23.276100
C -7.215900 -14.517300 -23.325100
H -6.786300 -14.675900 -24.203400
N -6.580700 -14.699900 -20.901400
C -6.269700 -14.840100 -22.216800
N -5.553400 -15.092000 -20.117900
C -4.989000 -15.351500 -22.201500
N -4.577800 -15.488900 -20.909000
H -4.475400 -15.572800 -22.969900
36
Fragment
H -14.299600 -19.591000 -11.941300
H -14.288100 -19.673800 -14.213800
H -13.589100 -17.448400 -12.493200
C -13.403900 -19.872800 -13.814900
C -13.389800 -19.534000 -12.328200
H -13.192200 -20.828200 -13.962100
C -12.866100 -18.094700 -12.293500
H -12.788500 -20.142900 -11.830900
O -12.644700 -19.946600 -16.408200
H -12.475800 -17.879300 -11.409900
N -12.354200 -19.003500 -14.396200
C -12.097700 -19.072700 -15.715900
C -11.793900 -18.077600 -13.388200
H -11.707100 -17.363300 -16.829300
H -11.700800 -17.158800 -13.770800
C -11.169300 -18.061900 -16.378500
H -10.844000 -19.222600 -18.065700
H -10.610100 -17.623300 -15.690100
H -10.514200 -19.531700 -12.606500
C -10.446200 -18.579600 -12.868200
C -10.269300 -18.761300 -17.404100
H -10.168700 -18.054900 -12.075200
H -9.748300 -18.072900 -17.889100
H -9.734100 -20.242800 -16.049200
O -9.493100 -18.425400 -13.918700
C -9.291500 -19.784300 -16.807100
H -9.087100 -20.467600 -17.493100
H -8.639100 -20.232600 -13.814900
C -8.357000 -19.284700 -13.844200
N -8.029800 -19.198400 -16.332700
H -7.823800 -19.086800 -13.033400
C -7.560400 -19.014400 -15.072800
N -7.110600 -18.818400 -17.250000
C -6.300100 -18.488000 -15.258100
N -6.052100 -18.383600 -16.594100
H -5.699700 -18.237600 -14.565600
72
Fragment
H -13.317100 -14.021800 -24.488900
H -13.066000 -14.145900 -22.231100
H -12.572100 -16.208900 -24.218100
C -12.372600 -14.113900 -24.206600
C -12.230500 -13.903400 -22.703800
H -12.004800 -12.961800 -22.497500
C -11.869000 -15.546200 -24.431200
H -11.821500 -13.462100 -24.708200
H -11.573700 -15.677300 -25.367600
O -11.156300 -13.971600 -20.243300
N -11.120900 -14.811800 -22.322000
C -10.702400 -14.808200 -21.043000
C -10.683700 -15.662000 -23.455500
H -10.566100 -16.609300 -23.158300
H -10.187200 -16.570300 -20.079200
C -9.704600 -15.846600 -20.552700
H -9.483200 -14.170100 -24.278400
C -9.400700 -15.138400 -24.088700
H -9.235800 -16.245600 -21.327300
H -9.221800 -15.611000 -24.939300
H -9.160400 -14.789900 -18.848700
C -8.677100 -15.209800 -19.604500
O -8.336000 -15.371000 -23.161300
H -8.308900 -13.666600 -20.944700
H -8.103000 -15.925600 -19.232900
C -7.780200 -14.152500 -20.263500
H -7.503200 -13.496500 -19.575800
H -7.494800 -13.568300 -23.276100
C -7.215900 -14.517300 -23.325100
H -6.786300 -14.675900 -24.203400
N -6.580700 -14.699900 -20.901400
C -6.269700 -14.840100 -22.216800
N -5.553400 -15.092000 -20.117900
C -4.989000 -15.351500 -22.201500
N -4.577800 -15.488900 -20.909000
H -4.475400 -15.572800 -22.969900
H -14.299600 -19.591000 -11.941300
H -14.288100 -19.673800 -14.213800
H -13.589100 -17.448400 -12.493200
C -13.403900 -19.872800 -13.814900
C -13.389800 -19.534000 -12.328200
H -13.192200 -20.828200 -13.962100
C -12.866100 -18.094700 -12.293500
H -12.788500 -20.142900 -11.830900
O -12.644700 -19.946600 -16.408200
H -12.475800 -17.879300 -11.409900
N -12.354200 -19.003500 -14.396200
C -12.097700 -19.072700 -15.715900
C -11.793900 -18.077600 -13.388200
H -11.707100 -17.363300 -16.829300
H -11.700800 -17.158800 -13.770800
C -11.169300 -18.061900 -16.378500
H -10.844000 -19.222600 -18.065700
H -10.610100 -17.623300 -15.690100
H -10.514200 -19.531700 -12.606500
C -10.446200 -18.579600 -12.868200
C -10.269300 -18.761300 -17.404100
H -10.168700 -18.054900 -12.075200
H -9.748300 -18.072900 -17.889100
H -9.734100 -20.242800 -16.049200
O -9.493100 -18.425400 -13.918700
C -9.291500 -19.784300 -16.807100
H -9.087100 -20.467600 -17.493100
H -8.639100 -20.232600 -13.814900
C -8.357000 -19.284700 -13.844200
N -8.029800 -19.198400 -16.332700
H -7.823800 -19.086800 -13.033400
C -7.560400 -19.014400 -15.072800
N -7.110600 -18.818400 -17.250000
C -6.300100 -18.488000 -15.258100
N -6.052100 -18.383600 -16.594100
H -5.699700 -18.237600 -14.565600
