36
Fragment
H -13.317100 -14.021800 -24.488900
H -13.066000 -14.145900 -22.231100
H -12.572100 -16.208900 -24.218100
C -12.372600 -14.113900 -24.206600
C -12.230500 -13.903400 -22.703800
H -12.004800 -12.961800 -22.497500
C -11.869000 -15.546200 -24.431200
H -11.821500 -13.462100 -24.708200
H -11.573700 -15.677300 -25.367600
O -11.156300 -13.971600 -20.243300
N -11.120900 -14.811800 -22.322000
C -10.702400 -14.808200 -21.043000
C -10.683700 -15.662000 -23.455500
H -10.566100 -16.609300 -23.158300
H -10.187200 -16.570300 -20.079200
C -9.704600 -15.846600 -20.552700
H -9.483200 -14.170100 -24.278400
C -9.400700 -15.138400 -24.088700
H -9.235800 -16.245600 -21.327300
H -9.221800 -15.611000 -24.939300
H -9.160400 -14.789900 -18.848700
C -8.677100 -15.209800 -19.604500
O -8.336000 -15.371000 -23.161300
H -8.308900 -13.666600 -20.944700
H -8.103000 -15.925600 -19.232900
C -7.780200 -14.152500 -20.263500
H -7.503200 -13.496500 -19.575800
H -7.494800 -13.568300 -23.276100
C -7.215900 -14.517300 -23.325100
H -6.786300 -14.675900 -24.203400
N -6.580700 -14.699900 -20.901400
C -6.269700 -14.840100 -22.216800
N -5.553400 -15.092000 -20.117900
C -4.989000 -15.351500 -22.201500
N -4.577800 -15.488900 -20.909000
H -4.475400 -15.572800 -22.969900
36
Fragment
H -21.015200 -11.670000 -21.186000
N -20.912700 -11.586200 -23.246900
C -20.501500 -11.448800 -21.954500
N -19.937100 -11.189300 -24.038100
C -19.220800 -10.937300 -21.939200
N -18.909800 -10.797200 -23.254600
H -18.704200 -10.773200 -19.952600
C -18.274600 -10.614500 -20.830900
H -17.995700 -9.665600 -20.879900
H -17.987400 -9.593700 -24.580200
C -17.710400 -10.249800 -23.892500
H -17.387500 -12.022800 -24.923100
H -17.181700 -9.763900 -23.211300
O -17.154500 -11.468200 -20.994700
C -16.813500 -11.307000 -24.551500
H -16.330100 -10.887100 -25.307300
H -16.268800 -11.708300 -19.216700
H -16.254800 -12.342800 -22.828600
C -16.089800 -11.235600 -20.067300
H -16.007400 -10.267400 -19.877600
C -15.786000 -11.943800 -23.603300
H -15.303300 -12.667500 -24.076800
H -14.924500 -12.706600 -20.997600
C -14.806800 -11.759200 -20.700500
C -14.788100 -10.905500 -23.113000
N -14.369700 -10.909000 -21.834000
O -14.334200 -10.068900 -23.912700
H -13.916900 -11.774600 -18.788400
H -13.669000 -9.559400 -19.447800
C -13.621600 -11.643500 -19.724800
H -13.485700 -9.059100 -21.658500
C -13.260000 -10.000600 -21.452200
C -13.118000 -10.211200 -19.949400
H -12.918500 -12.306200 -19.937900
H -12.424500 -10.243200 -21.924900
H -12.173400 -10.119100 -19.667100
72
Fragment
H -13.317100 -14.021800 -24.488900
H -13.066000 -14.145900 -22.231100
H -12.572100 -16.208900 -24.218100
C -12.372600 -14.113900 -24.206600
C -12.230500 -13.903400 -22.703800
H -12.004800 -12.961800 -22.497500
C -11.869000 -15.546200 -24.431200
H -11.821500 -13.462100 -24.708200
H -11.573700 -15.677300 -25.367600
O -11.156300 -13.971600 -20.243300
N -11.120900 -14.811800 -22.322000
C -10.702400 -14.808200 -21.043000
C -10.683700 -15.662000 -23.455500
H -10.566100 -16.609300 -23.158300
H -10.187200 -16.570300 -20.079200
C -9.704600 -15.846600 -20.552700
H -9.483200 -14.170100 -24.278400
C -9.400700 -15.138400 -24.088700
H -9.235800 -16.245600 -21.327300
H -9.221800 -15.611000 -24.939300
H -9.160400 -14.789900 -18.848700
C -8.677100 -15.209800 -19.604500
O -8.336000 -15.371000 -23.161300
H -8.308900 -13.666600 -20.944700
H -8.103000 -15.925600 -19.232900
C -7.780200 -14.152500 -20.263500
H -7.503200 -13.496500 -19.575800
H -7.494800 -13.568300 -23.276100
C -7.215900 -14.517300 -23.325100
H -6.786300 -14.675900 -24.203400
N -6.580700 -14.699900 -20.901400
C -6.269700 -14.840100 -22.216800
N -5.553400 -15.092000 -20.117900
C -4.989000 -15.351500 -22.201500
N -4.577800 -15.488900 -20.909000
H -4.475400 -15.572800 -22.969900
H -21.015200 -11.670000 -21.186000
N -20.912700 -11.586200 -23.246900
C -20.501500 -11.448800 -21.954500
N -19.937100 -11.189300 -24.038100
C -19.220800 -10.937300 -21.939200
N -18.909800 -10.797200 -23.254600
H -18.704200 -10.773200 -19.952600
C -18.274600 -10.614500 -20.830900
H -17.995700 -9.665600 -20.879900
H -17.987400 -9.593700 -24.580200
C -17.710400 -10.249800 -23.892500
H -17.387500 -12.022800 -24.923100
H -17.181700 -9.763900 -23.211300
O -17.154500 -11.468200 -20.994700
C -16.813500 -11.307000 -24.551500
H -16.330100 -10.887100 -25.307300
H -16.268800 -11.708300 -19.216700
H -16.254800 -12.342800 -22.828600
C -16.089800 -11.235600 -20.067300
H -16.007400 -10.267400 -19.877600
C -15.786000 -11.943800 -23.603300
H -15.303300 -12.667500 -24.076800
H -14.924500 -12.706600 -20.997600
C -14.806800 -11.759200 -20.700500
C -14.788100 -10.905500 -23.113000
N -14.369700 -10.909000 -21.834000
O -14.334200 -10.068900 -23.912700
H -13.916900 -11.774600 -18.788400
H -13.669000 -9.559400 -19.447800
C -13.621600 -11.643500 -19.724800
H -13.485700 -9.059100 -21.658500
C -13.260000 -10.000600 -21.452200
C -13.118000 -10.211200 -19.949400
H -12.918500 -12.306200 -19.937900
H -12.424500 -10.243200 -21.924900
H -12.173400 -10.119100 -19.667100
