42
Fragment
H -20.014300 -22.031000 -18.516300
H -19.764900 -23.794000 -20.090900
H -19.637500 -24.327900 -18.590300
C -19.195300 -23.775000 -19.281300
C -19.109300 -22.336400 -18.775900
H -18.794000 -21.754600 -19.512100
N -18.581000 -22.589700 -16.394600
N -18.207500 -22.185500 -17.629600
H -17.959400 -25.067600 -20.346100
C -17.832500 -24.405200 -19.621500
H -17.626400 -24.840200 -17.594500
N -17.547800 -22.394200 -15.591900
H -17.249400 -26.080800 -18.529300
H -17.230700 -23.697500 -19.963300
C -17.151700 -25.101200 -18.423600
C -16.941500 -21.726300 -17.624900
C -16.525600 -21.864000 -16.315500
H -16.445400 -21.384800 -18.359100
H -15.748300 -25.181300 -16.392500
C -15.674500 -24.774900 -18.260700
H -15.210900 -21.651000 -14.758700
N -15.201000 -24.955200 -17.018000
C -15.193700 -21.508800 -15.737800
H -15.007400 -20.551500 -15.905200
O -14.972400 -24.394000 -19.208000
H -14.505200 -23.670200 -14.895500
O -14.149600 -22.307700 -16.319000
H -13.894500 -26.302500 -15.269100
C -13.828800 -24.691700 -16.585300
C -13.818700 -23.511600 -15.605600
H -13.277100 -24.454500 -17.384600
C -13.249100 -25.961400 -15.938000
H -13.142900 -26.656500 -16.635600
H -12.606200 -24.827300 -13.527100
H -12.516300 -22.587900 -14.287100
C -12.459000 -23.320000 -14.950200
C -11.979900 -24.590500 -14.255700
C -11.898800 -25.740200 -15.253200
H -11.798300 -23.055700 -15.638900
H -11.628100 -26.567300 -14.781800
H -11.211300 -25.536800 -15.935700
H -11.087500 -24.434400 -13.856300
42
Fragment
H -18.589100 -28.340300 -23.139400
H -18.339700 -26.577300 -24.714000
H -18.212400 -26.043400 -23.213300
C -17.770200 -26.596300 -23.904400
C -17.684200 -28.034900 -23.399000
H -17.368800 -28.616700 -24.135200
N -17.155800 -27.781600 -21.017700
N -16.782300 -28.185800 -22.252700
H -16.534300 -25.303700 -24.969200
C -16.407300 -25.966100 -24.244600
H -16.201300 -25.531100 -22.217500
N -16.122600 -27.977100 -20.215000
H -15.824300 -24.290500 -23.152300
H -15.805500 -26.673800 -24.586400
C -15.726500 -25.270100 -23.046600
C -15.516300 -28.645000 -22.248000
C -15.100500 -28.507300 -20.938500
H -15.020300 -28.986500 -22.982200
H -14.323100 -25.190000 -21.015500
C -14.249300 -25.596400 -22.883700
H -13.785700 -28.720300 -19.381700
N -13.775800 -25.416100 -21.641000
C -13.768600 -28.862500 -20.360900
H -13.582200 -29.819800 -20.528300
O -13.547200 -25.977300 -23.831100
H -13.080100 -26.701100 -19.518600
O -12.724400 -28.063600 -20.942000
H -12.469400 -24.068800 -19.892100
C -12.403700 -25.679600 -21.208400
C -12.393500 -26.859700 -20.228700
H -11.851900 -25.916800 -22.007700
C -11.824000 -24.409900 -20.561100
H -11.717700 -23.714800 -21.258700
H -11.181000 -25.544000 -18.150200
H -11.091100 -27.783400 -18.910200
C -11.033900 -27.051300 -19.573200
C -10.554700 -25.780800 -18.878800
C -10.473600 -24.631100 -19.876200
H -10.373200 -27.315600 -20.262000
H -10.202900 -23.804000 -19.404900
H -9.786200 -24.834500 -20.558800
H -9.662400 -25.936900 -18.479300
84
Fragment
H -20.014300 -22.031000 -18.516300
H -19.764900 -23.794000 -20.090900
H -19.637500 -24.327900 -18.590300
C -19.195300 -23.775000 -19.281300
C -19.109300 -22.336400 -18.775900
H -18.794000 -21.754600 -19.512100
N -18.581000 -22.589700 -16.394600
N -18.207500 -22.185500 -17.629600
H -17.959400 -25.067600 -20.346100
C -17.832500 -24.405200 -19.621500
H -17.626400 -24.840200 -17.594500
N -17.547800 -22.394200 -15.591900
H -17.249400 -26.080800 -18.529300
H -17.230700 -23.697500 -19.963300
C -17.151700 -25.101200 -18.423600
C -16.941500 -21.726300 -17.624900
C -16.525600 -21.864000 -16.315500
H -16.445400 -21.384800 -18.359100
H -15.748300 -25.181300 -16.392500
C -15.674500 -24.774900 -18.260700
H -15.210900 -21.651000 -14.758700
N -15.201000 -24.955200 -17.018000
C -15.193700 -21.508800 -15.737800
H -15.007400 -20.551500 -15.905200
O -14.972400 -24.394000 -19.208000
H -14.505200 -23.670200 -14.895500
O -14.149600 -22.307700 -16.319000
H -13.894500 -26.302500 -15.269100
C -13.828800 -24.691700 -16.585300
C -13.818700 -23.511600 -15.605600
H -13.277100 -24.454500 -17.384600
C -13.249100 -25.961400 -15.938000
H -13.142900 -26.656500 -16.635600
H -12.606200 -24.827300 -13.527100
H -12.516300 -22.587900 -14.287100
C -12.459000 -23.320000 -14.950200
C -11.979900 -24.590500 -14.255700
C -11.898800 -25.740200 -15.253200
H -11.798300 -23.055700 -15.638900
H -11.628100 -26.567300 -14.781800
H -11.211300 -25.536800 -15.935700
H -11.087500 -24.434400 -13.856300
H -18.589100 -28.340300 -23.139400
H -18.339700 -26.577300 -24.714000
H -18.212400 -26.043400 -23.213300
C -17.770200 -26.596300 -23.904400
C -17.684200 -28.034900 -23.399000
H -17.368800 -28.616700 -24.135200
N -17.155800 -27.781600 -21.017700
N -16.782300 -28.185800 -22.252700
H -16.534300 -25.303700 -24.969200
C -16.407300 -25.966100 -24.244600
H -16.201300 -25.531100 -22.217500
N -16.122600 -27.977100 -20.215000
H -15.824300 -24.290500 -23.152300
H -15.805500 -26.673800 -24.586400
C -15.726500 -25.270100 -23.046600
C -15.516300 -28.645000 -22.248000
C -15.100500 -28.507300 -20.938500
H -15.020300 -28.986500 -22.982200
H -14.323100 -25.190000 -21.015500
C -14.249300 -25.596400 -22.883700
H -13.785700 -28.720300 -19.381700
N -13.775800 -25.416100 -21.641000
C -13.768600 -28.862500 -20.360900
H -13.582200 -29.819800 -20.528300
O -13.547200 -25.977300 -23.831100
H -13.080100 -26.701100 -19.518600
O -12.724400 -28.063600 -20.942000
H -12.469400 -24.068800 -19.892100
C -12.403700 -25.679600 -21.208400
C -12.393500 -26.859700 -20.228700
H -11.851900 -25.916800 -22.007700
C -11.824000 -24.409900 -20.561100
H -11.717700 -23.714800 -21.258700
H -11.181000 -25.544000 -18.150200
H -11.091100 -27.783400 -18.910200
C -11.033900 -27.051300 -19.573200
C -10.554700 -25.780800 -18.878800
C -10.473600 -24.631100 -19.876200
H -10.373200 -27.315600 -20.262000
H -10.202900 -23.804000 -19.404900
H -9.786200 -24.834500 -20.558800
H -9.662400 -25.936900 -18.479300
