42
Fragment
H -20.014300 -22.031000 -18.516300
H -19.764900 -23.794000 -20.090900
H -19.637500 -24.327900 -18.590300
C -19.195300 -23.775000 -19.281300
C -19.109300 -22.336400 -18.775900
H -18.794000 -21.754600 -19.512100
N -18.581000 -22.589700 -16.394600
N -18.207500 -22.185500 -17.629600
H -17.959400 -25.067600 -20.346100
C -17.832500 -24.405200 -19.621500
H -17.626400 -24.840200 -17.594500
N -17.547800 -22.394200 -15.591900
H -17.249400 -26.080800 -18.529300
H -17.230700 -23.697500 -19.963300
C -17.151700 -25.101200 -18.423600
C -16.941500 -21.726300 -17.624900
C -16.525600 -21.864000 -16.315500
H -16.445400 -21.384800 -18.359100
H -15.748300 -25.181300 -16.392500
C -15.674500 -24.774900 -18.260700
H -15.210900 -21.651000 -14.758700
N -15.201000 -24.955200 -17.018000
C -15.193700 -21.508800 -15.737800
H -15.007400 -20.551500 -15.905200
O -14.972400 -24.394000 -19.208000
H -14.505200 -23.670200 -14.895500
O -14.149600 -22.307700 -16.319000
H -13.894500 -26.302500 -15.269100
C -13.828800 -24.691700 -16.585300
C -13.818700 -23.511600 -15.605600
H -13.277100 -24.454500 -17.384600
C -13.249100 -25.961400 -15.938000
H -13.142900 -26.656500 -16.635600
H -12.606200 -24.827300 -13.527100
H -12.516300 -22.587900 -14.287100
C -12.459000 -23.320000 -14.950200
C -11.979900 -24.590500 -14.255700
C -11.898800 -25.740200 -15.253200
H -11.798300 -23.055700 -15.638900
H -11.628100 -26.567300 -14.781800
H -11.211300 -25.536800 -15.935700
H -11.087500 -24.434400 -13.856300
42
Fragment
H -22.003600 -18.741000 -13.882100
H -21.879900 -17.638600 -11.802700
H -21.463100 -16.608100 -12.956600
H -21.292800 -20.119700 -12.099500
C -21.192400 -17.435200 -12.485200
C -21.111300 -18.584900 -13.482700
C -20.632200 -19.855400 -12.788200
H -20.574900 -20.587500 -13.451300
H -20.485000 -18.348100 -14.211300
H -19.948300 -16.518900 -11.102800
C -19.842000 -17.214000 -11.800400
H -19.814100 -18.720900 -10.353800
C -19.272500 -19.663800 -12.132800
C -19.262300 -18.483700 -11.153100
H -19.196600 -16.872900 -12.469300
O -18.941600 -20.867700 -11.419400
H -18.585900 -19.505200 -12.842900
O -18.118800 -18.781400 -8.530400
H -18.083800 -22.623900 -11.833200
C -17.897400 -21.666600 -12.000600
N -17.890200 -18.220200 -10.720400
H -17.880300 -21.524400 -12.979700
C -17.416700 -18.400500 -9.477800
H -17.342900 -17.994100 -11.345900
H -16.645700 -21.790600 -9.379300
C -16.565500 -21.311400 -11.423000
C -16.149700 -21.449100 -10.113500
C -15.939500 -18.074200 -9.314800
H -15.860500 -19.477900 -7.775100
H -15.841700 -17.094600 -9.209200
N -15.543400 -20.781200 -12.146500
H -15.464700 -18.335200 -10.143900
C -15.258700 -18.770200 -8.116900
H -15.131700 -18.107800 -7.392300
N -14.883700 -20.989900 -10.108800
N -14.510200 -20.585700 -11.343800
H -14.297200 -21.420800 -8.226300
C -13.981800 -20.839000 -8.962500
C -13.895800 -19.400400 -8.457100
H -13.453600 -18.847500 -9.148100
H -13.326300 -19.381400 -7.647500
H -13.076900 -21.144400 -9.222100
84
Fragment
H -20.014300 -22.031000 -18.516300
H -19.764900 -23.794000 -20.090900
H -19.637500 -24.327900 -18.590300
C -19.195300 -23.775000 -19.281300
C -19.109300 -22.336400 -18.775900
H -18.794000 -21.754600 -19.512100
N -18.581000 -22.589700 -16.394600
N -18.207500 -22.185500 -17.629600
H -17.959400 -25.067600 -20.346100
C -17.832500 -24.405200 -19.621500
H -17.626400 -24.840200 -17.594500
N -17.547800 -22.394200 -15.591900
H -17.249400 -26.080800 -18.529300
H -17.230700 -23.697500 -19.963300
C -17.151700 -25.101200 -18.423600
C -16.941500 -21.726300 -17.624900
C -16.525600 -21.864000 -16.315500
H -16.445400 -21.384800 -18.359100
H -15.748300 -25.181300 -16.392500
C -15.674500 -24.774900 -18.260700
H -15.210900 -21.651000 -14.758700
N -15.201000 -24.955200 -17.018000
C -15.193700 -21.508800 -15.737800
H -15.007400 -20.551500 -15.905200
O -14.972400 -24.394000 -19.208000
H -14.505200 -23.670200 -14.895500
O -14.149600 -22.307700 -16.319000
H -13.894500 -26.302500 -15.269100
C -13.828800 -24.691700 -16.585300
C -13.818700 -23.511600 -15.605600
H -13.277100 -24.454500 -17.384600
C -13.249100 -25.961400 -15.938000
H -13.142900 -26.656500 -16.635600
H -12.606200 -24.827300 -13.527100
H -12.516300 -22.587900 -14.287100
C -12.459000 -23.320000 -14.950200
C -11.979900 -24.590500 -14.255700
C -11.898800 -25.740200 -15.253200
H -11.798300 -23.055700 -15.638900
H -11.628100 -26.567300 -14.781800
H -11.211300 -25.536800 -15.935700
H -11.087500 -24.434400 -13.856300
H -22.003600 -18.741000 -13.882100
H -21.879900 -17.638600 -11.802700
H -21.463100 -16.608100 -12.956600
H -21.292800 -20.119700 -12.099500
C -21.192400 -17.435200 -12.485200
C -21.111300 -18.584900 -13.482700
C -20.632200 -19.855400 -12.788200
H -20.574900 -20.587500 -13.451300
H -20.485000 -18.348100 -14.211300
H -19.948300 -16.518900 -11.102800
C -19.842000 -17.214000 -11.800400
H -19.814100 -18.720900 -10.353800
C -19.272500 -19.663800 -12.132800
C -19.262300 -18.483700 -11.153100
H -19.196600 -16.872900 -12.469300
O -18.941600 -20.867700 -11.419400
H -18.585900 -19.505200 -12.842900
O -18.118800 -18.781400 -8.530400
H -18.083800 -22.623900 -11.833200
C -17.897400 -21.666600 -12.000600
N -17.890200 -18.220200 -10.720400
H -17.880300 -21.524400 -12.979700
C -17.416700 -18.400500 -9.477800
H -17.342900 -17.994100 -11.345900
H -16.645700 -21.790600 -9.379300
C -16.565500 -21.311400 -11.423000
C -16.149700 -21.449100 -10.113500
C -15.939500 -18.074200 -9.314800
H -15.860500 -19.477900 -7.775100
H -15.841700 -17.094600 -9.209200
N -15.543400 -20.781200 -12.146500
H -15.464700 -18.335200 -10.143900
C -15.258700 -18.770200 -8.116900
H -15.131700 -18.107800 -7.392300
N -14.883700 -20.989900 -10.108800
N -14.510200 -20.585700 -11.343800
H -14.297200 -21.420800 -8.226300
C -13.981800 -20.839000 -8.962500
C -13.895800 -19.400400 -8.457100
H -13.453600 -18.847500 -9.148100
H -13.326300 -19.381400 -7.647500
H -13.076900 -21.144400 -9.222100
