42
Fragment
H -20.014300 -22.031000 -18.516300
H -19.764900 -23.794000 -20.090900
H -19.637500 -24.327900 -18.590300
C -19.195300 -23.775000 -19.281300
C -19.109300 -22.336400 -18.775900
H -18.794000 -21.754600 -19.512100
N -18.581000 -22.589700 -16.394600
N -18.207500 -22.185500 -17.629600
H -17.959400 -25.067600 -20.346100
C -17.832500 -24.405200 -19.621500
H -17.626400 -24.840200 -17.594500
N -17.547800 -22.394200 -15.591900
H -17.249400 -26.080800 -18.529300
H -17.230700 -23.697500 -19.963300
C -17.151700 -25.101200 -18.423600
C -16.941500 -21.726300 -17.624900
C -16.525600 -21.864000 -16.315500
H -16.445400 -21.384800 -18.359100
H -15.748300 -25.181300 -16.392500
C -15.674500 -24.774900 -18.260700
H -15.210900 -21.651000 -14.758700
N -15.201000 -24.955200 -17.018000
C -15.193700 -21.508800 -15.737800
H -15.007400 -20.551500 -15.905200
O -14.972400 -24.394000 -19.208000
H -14.505200 -23.670200 -14.895500
O -14.149600 -22.307700 -16.319000
H -13.894500 -26.302500 -15.269100
C -13.828800 -24.691700 -16.585300
C -13.818700 -23.511600 -15.605600
H -13.277100 -24.454500 -17.384600
C -13.249100 -25.961400 -15.938000
H -13.142900 -26.656500 -16.635600
H -12.606200 -24.827300 -13.527100
H -12.516300 -22.587900 -14.287100
C -12.459000 -23.320000 -14.950200
C -11.979900 -24.590500 -14.255700
C -11.898800 -25.740200 -15.253200
H -11.798300 -23.055700 -15.638900
H -11.628100 -26.567300 -14.781800
H -11.211300 -25.536800 -15.935700
H -11.087500 -24.434400 -13.856300
42
Fragment
H -20.578500 -31.630300 -18.505200
H -20.454700 -32.732700 -16.425800
H -20.037900 -33.763200 -17.579700
H -19.867700 -30.251600 -16.722600
C -19.767200 -32.936100 -17.108300
C -19.686100 -31.786400 -18.105800
C -19.207000 -30.515900 -17.411300
H -19.149700 -29.783800 -18.074300
H -19.059800 -32.023200 -18.834400
H -18.523100 -33.852400 -15.725800
C -18.416900 -33.157300 -16.423400
H -18.388900 -31.650400 -14.976900
C -17.847300 -30.707500 -16.755800
C -17.837200 -31.887600 -15.776100
H -17.771500 -33.498400 -17.092400
O -17.516500 -29.503600 -16.042500
H -17.160800 -30.866100 -17.465900
O -16.693600 -31.589900 -13.153500
H -16.658600 -27.747400 -16.456300
C -16.472300 -28.704700 -16.623600
N -16.465000 -32.151100 -15.343500
H -16.455100 -28.846900 -17.602800
C -15.991500 -31.970800 -14.100800
H -15.917700 -32.377200 -15.969000
H -15.220600 -28.580700 -14.002300
C -15.140400 -29.059900 -16.046000
C -14.724500 -28.922200 -14.736600
C -14.514300 -32.297100 -13.937900
H -14.435300 -30.893400 -12.398100
H -14.416600 -33.276700 -13.832200
N -14.118200 -29.590100 -16.769500
H -14.039600 -32.036100 -14.767000
C -13.833600 -31.601100 -12.740000
H -13.706600 -32.263500 -12.015400
N -13.458500 -29.381400 -14.731900
N -13.085000 -29.785600 -15.966900
H -12.872000 -28.950500 -12.849400
C -12.556700 -29.532300 -13.585500
C -12.470700 -30.970900 -13.080100
H -12.028500 -31.523800 -13.771200
H -11.901200 -30.989900 -12.270500
H -11.651700 -29.226900 -13.845200
84
Fragment
H -20.014300 -22.031000 -18.516300
H -19.764900 -23.794000 -20.090900
H -19.637500 -24.327900 -18.590300
C -19.195300 -23.775000 -19.281300
C -19.109300 -22.336400 -18.775900
H -18.794000 -21.754600 -19.512100
N -18.581000 -22.589700 -16.394600
N -18.207500 -22.185500 -17.629600
H -17.959400 -25.067600 -20.346100
C -17.832500 -24.405200 -19.621500
H -17.626400 -24.840200 -17.594500
N -17.547800 -22.394200 -15.591900
H -17.249400 -26.080800 -18.529300
H -17.230700 -23.697500 -19.963300
C -17.151700 -25.101200 -18.423600
C -16.941500 -21.726300 -17.624900
C -16.525600 -21.864000 -16.315500
H -16.445400 -21.384800 -18.359100
H -15.748300 -25.181300 -16.392500
C -15.674500 -24.774900 -18.260700
H -15.210900 -21.651000 -14.758700
N -15.201000 -24.955200 -17.018000
C -15.193700 -21.508800 -15.737800
H -15.007400 -20.551500 -15.905200
O -14.972400 -24.394000 -19.208000
H -14.505200 -23.670200 -14.895500
O -14.149600 -22.307700 -16.319000
H -13.894500 -26.302500 -15.269100
C -13.828800 -24.691700 -16.585300
C -13.818700 -23.511600 -15.605600
H -13.277100 -24.454500 -17.384600
C -13.249100 -25.961400 -15.938000
H -13.142900 -26.656500 -16.635600
H -12.606200 -24.827300 -13.527100
H -12.516300 -22.587900 -14.287100
C -12.459000 -23.320000 -14.950200
C -11.979900 -24.590500 -14.255700
C -11.898800 -25.740200 -15.253200
H -11.798300 -23.055700 -15.638900
H -11.628100 -26.567300 -14.781800
H -11.211300 -25.536800 -15.935700
H -11.087500 -24.434400 -13.856300
H -20.578500 -31.630300 -18.505200
H -20.454700 -32.732700 -16.425800
H -20.037900 -33.763200 -17.579700
H -19.867700 -30.251600 -16.722600
C -19.767200 -32.936100 -17.108300
C -19.686100 -31.786400 -18.105800
C -19.207000 -30.515900 -17.411300
H -19.149700 -29.783800 -18.074300
H -19.059800 -32.023200 -18.834400
H -18.523100 -33.852400 -15.725800
C -18.416900 -33.157300 -16.423400
H -18.388900 -31.650400 -14.976900
C -17.847300 -30.707500 -16.755800
C -17.837200 -31.887600 -15.776100
H -17.771500 -33.498400 -17.092400
O -17.516500 -29.503600 -16.042500
H -17.160800 -30.866100 -17.465900
O -16.693600 -31.589900 -13.153500
H -16.658600 -27.747400 -16.456300
C -16.472300 -28.704700 -16.623600
N -16.465000 -32.151100 -15.343500
H -16.455100 -28.846900 -17.602800
C -15.991500 -31.970800 -14.100800
H -15.917700 -32.377200 -15.969000
H -15.220600 -28.580700 -14.002300
C -15.140400 -29.059900 -16.046000
C -14.724500 -28.922200 -14.736600
C -14.514300 -32.297100 -13.937900
H -14.435300 -30.893400 -12.398100
H -14.416600 -33.276700 -13.832200
N -14.118200 -29.590100 -16.769500
H -14.039600 -32.036100 -14.767000
C -13.833600 -31.601100 -12.740000
H -13.706600 -32.263500 -12.015400
N -13.458500 -29.381400 -14.731900
N -13.085000 -29.785600 -15.966900
H -12.872000 -28.950500 -12.849400
C -12.556700 -29.532300 -13.585500
C -12.470700 -30.970900 -13.080100
H -12.028500 -31.523800 -13.771200
H -11.901200 -30.989900 -12.270500
H -11.651700 -29.226900 -13.845200
