21
Fragment
H -17.557800 -14.010100 -25.825200
H -17.450900 -10.351300 -22.171800
O -17.447400 -11.455900 -24.206700
N -17.181000 -14.408500 -25.050600
H -17.036800 -16.369400 -25.473700
H -17.029600 -10.852600 -20.747500
C -16.998900 -12.377400 -23.523100
C -16.904800 -15.703200 -24.838800
C -16.855700 -13.739800 -23.889000
C -16.765700 -10.798400 -21.668900
N -16.571200 -12.151900 -22.203200
H -16.440800 -15.853200 -20.426800
N -16.416000 -15.933200 -23.607700
C -16.398700 -14.702300 -23.022800
C -16.071400 -13.102400 -21.311800
N -16.009400 -14.407300 -21.741700
H -15.945100 -10.305700 -21.737800
O -15.706800 -12.785500 -20.179800
C -15.643700 -15.459900 -20.790500
H -15.131700 -16.135000 -21.242000
H -15.120600 -15.081800 -20.080400
17
Fragment
O -20.980400 -11.565800 -24.542700
H -20.849700 -13.367400 -25.017800
H -20.759800 -9.687200 -23.097700
O -20.576000 -14.192100 -24.695300
C -20.559000 -11.587700 -23.393400
O -20.440700 -10.506300 -22.645800
C -20.171800 -14.060000 -23.407700
C -20.137200 -12.836700 -22.717000
H -19.790900 -16.039200 -23.195600
C -19.766100 -15.224200 -22.747900
C -19.703000 -12.805100 -21.380100
H -19.691200 -11.997800 -20.917500
C -19.330100 -15.177000 -21.441200
C -19.293700 -13.964000 -20.746200
H -19.057800 -15.959000 -21.017900
O -18.856100 -14.004400 -19.453100
H -18.669600 -13.154600 -19.137800
38
Fragment
H -17.557800 -14.010100 -25.825200
H -17.450900 -10.351300 -22.171800
O -17.447400 -11.455900 -24.206700
N -17.181000 -14.408500 -25.050600
H -17.036800 -16.369400 -25.473700
H -17.029600 -10.852600 -20.747500
C -16.998900 -12.377400 -23.523100
C -16.904800 -15.703200 -24.838800
C -16.855700 -13.739800 -23.889000
C -16.765700 -10.798400 -21.668900
N -16.571200 -12.151900 -22.203200
H -16.440800 -15.853200 -20.426800
N -16.416000 -15.933200 -23.607700
C -16.398700 -14.702300 -23.022800
C -16.071400 -13.102400 -21.311800
N -16.009400 -14.407300 -21.741700
H -15.945100 -10.305700 -21.737800
O -15.706800 -12.785500 -20.179800
C -15.643700 -15.459900 -20.790500
H -15.131700 -16.135000 -21.242000
H -15.120600 -15.081800 -20.080400
O -20.980400 -11.565800 -24.542700
H -20.849700 -13.367400 -25.017800
H -20.759800 -9.687200 -23.097700
O -20.576000 -14.192100 -24.695300
C -20.559000 -11.587700 -23.393400
O -20.440700 -10.506300 -22.645800
C -20.171800 -14.060000 -23.407700
C -20.137200 -12.836700 -22.717000
H -19.790900 -16.039200 -23.195600
C -19.766100 -15.224200 -22.747900
C -19.703000 -12.805100 -21.380100
H -19.691200 -11.997800 -20.917500
C -19.330100 -15.177000 -21.441200
C -19.293700 -13.964000 -20.746200
H -19.057800 -15.959000 -21.017900
O -18.856100 -14.004400 -19.453100
H -18.669600 -13.154600 -19.137800
