21
Fragment
H -17.557800 -14.010100 -25.825200
H -17.450900 -10.351300 -22.171800
O -17.447400 -11.455900 -24.206700
N -17.181000 -14.408500 -25.050600
H -17.036800 -16.369400 -25.473700
H -17.029600 -10.852600 -20.747500
C -16.998900 -12.377400 -23.523100
C -16.904800 -15.703200 -24.838800
C -16.855700 -13.739800 -23.889000
C -16.765700 -10.798400 -21.668900
N -16.571200 -12.151900 -22.203200
H -16.440800 -15.853200 -20.426800
N -16.416000 -15.933200 -23.607700
C -16.398700 -14.702300 -23.022800
C -16.071400 -13.102400 -21.311800
N -16.009400 -14.407300 -21.741700
H -15.945100 -10.305700 -21.737800
O -15.706800 -12.785500 -20.179800
C -15.643700 -15.459900 -20.790500
H -15.131700 -16.135000 -21.242000
H -15.120600 -15.081800 -20.080400
17
Fragment
H -15.165400 -11.181300 -19.495800
O -14.978900 -10.331500 -19.180400
H -14.777100 -8.376900 -17.615600
C -14.541200 -10.371900 -17.887300
C -14.504800 -9.158900 -17.192300
H -14.143800 -12.338100 -17.716100
C -14.131900 -11.530800 -17.253500
C -14.068900 -9.111700 -15.885600
H -14.044000 -8.296700 -15.438000
C -13.697700 -11.499200 -15.916500
C -13.663200 -10.275900 -15.225900
O -13.394300 -13.829600 -15.987700
C -13.276000 -12.748200 -15.240200
O -13.259000 -10.143800 -13.938200
H -13.075200 -14.648700 -15.535800
H -12.985300 -10.968500 -13.615700
O -12.854500 -12.770100 -14.090800
38
Fragment
H -17.557800 -14.010100 -25.825200
H -17.450900 -10.351300 -22.171800
O -17.447400 -11.455900 -24.206700
N -17.181000 -14.408500 -25.050600
H -17.036800 -16.369400 -25.473700
H -17.029600 -10.852600 -20.747500
C -16.998900 -12.377400 -23.523100
C -16.904800 -15.703200 -24.838800
C -16.855700 -13.739800 -23.889000
C -16.765700 -10.798400 -21.668900
N -16.571200 -12.151900 -22.203200
H -16.440800 -15.853200 -20.426800
N -16.416000 -15.933200 -23.607700
C -16.398700 -14.702300 -23.022800
C -16.071400 -13.102400 -21.311800
N -16.009400 -14.407300 -21.741700
H -15.945100 -10.305700 -21.737800
O -15.706800 -12.785500 -20.179800
C -15.643700 -15.459900 -20.790500
H -15.131700 -16.135000 -21.242000
H -15.120600 -15.081800 -20.080400
H -15.165400 -11.181300 -19.495800
O -14.978900 -10.331500 -19.180400
H -14.777100 -8.376900 -17.615600
C -14.541200 -10.371900 -17.887300
C -14.504800 -9.158900 -17.192300
H -14.143800 -12.338100 -17.716100
C -14.131900 -11.530800 -17.253500
C -14.068900 -9.111700 -15.885600
H -14.044000 -8.296700 -15.438000
C -13.697700 -11.499200 -15.916500
C -13.663200 -10.275900 -15.225900
O -13.394300 -13.829600 -15.987700
C -13.276000 -12.748200 -15.240200
O -13.259000 -10.143800 -13.938200
H -13.075200 -14.648700 -15.535800
H -12.985300 -10.968500 -13.615700
O -12.854500 -12.770100 -14.090800
