21
Fragment
H -17.557800 -14.010100 -25.825200
H -17.450900 -10.351300 -22.171800
O -17.447400 -11.455900 -24.206700
N -17.181000 -14.408500 -25.050600
H -17.036800 -16.369400 -25.473700
H -17.029600 -10.852600 -20.747500
C -16.998900 -12.377400 -23.523100
C -16.904800 -15.703200 -24.838800
C -16.855700 -13.739800 -23.889000
C -16.765700 -10.798400 -21.668900
N -16.571200 -12.151900 -22.203200
H -16.440800 -15.853200 -20.426800
N -16.416000 -15.933200 -23.607700
C -16.398700 -14.702300 -23.022800
C -16.071400 -13.102400 -21.311800
N -16.009400 -14.407300 -21.741700
H -15.945100 -10.305700 -21.737800
O -15.706800 -12.785500 -20.179800
C -15.643700 -15.459900 -20.790500
H -15.131700 -16.135000 -21.242000
H -15.120600 -15.081800 -20.080400
21
Fragment
H -13.816600 -17.001800 -18.553100
H -13.805500 -15.948600 -17.391500
C -13.293500 -16.623700 -17.843000
O -13.230400 -19.298100 -18.453700
H -12.992100 -21.777900 -16.895700
N -12.927800 -17.676300 -16.891900
C -12.865800 -18.981200 -17.321700
C -12.538500 -17.381300 -15.610800
N -12.521200 -16.150400 -15.025900
H -12.496400 -16.230400 -18.206700
N -12.366000 -19.931700 -16.430300
C -12.171500 -21.285200 -16.964600
C -12.081500 -18.343800 -14.744500
C -12.032400 -16.380400 -13.794700
C -11.938300 -19.706200 -15.110500
H -11.907600 -21.231000 -17.886000
H -11.900400 -15.714200 -13.159900
N -11.756200 -17.675100 -13.582900
O -11.489800 -20.627700 -14.426800
H -11.486300 -21.732300 -16.461700
H -11.379400 -18.073500 -12.808300
42
Fragment
H -17.557800 -14.010100 -25.825200
H -17.450900 -10.351300 -22.171800
O -17.447400 -11.455900 -24.206700
N -17.181000 -14.408500 -25.050600
H -17.036800 -16.369400 -25.473700
H -17.029600 -10.852600 -20.747500
C -16.998900 -12.377400 -23.523100
C -16.904800 -15.703200 -24.838800
C -16.855700 -13.739800 -23.889000
C -16.765700 -10.798400 -21.668900
N -16.571200 -12.151900 -22.203200
H -16.440800 -15.853200 -20.426800
N -16.416000 -15.933200 -23.607700
C -16.398700 -14.702300 -23.022800
C -16.071400 -13.102400 -21.311800
N -16.009400 -14.407300 -21.741700
H -15.945100 -10.305700 -21.737800
O -15.706800 -12.785500 -20.179800
C -15.643700 -15.459900 -20.790500
H -15.131700 -16.135000 -21.242000
H -15.120600 -15.081800 -20.080400
H -13.816600 -17.001800 -18.553100
H -13.805500 -15.948600 -17.391500
C -13.293500 -16.623700 -17.843000
O -13.230400 -19.298100 -18.453700
H -12.992100 -21.777900 -16.895700
N -12.927800 -17.676300 -16.891900
C -12.865800 -18.981200 -17.321700
C -12.538500 -17.381300 -15.610800
N -12.521200 -16.150400 -15.025900
H -12.496400 -16.230400 -18.206700
N -12.366000 -19.931700 -16.430300
C -12.171500 -21.285200 -16.964600
C -12.081500 -18.343800 -14.744500
C -12.032400 -16.380400 -13.794700
C -11.938300 -19.706200 -15.110500
H -11.907600 -21.231000 -17.886000
H -11.900400 -15.714200 -13.159900
N -11.756200 -17.675100 -13.582900
O -11.489800 -20.627700 -14.426800
H -11.486300 -21.732300 -16.461700
H -11.379400 -18.073500 -12.808300
