21
Fragment
H -17.557800 -14.010100 -25.825200
H -17.450900 -10.351300 -22.171800
O -17.447400 -11.455900 -24.206700
N -17.181000 -14.408500 -25.050600
H -17.036800 -16.369400 -25.473700
H -17.029600 -10.852600 -20.747500
C -16.998900 -12.377400 -23.523100
C -16.904800 -15.703200 -24.838800
C -16.855700 -13.739800 -23.889000
C -16.765700 -10.798400 -21.668900
N -16.571200 -12.151900 -22.203200
H -16.440800 -15.853200 -20.426800
N -16.416000 -15.933200 -23.607700
C -16.398700 -14.702300 -23.022800
C -16.071400 -13.102400 -21.311800
N -16.009400 -14.407300 -21.741700
H -15.945100 -10.305700 -21.737800
O -15.706800 -12.785500 -20.179800
C -15.643700 -15.459900 -20.790500
H -15.131700 -16.135000 -21.242000
H -15.120600 -15.081800 -20.080400
17
Fragment
O -16.082700 -19.313500 -24.542700
H -15.951900 -21.115100 -25.017800
H -15.862000 -17.434900 -23.097700
O -15.678200 -21.939800 -24.695300
C -15.661200 -19.335400 -23.393400
O -15.542900 -18.254000 -22.645800
C -15.274000 -21.807700 -23.407700
C -15.239500 -20.584400 -22.717000
H -14.893200 -23.786900 -23.195600
C -14.868300 -22.971900 -22.747900
C -14.805300 -20.552800 -21.380100
H -14.793400 -19.745500 -20.917500
C -14.432400 -22.924700 -21.441200
C -14.396000 -21.711700 -20.746200
H -14.160100 -23.706700 -21.017900
O -13.958300 -21.752100 -19.453100
H -13.771800 -20.902300 -19.137800
38
Fragment
H -17.557800 -14.010100 -25.825200
H -17.450900 -10.351300 -22.171800
O -17.447400 -11.455900 -24.206700
N -17.181000 -14.408500 -25.050600
H -17.036800 -16.369400 -25.473700
H -17.029600 -10.852600 -20.747500
C -16.998900 -12.377400 -23.523100
C -16.904800 -15.703200 -24.838800
C -16.855700 -13.739800 -23.889000
C -16.765700 -10.798400 -21.668900
N -16.571200 -12.151900 -22.203200
H -16.440800 -15.853200 -20.426800
N -16.416000 -15.933200 -23.607700
C -16.398700 -14.702300 -23.022800
C -16.071400 -13.102400 -21.311800
N -16.009400 -14.407300 -21.741700
H -15.945100 -10.305700 -21.737800
O -15.706800 -12.785500 -20.179800
C -15.643700 -15.459900 -20.790500
H -15.131700 -16.135000 -21.242000
H -15.120600 -15.081800 -20.080400
O -16.082700 -19.313500 -24.542700
H -15.951900 -21.115100 -25.017800
H -15.862000 -17.434900 -23.097700
O -15.678200 -21.939800 -24.695300
C -15.661200 -19.335400 -23.393400
O -15.542900 -18.254000 -22.645800
C -15.274000 -21.807700 -23.407700
C -15.239500 -20.584400 -22.717000
H -14.893200 -23.786900 -23.195600
C -14.868300 -22.971900 -22.747900
C -14.805300 -20.552800 -21.380100
H -14.793400 -19.745500 -20.917500
C -14.432400 -22.924700 -21.441200
C -14.396000 -21.711700 -20.746200
H -14.160100 -23.706700 -21.017900
O -13.958300 -21.752100 -19.453100
H -13.771800 -20.902300 -19.137800
