21
Fragment
H -17.557800 -14.010100 -25.825200
H -17.450900 -10.351300 -22.171800
O -17.447400 -11.455900 -24.206700
N -17.181000 -14.408500 -25.050600
H -17.036800 -16.369400 -25.473700
H -17.029600 -10.852600 -20.747500
C -16.998900 -12.377400 -23.523100
C -16.904800 -15.703200 -24.838800
C -16.855700 -13.739800 -23.889000
C -16.765700 -10.798400 -21.668900
N -16.571200 -12.151900 -22.203200
H -16.440800 -15.853200 -20.426800
N -16.416000 -15.933200 -23.607700
C -16.398700 -14.702300 -23.022800
C -16.071400 -13.102400 -21.311800
N -16.009400 -14.407300 -21.741700
H -15.945100 -10.305700 -21.737800
O -15.706800 -12.785500 -20.179800
C -15.643700 -15.459900 -20.790500
H -15.131700 -16.135000 -21.242000
H -15.120600 -15.081800 -20.080400
21
Fragment
H -18.714400 -9.254100 -18.553100
H -18.703200 -8.200900 -17.391500
C -18.191300 -8.876000 -17.843000
O -18.128200 -11.550400 -18.453700
H -17.889900 -14.030200 -16.895700
N -17.825600 -9.928600 -16.891900
C -17.763500 -11.233600 -17.321700
C -17.436200 -9.633600 -15.610800
N -17.419000 -8.402700 -15.025900
H -17.394200 -8.482700 -18.206700
N -17.263800 -12.184000 -16.430300
C -17.069200 -13.537500 -16.964600
C -16.979300 -10.596200 -14.744500
C -16.930200 -8.632700 -13.794700
C -16.836100 -11.958500 -15.110500
H -16.805300 -13.483300 -17.886000
H -16.798200 -7.966500 -13.159900
N -16.654000 -9.927400 -13.582900
O -16.387500 -12.880000 -14.426800
H -16.384000 -13.984600 -16.461700
H -16.277200 -10.325800 -12.808300
42
Fragment
H -17.557800 -14.010100 -25.825200
H -17.450900 -10.351300 -22.171800
O -17.447400 -11.455900 -24.206700
N -17.181000 -14.408500 -25.050600
H -17.036800 -16.369400 -25.473700
H -17.029600 -10.852600 -20.747500
C -16.998900 -12.377400 -23.523100
C -16.904800 -15.703200 -24.838800
C -16.855700 -13.739800 -23.889000
C -16.765700 -10.798400 -21.668900
N -16.571200 -12.151900 -22.203200
H -16.440800 -15.853200 -20.426800
N -16.416000 -15.933200 -23.607700
C -16.398700 -14.702300 -23.022800
C -16.071400 -13.102400 -21.311800
N -16.009400 -14.407300 -21.741700
H -15.945100 -10.305700 -21.737800
O -15.706800 -12.785500 -20.179800
C -15.643700 -15.459900 -20.790500
H -15.131700 -16.135000 -21.242000
H -15.120600 -15.081800 -20.080400
H -18.714400 -9.254100 -18.553100
H -18.703200 -8.200900 -17.391500
C -18.191300 -8.876000 -17.843000
O -18.128200 -11.550400 -18.453700
H -17.889900 -14.030200 -16.895700
N -17.825600 -9.928600 -16.891900
C -17.763500 -11.233600 -17.321700
C -17.436200 -9.633600 -15.610800
N -17.419000 -8.402700 -15.025900
H -17.394200 -8.482700 -18.206700
N -17.263800 -12.184000 -16.430300
C -17.069200 -13.537500 -16.964600
C -16.979300 -10.596200 -14.744500
C -16.930200 -8.632700 -13.794700
C -16.836100 -11.958500 -15.110500
H -16.805300 -13.483300 -17.886000
H -16.798200 -7.966500 -13.159900
N -16.654000 -9.927400 -13.582900
O -16.387500 -12.880000 -14.426800
H -16.384000 -13.984600 -16.461700
H -16.277200 -10.325800 -12.808300
