35
Fragment
H -15.113500 -18.044600 -47.416600
H -14.909100 -14.859900 -48.064700
O -14.908400 -17.810800 -48.176700
C -14.107100 -14.713400 -47.618100
H -14.042700 -14.027700 -46.992400
C -13.524800 -17.922500 -48.339900
H -13.410700 -16.353400 -49.720600
H -13.325300 -18.645500 -48.953700
H -13.110500 -18.128200 -47.487800
C -13.064300 -15.473600 -47.870900
C -12.952300 -16.601000 -48.889900
O -12.423900 -13.620400 -41.386200
C -12.239900 -13.448700 -42.610800
H -12.219600 -11.413700 -42.516800
N -12.167800 -12.141500 -43.156800
N -12.091500 -15.847400 -43.547700
C -12.075400 -14.446900 -43.638200
H -12.017300 -9.916700 -44.206600
C -11.973200 -11.835600 -44.485200
N -11.933300 -10.516400 -44.818100
C -11.927700 -16.256400 -44.795000
H -11.901100 -17.153100 -45.037900
C -11.895500 -14.046900 -44.956500
N -11.839500 -12.761200 -45.457300
H -11.823400 -10.282800 -45.638500
N -11.798200 -15.216000 -45.705000
C -11.728300 -15.294500 -47.184100
C -11.470000 -16.718400 -49.131200
H -11.337700 -14.456600 -47.508200
H -11.225100 -17.604000 -49.472900
O -11.122900 -15.668700 -50.062300
H -10.949300 -17.243700 -47.179100
C -10.875100 -16.456900 -47.741300
H -10.334800 -15.743200 -50.277000
H -9.940800 -16.202300 -47.806800
35
Fragment
H -18.612800 -12.233100 -47.416600
H -18.408400 -9.048400 -48.064700
O -18.407700 -11.999400 -48.176700
C -17.606400 -8.902000 -47.618100
H -17.542000 -8.216200 -46.992400
C -17.024100 -12.111100 -48.339900
H -16.910000 -10.542000 -49.720600
H -16.824600 -12.834000 -48.953700
H -16.609800 -12.316800 -47.487800
C -16.563600 -9.662100 -47.870900
C -16.451600 -10.789500 -48.889900
O -15.923200 -7.809000 -41.386200
C -15.739200 -7.637300 -42.610800
H -15.718900 -5.602200 -42.516800
N -15.667100 -6.330100 -43.156800
N -15.590800 -10.035900 -43.547700
C -15.574700 -8.635500 -43.638200
H -15.516600 -4.105200 -44.206600
C -15.472500 -6.024100 -44.485200
N -15.432600 -4.704900 -44.818100
C -15.427000 -10.444900 -44.795000
H -15.400400 -11.341600 -45.037900
C -15.394800 -8.235400 -44.956500
N -15.338800 -6.949800 -45.457300
H -15.322700 -4.471300 -45.638500
N -15.297500 -9.404600 -45.705000
C -15.227600 -9.483000 -47.184100
C -14.969300 -10.906900 -49.131200
H -14.837000 -8.645100 -47.508200
H -14.724400 -11.792600 -49.472900
O -14.622200 -9.857300 -50.062300
H -14.448600 -11.432300 -47.179100
C -14.374400 -10.645400 -47.741300
H -13.834100 -9.931800 -50.277000
H -13.440100 -10.390900 -47.806800
70
Fragment
H -15.113500 -18.044600 -47.416600
H -14.909100 -14.859900 -48.064700
O -14.908400 -17.810800 -48.176700
C -14.107100 -14.713400 -47.618100
H -14.042700 -14.027700 -46.992400
C -13.524800 -17.922500 -48.339900
H -13.410700 -16.353400 -49.720600
H -13.325300 -18.645500 -48.953700
H -13.110500 -18.128200 -47.487800
C -13.064300 -15.473600 -47.870900
C -12.952300 -16.601000 -48.889900
O -12.423900 -13.620400 -41.386200
C -12.239900 -13.448700 -42.610800
H -12.219600 -11.413700 -42.516800
N -12.167800 -12.141500 -43.156800
N -12.091500 -15.847400 -43.547700
C -12.075400 -14.446900 -43.638200
H -12.017300 -9.916700 -44.206600
C -11.973200 -11.835600 -44.485200
N -11.933300 -10.516400 -44.818100
C -11.927700 -16.256400 -44.795000
H -11.901100 -17.153100 -45.037900
C -11.895500 -14.046900 -44.956500
N -11.839500 -12.761200 -45.457300
H -11.823400 -10.282800 -45.638500
N -11.798200 -15.216000 -45.705000
C -11.728300 -15.294500 -47.184100
C -11.470000 -16.718400 -49.131200
H -11.337700 -14.456600 -47.508200
H -11.225100 -17.604000 -49.472900
O -11.122900 -15.668700 -50.062300
H -10.949300 -17.243700 -47.179100
C -10.875100 -16.456900 -47.741300
H -10.334800 -15.743200 -50.277000
H -9.940800 -16.202300 -47.806800
H -18.612800 -12.233100 -47.416600
H -18.408400 -9.048400 -48.064700
O -18.407700 -11.999400 -48.176700
C -17.606400 -8.902000 -47.618100
H -17.542000 -8.216200 -46.992400
C -17.024100 -12.111100 -48.339900
H -16.910000 -10.542000 -49.720600
H -16.824600 -12.834000 -48.953700
H -16.609800 -12.316800 -47.487800
C -16.563600 -9.662100 -47.870900
C -16.451600 -10.789500 -48.889900
O -15.923200 -7.809000 -41.386200
C -15.739200 -7.637300 -42.610800
H -15.718900 -5.602200 -42.516800
N -15.667100 -6.330100 -43.156800
N -15.590800 -10.035900 -43.547700
C -15.574700 -8.635500 -43.638200
H -15.516600 -4.105200 -44.206600
C -15.472500 -6.024100 -44.485200
N -15.432600 -4.704900 -44.818100
C -15.427000 -10.444900 -44.795000
H -15.400400 -11.341600 -45.037900
C -15.394800 -8.235400 -44.956500
N -15.338800 -6.949800 -45.457300
H -15.322700 -4.471300 -45.638500
N -15.297500 -9.404600 -45.705000
C -15.227600 -9.483000 -47.184100
C -14.969300 -10.906900 -49.131200
H -14.837000 -8.645100 -47.508200
H -14.724400 -11.792600 -49.472900
O -14.622200 -9.857300 -50.062300
H -14.448600 -11.432300 -47.179100
C -14.374400 -10.645400 -47.741300
H -13.834100 -9.931800 -50.277000
H -13.440100 -10.390900 -47.806800
