35
Fragment
H -15.113500 -18.044600 -47.416600
H -14.909100 -14.859900 -48.064700
O -14.908400 -17.810800 -48.176700
C -14.107100 -14.713400 -47.618100
H -14.042700 -14.027700 -46.992400
C -13.524800 -17.922500 -48.339900
H -13.410700 -16.353400 -49.720600
H -13.325300 -18.645500 -48.953700
H -13.110500 -18.128200 -47.487800
C -13.064300 -15.473600 -47.870900
C -12.952300 -16.601000 -48.889900
O -12.423900 -13.620400 -41.386200
C -12.239900 -13.448700 -42.610800
H -12.219600 -11.413700 -42.516800
N -12.167800 -12.141500 -43.156800
N -12.091500 -15.847400 -43.547700
C -12.075400 -14.446900 -43.638200
H -12.017300 -9.916700 -44.206600
C -11.973200 -11.835600 -44.485200
N -11.933300 -10.516400 -44.818100
C -11.927700 -16.256400 -44.795000
H -11.901100 -17.153100 -45.037900
C -11.895500 -14.046900 -44.956500
N -11.839500 -12.761200 -45.457300
H -11.823400 -10.282800 -45.638500
N -11.798200 -15.216000 -45.705000
C -11.728300 -15.294500 -47.184100
C -11.470000 -16.718400 -49.131200
H -11.337700 -14.456600 -47.508200
H -11.225100 -17.604000 -49.472900
O -11.122900 -15.668700 -50.062300
H -10.949300 -17.243700 -47.179100
C -10.875100 -16.456900 -47.741300
H -10.334800 -15.743200 -50.277000
H -9.940800 -16.202300 -47.806800
35
Fragment
H -22.112100 -18.044600 -47.416600
H -21.907700 -14.859900 -48.064700
O -21.907000 -17.810800 -48.176700
C -21.105700 -14.713400 -47.618100
H -21.041300 -14.027700 -46.992400
C -20.523400 -17.922500 -48.339900
H -20.409300 -16.353400 -49.720600
H -20.323900 -18.645500 -48.953700
H -20.109100 -18.128200 -47.487800
C -20.062900 -15.473600 -47.870900
C -19.950900 -16.601000 -48.889900
O -19.422500 -13.620400 -41.386200
C -19.238500 -13.448700 -42.610800
H -19.218200 -11.413700 -42.516800
N -19.166400 -12.141500 -43.156800
N -19.090100 -15.847400 -43.547700
C -19.074000 -14.446900 -43.638200
H -19.015900 -9.916700 -44.206600
C -18.971800 -11.835600 -44.485200
N -18.931900 -10.516400 -44.818100
C -18.926300 -16.256400 -44.795000
H -18.899700 -17.153100 -45.037900
C -18.894100 -14.046900 -44.956500
N -18.838100 -12.761200 -45.457300
H -18.822000 -10.282800 -45.638500
N -18.796800 -15.216000 -45.705000
C -18.726900 -15.294500 -47.184100
C -18.468600 -16.718400 -49.131200
H -18.336300 -14.456600 -47.508200
H -18.223700 -17.604000 -49.472900
O -18.121500 -15.668700 -50.062300
H -17.947900 -17.243700 -47.179100
C -17.873700 -16.456900 -47.741300
H -17.333400 -15.743200 -50.277000
H -16.939400 -16.202300 -47.806800
70
Fragment
H -15.113500 -18.044600 -47.416600
H -14.909100 -14.859900 -48.064700
O -14.908400 -17.810800 -48.176700
C -14.107100 -14.713400 -47.618100
H -14.042700 -14.027700 -46.992400
C -13.524800 -17.922500 -48.339900
H -13.410700 -16.353400 -49.720600
H -13.325300 -18.645500 -48.953700
H -13.110500 -18.128200 -47.487800
C -13.064300 -15.473600 -47.870900
C -12.952300 -16.601000 -48.889900
O -12.423900 -13.620400 -41.386200
C -12.239900 -13.448700 -42.610800
H -12.219600 -11.413700 -42.516800
N -12.167800 -12.141500 -43.156800
N -12.091500 -15.847400 -43.547700
C -12.075400 -14.446900 -43.638200
H -12.017300 -9.916700 -44.206600
C -11.973200 -11.835600 -44.485200
N -11.933300 -10.516400 -44.818100
C -11.927700 -16.256400 -44.795000
H -11.901100 -17.153100 -45.037900
C -11.895500 -14.046900 -44.956500
N -11.839500 -12.761200 -45.457300
H -11.823400 -10.282800 -45.638500
N -11.798200 -15.216000 -45.705000
C -11.728300 -15.294500 -47.184100
C -11.470000 -16.718400 -49.131200
H -11.337700 -14.456600 -47.508200
H -11.225100 -17.604000 -49.472900
O -11.122900 -15.668700 -50.062300
H -10.949300 -17.243700 -47.179100
C -10.875100 -16.456900 -47.741300
H -10.334800 -15.743200 -50.277000
H -9.940800 -16.202300 -47.806800
H -22.112100 -18.044600 -47.416600
H -21.907700 -14.859900 -48.064700
O -21.907000 -17.810800 -48.176700
C -21.105700 -14.713400 -47.618100
H -21.041300 -14.027700 -46.992400
C -20.523400 -17.922500 -48.339900
H -20.409300 -16.353400 -49.720600
H -20.323900 -18.645500 -48.953700
H -20.109100 -18.128200 -47.487800
C -20.062900 -15.473600 -47.870900
C -19.950900 -16.601000 -48.889900
O -19.422500 -13.620400 -41.386200
C -19.238500 -13.448700 -42.610800
H -19.218200 -11.413700 -42.516800
N -19.166400 -12.141500 -43.156800
N -19.090100 -15.847400 -43.547700
C -19.074000 -14.446900 -43.638200
H -19.015900 -9.916700 -44.206600
C -18.971800 -11.835600 -44.485200
N -18.931900 -10.516400 -44.818100
C -18.926300 -16.256400 -44.795000
H -18.899700 -17.153100 -45.037900
C -18.894100 -14.046900 -44.956500
N -18.838100 -12.761200 -45.457300
H -18.822000 -10.282800 -45.638500
N -18.796800 -15.216000 -45.705000
C -18.726900 -15.294500 -47.184100
C -18.468600 -16.718400 -49.131200
H -18.336300 -14.456600 -47.508200
H -18.223700 -17.604000 -49.472900
O -18.121500 -15.668700 -50.062300
H -17.947900 -17.243700 -47.179100
C -17.873700 -16.456900 -47.741300
H -17.333400 -15.743200 -50.277000
H -16.939400 -16.202300 -47.806800
