35
Fragment
H -15.113500 -18.044600 -47.416600
H -14.909100 -14.859900 -48.064700
O -14.908400 -17.810800 -48.176700
C -14.107100 -14.713400 -47.618100
H -14.042700 -14.027700 -46.992400
C -13.524800 -17.922500 -48.339900
H -13.410700 -16.353400 -49.720600
H -13.325300 -18.645500 -48.953700
H -13.110500 -18.128200 -47.487800
C -13.064300 -15.473600 -47.870900
C -12.952300 -16.601000 -48.889900
O -12.423900 -13.620400 -41.386200
C -12.239900 -13.448700 -42.610800
H -12.219600 -11.413700 -42.516800
N -12.167800 -12.141500 -43.156800
N -12.091500 -15.847400 -43.547700
C -12.075400 -14.446900 -43.638200
H -12.017300 -9.916700 -44.206600
C -11.973200 -11.835600 -44.485200
N -11.933300 -10.516400 -44.818100
C -11.927700 -16.256400 -44.795000
H -11.901100 -17.153100 -45.037900
C -11.895500 -14.046900 -44.956500
N -11.839500 -12.761200 -45.457300
H -11.823400 -10.282800 -45.638500
N -11.798200 -15.216000 -45.705000
C -11.728300 -15.294500 -47.184100
C -11.470000 -16.718400 -49.131200
H -11.337700 -14.456600 -47.508200
H -11.225100 -17.604000 -49.472900
O -11.122900 -15.668700 -50.062300
H -10.949300 -17.243700 -47.179100
C -10.875100 -16.456900 -47.741300
H -10.334800 -15.743200 -50.277000
H -9.940800 -16.202300 -47.806800
35
Fragment
H -8.114900 -18.044600 -47.416600
H -7.910500 -14.859900 -48.064700
O -7.909800 -17.810800 -48.176700
C -7.108500 -14.713400 -47.618100
H -7.044100 -14.027700 -46.992400
C -6.526200 -17.922500 -48.339900
H -6.412100 -16.353400 -49.720600
H -6.326700 -18.645500 -48.953700
H -6.111900 -18.128200 -47.487800
C -6.065700 -15.473600 -47.870900
C -5.953700 -16.601000 -48.889900
O -5.425300 -13.620400 -41.386200
C -5.241300 -13.448700 -42.610800
H -5.221000 -11.413700 -42.516800
N -5.169200 -12.141500 -43.156800
N -5.092900 -15.847400 -43.547700
C -5.076800 -14.446900 -43.638200
H -5.018700 -9.916700 -44.206600
C -4.974600 -11.835600 -44.485200
N -4.934700 -10.516400 -44.818100
C -4.929100 -16.256400 -44.795000
H -4.902500 -17.153100 -45.037900
C -4.896900 -14.046900 -44.956500
N -4.840900 -12.761200 -45.457300
H -4.824800 -10.282800 -45.638500
N -4.799600 -15.216000 -45.705000
C -4.729700 -15.294500 -47.184100
C -4.471400 -16.718400 -49.131200
H -4.339100 -14.456600 -47.508200
H -4.226500 -17.604000 -49.472900
O -4.124300 -15.668700 -50.062300
H -3.950700 -17.243700 -47.179100
C -3.876500 -16.456900 -47.741300
H -3.336200 -15.743200 -50.277000
H -2.942200 -16.202300 -47.806800
70
Fragment
H -15.113500 -18.044600 -47.416600
H -14.909100 -14.859900 -48.064700
O -14.908400 -17.810800 -48.176700
C -14.107100 -14.713400 -47.618100
H -14.042700 -14.027700 -46.992400
C -13.524800 -17.922500 -48.339900
H -13.410700 -16.353400 -49.720600
H -13.325300 -18.645500 -48.953700
H -13.110500 -18.128200 -47.487800
C -13.064300 -15.473600 -47.870900
C -12.952300 -16.601000 -48.889900
O -12.423900 -13.620400 -41.386200
C -12.239900 -13.448700 -42.610800
H -12.219600 -11.413700 -42.516800
N -12.167800 -12.141500 -43.156800
N -12.091500 -15.847400 -43.547700
C -12.075400 -14.446900 -43.638200
H -12.017300 -9.916700 -44.206600
C -11.973200 -11.835600 -44.485200
N -11.933300 -10.516400 -44.818100
C -11.927700 -16.256400 -44.795000
H -11.901100 -17.153100 -45.037900
C -11.895500 -14.046900 -44.956500
N -11.839500 -12.761200 -45.457300
H -11.823400 -10.282800 -45.638500
N -11.798200 -15.216000 -45.705000
C -11.728300 -15.294500 -47.184100
C -11.470000 -16.718400 -49.131200
H -11.337700 -14.456600 -47.508200
H -11.225100 -17.604000 -49.472900
O -11.122900 -15.668700 -50.062300
H -10.949300 -17.243700 -47.179100
C -10.875100 -16.456900 -47.741300
H -10.334800 -15.743200 -50.277000
H -9.940800 -16.202300 -47.806800
H -8.114900 -18.044600 -47.416600
H -7.910500 -14.859900 -48.064700
O -7.909800 -17.810800 -48.176700
C -7.108500 -14.713400 -47.618100
H -7.044100 -14.027700 -46.992400
C -6.526200 -17.922500 -48.339900
H -6.412100 -16.353400 -49.720600
H -6.326700 -18.645500 -48.953700
H -6.111900 -18.128200 -47.487800
C -6.065700 -15.473600 -47.870900
C -5.953700 -16.601000 -48.889900
O -5.425300 -13.620400 -41.386200
C -5.241300 -13.448700 -42.610800
H -5.221000 -11.413700 -42.516800
N -5.169200 -12.141500 -43.156800
N -5.092900 -15.847400 -43.547700
C -5.076800 -14.446900 -43.638200
H -5.018700 -9.916700 -44.206600
C -4.974600 -11.835600 -44.485200
N -4.934700 -10.516400 -44.818100
C -4.929100 -16.256400 -44.795000
H -4.902500 -17.153100 -45.037900
C -4.896900 -14.046900 -44.956500
N -4.840900 -12.761200 -45.457300
H -4.824800 -10.282800 -45.638500
N -4.799600 -15.216000 -45.705000
C -4.729700 -15.294500 -47.184100
C -4.471400 -16.718400 -49.131200
H -4.339100 -14.456600 -47.508200
H -4.226500 -17.604000 -49.472900
O -4.124300 -15.668700 -50.062300
H -3.950700 -17.243700 -47.179100
C -3.876500 -16.456900 -47.741300
H -3.336200 -15.743200 -50.277000
H -2.942200 -16.202300 -47.806800
