35
Fragment
H -15.113500 -18.044600 -47.416600
H -14.909100 -14.859900 -48.064700
O -14.908400 -17.810800 -48.176700
C -14.107100 -14.713400 -47.618100
H -14.042700 -14.027700 -46.992400
C -13.524800 -17.922500 -48.339900
H -13.410700 -16.353400 -49.720600
H -13.325300 -18.645500 -48.953700
H -13.110500 -18.128200 -47.487800
C -13.064300 -15.473600 -47.870900
C -12.952300 -16.601000 -48.889900
O -12.423900 -13.620400 -41.386200
C -12.239900 -13.448700 -42.610800
H -12.219600 -11.413700 -42.516800
N -12.167800 -12.141500 -43.156800
N -12.091500 -15.847400 -43.547700
C -12.075400 -14.446900 -43.638200
H -12.017300 -9.916700 -44.206600
C -11.973200 -11.835600 -44.485200
N -11.933300 -10.516400 -44.818100
C -11.927700 -16.256400 -44.795000
H -11.901100 -17.153100 -45.037900
C -11.895500 -14.046900 -44.956500
N -11.839500 -12.761200 -45.457300
H -11.823400 -10.282800 -45.638500
N -11.798200 -15.216000 -45.705000
C -11.728300 -15.294500 -47.184100
C -11.470000 -16.718400 -49.131200
H -11.337700 -14.456600 -47.508200
H -11.225100 -17.604000 -49.472900
O -11.122900 -15.668700 -50.062300
H -10.949300 -17.243700 -47.179100
C -10.875100 -16.456900 -47.741300
H -10.334800 -15.743200 -50.277000
H -9.940800 -16.202300 -47.806800
35
Fragment
H -18.053600 -16.202300 -37.023200
H -17.659600 -15.743200 -34.553000
C -17.119300 -16.456900 -37.088700
H -17.045100 -17.243700 -37.650900
O -16.871500 -15.668700 -34.767700
H -16.769300 -17.604000 -35.357100
H -16.656700 -14.456600 -37.321800
C -16.524400 -16.718400 -35.698800
C -16.266100 -15.294500 -37.645900
N -16.196200 -15.216000 -39.125000
H -16.171000 -10.282800 -39.191500
N -16.154900 -12.761200 -39.372700
C -16.098900 -14.046900 -39.873500
H -16.093300 -17.153100 -39.792100
C -16.066700 -16.256400 -40.035000
N -16.061100 -10.516400 -40.011900
C -16.021200 -11.835600 -40.344800
H -15.977100 -9.916700 -40.623400
C -15.919000 -14.446900 -41.191800
N -15.902900 -15.847400 -41.282300
N -15.826600 -12.141500 -41.673200
H -15.774800 -11.413700 -42.313200
C -15.754500 -13.448700 -42.219200
O -15.570500 -13.620400 -43.443800
C -15.042100 -16.601000 -35.940100
C -14.930100 -15.473600 -36.959100
H -14.883900 -18.128200 -37.342200
H -14.669100 -18.645500 -35.876300
H -14.583700 -16.353400 -35.109400
C -14.469600 -17.922500 -36.490100
H -13.951700 -14.027700 -37.837600
C -13.887300 -14.713400 -37.211900
O -13.086000 -17.810800 -36.653300
H -13.085300 -14.859900 -36.765300
H -12.880900 -18.044600 -37.413400
70
Fragment
H -15.113500 -18.044600 -47.416600
H -14.909100 -14.859900 -48.064700
O -14.908400 -17.810800 -48.176700
C -14.107100 -14.713400 -47.618100
H -14.042700 -14.027700 -46.992400
C -13.524800 -17.922500 -48.339900
H -13.410700 -16.353400 -49.720600
H -13.325300 -18.645500 -48.953700
H -13.110500 -18.128200 -47.487800
C -13.064300 -15.473600 -47.870900
C -12.952300 -16.601000 -48.889900
O -12.423900 -13.620400 -41.386200
C -12.239900 -13.448700 -42.610800
H -12.219600 -11.413700 -42.516800
N -12.167800 -12.141500 -43.156800
N -12.091500 -15.847400 -43.547700
C -12.075400 -14.446900 -43.638200
H -12.017300 -9.916700 -44.206600
C -11.973200 -11.835600 -44.485200
N -11.933300 -10.516400 -44.818100
C -11.927700 -16.256400 -44.795000
H -11.901100 -17.153100 -45.037900
C -11.895500 -14.046900 -44.956500
N -11.839500 -12.761200 -45.457300
H -11.823400 -10.282800 -45.638500
N -11.798200 -15.216000 -45.705000
C -11.728300 -15.294500 -47.184100
C -11.470000 -16.718400 -49.131200
H -11.337700 -14.456600 -47.508200
H -11.225100 -17.604000 -49.472900
O -11.122900 -15.668700 -50.062300
H -10.949300 -17.243700 -47.179100
C -10.875100 -16.456900 -47.741300
H -10.334800 -15.743200 -50.277000
H -9.940800 -16.202300 -47.806800
H -18.053600 -16.202300 -37.023200
H -17.659600 -15.743200 -34.553000
C -17.119300 -16.456900 -37.088700
H -17.045100 -17.243700 -37.650900
O -16.871500 -15.668700 -34.767700
H -16.769300 -17.604000 -35.357100
H -16.656700 -14.456600 -37.321800
C -16.524400 -16.718400 -35.698800
C -16.266100 -15.294500 -37.645900
N -16.196200 -15.216000 -39.125000
H -16.171000 -10.282800 -39.191500
N -16.154900 -12.761200 -39.372700
C -16.098900 -14.046900 -39.873500
H -16.093300 -17.153100 -39.792100
C -16.066700 -16.256400 -40.035000
N -16.061100 -10.516400 -40.011900
C -16.021200 -11.835600 -40.344800
H -15.977100 -9.916700 -40.623400
C -15.919000 -14.446900 -41.191800
N -15.902900 -15.847400 -41.282300
N -15.826600 -12.141500 -41.673200
H -15.774800 -11.413700 -42.313200
C -15.754500 -13.448700 -42.219200
O -15.570500 -13.620400 -43.443800
C -15.042100 -16.601000 -35.940100
C -14.930100 -15.473600 -36.959100
H -14.883900 -18.128200 -37.342200
H -14.669100 -18.645500 -35.876300
H -14.583700 -16.353400 -35.109400
C -14.469600 -17.922500 -36.490100
H -13.951700 -14.027700 -37.837600
C -13.887300 -14.713400 -37.211900
O -13.086000 -17.810800 -36.653300
H -13.085300 -14.859900 -36.765300
H -12.880900 -18.044600 -37.413400
