35
Fragment
H -15.113500 -18.044600 -47.416600
H -14.909100 -14.859900 -48.064700
O -14.908400 -17.810800 -48.176700
C -14.107100 -14.713400 -47.618100
H -14.042700 -14.027700 -46.992400
C -13.524800 -17.922500 -48.339900
H -13.410700 -16.353400 -49.720600
H -13.325300 -18.645500 -48.953700
H -13.110500 -18.128200 -47.487800
C -13.064300 -15.473600 -47.870900
C -12.952300 -16.601000 -48.889900
O -12.423900 -13.620400 -41.386200
C -12.239900 -13.448700 -42.610800
H -12.219600 -11.413700 -42.516800
N -12.167800 -12.141500 -43.156800
N -12.091500 -15.847400 -43.547700
C -12.075400 -14.446900 -43.638200
H -12.017300 -9.916700 -44.206600
C -11.973200 -11.835600 -44.485200
N -11.933300 -10.516400 -44.818100
C -11.927700 -16.256400 -44.795000
H -11.901100 -17.153100 -45.037900
C -11.895500 -14.046900 -44.956500
N -11.839500 -12.761200 -45.457300
H -11.823400 -10.282800 -45.638500
N -11.798200 -15.216000 -45.705000
C -11.728300 -15.294500 -47.184100
C -11.470000 -16.718400 -49.131200
H -11.337700 -14.456600 -47.508200
H -11.225100 -17.604000 -49.472900
O -11.122900 -15.668700 -50.062300
H -10.949300 -17.243700 -47.179100
C -10.875100 -16.456900 -47.741300
H -10.334800 -15.743200 -50.277000
H -9.940800 -16.202300 -47.806800
35
Fragment
H -15.113500 -16.824100 -54.379400
H -14.909100 -20.008800 -53.731300
O -14.908400 -17.057900 -53.619300
C -14.107100 -20.155300 -54.177900
H -14.042700 -20.841000 -54.803600
C -13.524800 -16.946200 -53.456100
H -13.410700 -18.515300 -52.075400
H -13.325300 -16.223200 -52.842300
H -13.110500 -16.740500 -54.308200
C -13.064300 -19.395100 -53.925100
C -12.952300 -18.267700 -52.906100
O -12.423900 -21.248300 -60.409800
C -12.239900 -21.420000 -59.185200
H -12.219600 -23.455000 -59.279200
N -12.167800 -22.727200 -58.639200
N -12.091500 -19.021300 -58.248300
C -12.075400 -20.421800 -58.157800
H -12.017300 -24.952000 -57.589400
C -11.973200 -23.033100 -57.310800
N -11.933300 -24.352300 -56.977900
C -11.927700 -18.612300 -57.001000
H -11.901100 -17.715600 -56.758100
C -11.895500 -20.821800 -56.839500
N -11.839500 -22.107500 -56.338700
H -11.823400 -24.585900 -56.157500
N -11.798200 -19.652700 -56.091000
C -11.728300 -19.574200 -54.611900
C -11.470000 -18.150300 -52.664800
H -11.337700 -20.412100 -54.287800
H -11.225100 -17.264700 -52.323100
O -11.122900 -19.200000 -51.733700
H -10.949300 -17.625000 -54.616900
C -10.875100 -18.411800 -54.054700
H -10.334800 -19.125500 -51.519000
H -9.940800 -18.666400 -53.989200
70
Fragment
H -15.113500 -18.044600 -47.416600
H -14.909100 -14.859900 -48.064700
O -14.908400 -17.810800 -48.176700
C -14.107100 -14.713400 -47.618100
H -14.042700 -14.027700 -46.992400
C -13.524800 -17.922500 -48.339900
H -13.410700 -16.353400 -49.720600
H -13.325300 -18.645500 -48.953700
H -13.110500 -18.128200 -47.487800
C -13.064300 -15.473600 -47.870900
C -12.952300 -16.601000 -48.889900
O -12.423900 -13.620400 -41.386200
C -12.239900 -13.448700 -42.610800
H -12.219600 -11.413700 -42.516800
N -12.167800 -12.141500 -43.156800
N -12.091500 -15.847400 -43.547700
C -12.075400 -14.446900 -43.638200
H -12.017300 -9.916700 -44.206600
C -11.973200 -11.835600 -44.485200
N -11.933300 -10.516400 -44.818100
C -11.927700 -16.256400 -44.795000
H -11.901100 -17.153100 -45.037900
C -11.895500 -14.046900 -44.956500
N -11.839500 -12.761200 -45.457300
H -11.823400 -10.282800 -45.638500
N -11.798200 -15.216000 -45.705000
C -11.728300 -15.294500 -47.184100
C -11.470000 -16.718400 -49.131200
H -11.337700 -14.456600 -47.508200
H -11.225100 -17.604000 -49.472900
O -11.122900 -15.668700 -50.062300
H -10.949300 -17.243700 -47.179100
C -10.875100 -16.456900 -47.741300
H -10.334800 -15.743200 -50.277000
H -9.940800 -16.202300 -47.806800
H -15.113500 -16.824100 -54.379400
H -14.909100 -20.008800 -53.731300
O -14.908400 -17.057900 -53.619300
C -14.107100 -20.155300 -54.177900
H -14.042700 -20.841000 -54.803600
C -13.524800 -16.946200 -53.456100
H -13.410700 -18.515300 -52.075400
H -13.325300 -16.223200 -52.842300
H -13.110500 -16.740500 -54.308200
C -13.064300 -19.395100 -53.925100
C -12.952300 -18.267700 -52.906100
O -12.423900 -21.248300 -60.409800
C -12.239900 -21.420000 -59.185200
H -12.219600 -23.455000 -59.279200
N -12.167800 -22.727200 -58.639200
N -12.091500 -19.021300 -58.248300
C -12.075400 -20.421800 -58.157800
H -12.017300 -24.952000 -57.589400
C -11.973200 -23.033100 -57.310800
N -11.933300 -24.352300 -56.977900
C -11.927700 -18.612300 -57.001000
H -11.901100 -17.715600 -56.758100
C -11.895500 -20.821800 -56.839500
N -11.839500 -22.107500 -56.338700
H -11.823400 -24.585900 -56.157500
N -11.798200 -19.652700 -56.091000
C -11.728300 -19.574200 -54.611900
C -11.470000 -18.150300 -52.664800
H -11.337700 -20.412100 -54.287800
H -11.225100 -17.264700 -52.323100
O -11.122900 -19.200000 -51.733700
H -10.949300 -17.625000 -54.616900
C -10.875100 -18.411800 -54.054700
H -10.334800 -19.125500 -51.519000
H -9.940800 -18.666400 -53.989200
