17
Fragment
H -21.134500 -16.748800 -23.838100
N -20.278100 -17.097900 -23.785300
N -20.077600 -18.282800 -23.184500
H -19.410800 -14.731300 -25.107600
C -19.095400 -16.561200 -24.191500
N -18.793300 -18.543800 -23.182900
C -18.756400 -15.365000 -24.840500
C -18.140200 -17.501100 -23.801700
C -17.414200 -15.170900 -25.064500
H -17.140000 -14.375500 -25.505200
C -16.774600 -17.278500 -24.042100
C -16.418200 -16.101200 -24.670100
H -16.118700 -17.915500 -23.781300
C -14.973800 -15.764200 -24.928500
H -14.836100 -15.629300 -25.889000
H -14.738400 -14.944300 -24.446000
H -14.406600 -16.500700 -24.617900
17
Fragment
H -20.900300 -17.231700 -20.315100
H -20.457900 -17.581400 -18.816900
H -20.380400 -18.702100 -19.957400
C -20.273600 -17.746800 -19.765400
H -19.313200 -15.547000 -20.984400
C -18.864200 -17.325000 -20.084100
C -18.609400 -16.132300 -20.727100
H -17.993200 -18.991400 -19.255900
C -17.791100 -18.176200 -19.698900
C -17.267900 -15.820600 -20.985200
H -16.964700 -14.060800 -22.057400
N -16.664800 -14.771700 -21.599800
C -16.475100 -17.866300 -19.942600
C -16.213400 -16.655200 -20.604800
H -15.772600 -18.446800 -19.675000
N -15.322600 -14.947300 -21.605200
N -15.027400 -16.075200 -21.008700
34
Fragment
H -21.134500 -16.748800 -23.838100
N -20.278100 -17.097900 -23.785300
N -20.077600 -18.282800 -23.184500
H -19.410800 -14.731300 -25.107600
C -19.095400 -16.561200 -24.191500
N -18.793300 -18.543800 -23.182900
C -18.756400 -15.365000 -24.840500
C -18.140200 -17.501100 -23.801700
C -17.414200 -15.170900 -25.064500
H -17.140000 -14.375500 -25.505200
C -16.774600 -17.278500 -24.042100
C -16.418200 -16.101200 -24.670100
H -16.118700 -17.915500 -23.781300
C -14.973800 -15.764200 -24.928500
H -14.836100 -15.629300 -25.889000
H -14.738400 -14.944300 -24.446000
H -14.406600 -16.500700 -24.617900
H -20.900300 -17.231700 -20.315100
H -20.457900 -17.581400 -18.816900
H -20.380400 -18.702100 -19.957400
C -20.273600 -17.746800 -19.765400
H -19.313200 -15.547000 -20.984400
C -18.864200 -17.325000 -20.084100
C -18.609400 -16.132300 -20.727100
H -17.993200 -18.991400 -19.255900
C -17.791100 -18.176200 -19.698900
C -17.267900 -15.820600 -20.985200
H -16.964700 -14.060800 -22.057400
N -16.664800 -14.771700 -21.599800
C -16.475100 -17.866300 -19.942600
C -16.213400 -16.655200 -20.604800
H -15.772600 -18.446800 -19.675000
N -15.322600 -14.947300 -21.605200
N -15.027400 -16.075200 -21.008700
