17
Fragment
H -21.134500 -16.748800 -23.838100
N -20.278100 -17.097900 -23.785300
N -20.077600 -18.282800 -23.184500
H -19.410800 -14.731300 -25.107600
C -19.095400 -16.561200 -24.191500
N -18.793300 -18.543800 -23.182900
C -18.756400 -15.365000 -24.840500
C -18.140200 -17.501100 -23.801700
C -17.414200 -15.170900 -25.064500
H -17.140000 -14.375500 -25.505200
C -16.774600 -17.278500 -24.042100
C -16.418200 -16.101200 -24.670100
H -16.118700 -17.915500 -23.781300
C -14.973800 -15.764200 -24.928500
H -14.836100 -15.629300 -25.889000
H -14.738400 -14.944300 -24.446000
H -14.406600 -16.500700 -24.617900
17
Fragment
H -28.683900 -19.807100 -21.434200
H -28.352100 -21.363500 -21.606100
H -28.254400 -20.678500 -20.163100
C -28.116700 -20.543600 -21.123600
H -26.971800 -18.392300 -22.270800
C -26.672300 -20.206600 -21.382000
C -26.315900 -19.029300 -22.010000
H -25.950500 -21.932300 -20.546900
C -25.676300 -21.136900 -20.987600
C -24.950300 -18.806700 -22.250400
C -24.334100 -20.942800 -21.211600
N -24.297200 -17.764000 -22.869200
C -23.995100 -19.746600 -21.860600
H -23.679700 -21.576500 -20.944500
N -23.012900 -18.025000 -22.867600
N -22.812400 -19.209900 -22.266800
H -21.956000 -19.559000 -22.214000
34
Fragment
H -21.134500 -16.748800 -23.838100
N -20.278100 -17.097900 -23.785300
N -20.077600 -18.282800 -23.184500
H -19.410800 -14.731300 -25.107600
C -19.095400 -16.561200 -24.191500
N -18.793300 -18.543800 -23.182900
C -18.756400 -15.365000 -24.840500
C -18.140200 -17.501100 -23.801700
C -17.414200 -15.170900 -25.064500
H -17.140000 -14.375500 -25.505200
C -16.774600 -17.278500 -24.042100
C -16.418200 -16.101200 -24.670100
H -16.118700 -17.915500 -23.781300
C -14.973800 -15.764200 -24.928500
H -14.836100 -15.629300 -25.889000
H -14.738400 -14.944300 -24.446000
H -14.406600 -16.500700 -24.617900
H -28.683900 -19.807100 -21.434200
H -28.352100 -21.363500 -21.606100
H -28.254400 -20.678500 -20.163100
C -28.116700 -20.543600 -21.123600
H -26.971800 -18.392300 -22.270800
C -26.672300 -20.206600 -21.382000
C -26.315900 -19.029300 -22.010000
H -25.950500 -21.932300 -20.546900
C -25.676300 -21.136900 -20.987600
C -24.950300 -18.806700 -22.250400
C -24.334100 -20.942800 -21.211600
N -24.297200 -17.764000 -22.869200
C -23.995100 -19.746600 -21.860600
H -23.679700 -21.576500 -20.944500
N -23.012900 -18.025000 -22.867600
N -22.812400 -19.209900 -22.266800
H -21.956000 -19.559000 -22.214000
