17
Fragment
H -21.134500 -16.748800 -23.838100
N -20.278100 -17.097900 -23.785300
N -20.077600 -18.282800 -23.184500
H -19.410800 -14.731300 -25.107600
C -19.095400 -16.561200 -24.191500
N -18.793300 -18.543800 -23.182900
C -18.756400 -15.365000 -24.840500
C -18.140200 -17.501100 -23.801700
C -17.414200 -15.170900 -25.064500
H -17.140000 -14.375500 -25.505200
C -16.774600 -17.278500 -24.042100
C -16.418200 -16.101200 -24.670100
H -16.118700 -17.915500 -23.781300
C -14.973800 -15.764200 -24.928500
H -14.836100 -15.629300 -25.889000
H -14.738400 -14.944300 -24.446000
H -14.406600 -16.500700 -24.617900
17
Fragment
H -28.082100 -13.024800 -25.737000
H -27.639700 -12.675100 -27.235200
H -27.562100 -11.554400 -26.094700
C -27.455400 -12.509700 -26.286700
H -26.494900 -14.709500 -25.067700
C -26.045900 -12.931500 -25.968000
C -25.791100 -14.124200 -25.325000
H -25.174900 -11.265100 -26.796200
C -24.972800 -12.080300 -26.353200
C -24.449700 -14.435900 -25.066900
H -24.146500 -16.195700 -23.994700
N -23.846600 -15.484800 -24.452300
C -23.656800 -12.390200 -26.109500
C -23.395100 -13.601300 -25.447300
H -22.954300 -11.809700 -26.377100
N -22.504300 -15.309200 -24.446900
N -22.209100 -14.181300 -25.043400
34
Fragment
H -21.134500 -16.748800 -23.838100
N -20.278100 -17.097900 -23.785300
N -20.077600 -18.282800 -23.184500
H -19.410800 -14.731300 -25.107600
C -19.095400 -16.561200 -24.191500
N -18.793300 -18.543800 -23.182900
C -18.756400 -15.365000 -24.840500
C -18.140200 -17.501100 -23.801700
C -17.414200 -15.170900 -25.064500
H -17.140000 -14.375500 -25.505200
C -16.774600 -17.278500 -24.042100
C -16.418200 -16.101200 -24.670100
H -16.118700 -17.915500 -23.781300
C -14.973800 -15.764200 -24.928500
H -14.836100 -15.629300 -25.889000
H -14.738400 -14.944300 -24.446000
H -14.406600 -16.500700 -24.617900
H -28.082100 -13.024800 -25.737000
H -27.639700 -12.675100 -27.235200
H -27.562100 -11.554400 -26.094700
C -27.455400 -12.509700 -26.286700
H -26.494900 -14.709500 -25.067700
C -26.045900 -12.931500 -25.968000
C -25.791100 -14.124200 -25.325000
H -25.174900 -11.265100 -26.796200
C -24.972800 -12.080300 -26.353200
C -24.449700 -14.435900 -25.066900
H -24.146500 -16.195700 -23.994700
N -23.846600 -15.484800 -24.452300
C -23.656800 -12.390200 -26.109500
C -23.395100 -13.601300 -25.447300
H -22.954300 -11.809700 -26.377100
N -22.504300 -15.309200 -24.446900
N -22.209100 -14.181300 -25.043400
