17
Fragment
H -21.134500 -16.748800 -23.838100
N -20.278100 -17.097900 -23.785300
N -20.077600 -18.282800 -23.184500
H -19.410800 -14.731300 -25.107600
C -19.095400 -16.561200 -24.191500
N -18.793300 -18.543800 -23.182900
C -18.756400 -15.365000 -24.840500
C -18.140200 -17.501100 -23.801700
C -17.414200 -15.170900 -25.064500
H -17.140000 -14.375500 -25.505200
C -16.774600 -17.278500 -24.042100
C -16.418200 -16.101200 -24.670100
H -16.118700 -17.915500 -23.781300
C -14.973800 -15.764200 -24.928500
H -14.836100 -15.629300 -25.889000
H -14.738400 -14.944300 -24.446000
H -14.406600 -16.500700 -24.617900
17
Fragment
N -20.881400 -20.232600 -28.684000
N -20.586200 -21.360500 -29.280500
H -20.136200 -17.861000 -27.350300
C -19.695400 -19.652600 -28.280100
C -19.433700 -18.441500 -27.617900
N -19.243900 -21.536100 -29.275200
H -18.944000 -22.247000 -29.732800
C -18.640800 -20.487200 -28.660500
C -18.117700 -18.131600 -27.374300
H -17.915600 -17.316400 -26.931300
C -17.299400 -20.175500 -28.402500
C -17.044600 -18.982800 -27.759400
H -16.595600 -20.760800 -28.659800
C -15.635100 -18.561000 -27.440800
H -15.528400 -17.605700 -27.632800
H -15.450800 -18.726400 -26.492200
H -15.008400 -19.076100 -27.990500
34
Fragment
H -21.134500 -16.748800 -23.838100
N -20.278100 -17.097900 -23.785300
N -20.077600 -18.282800 -23.184500
H -19.410800 -14.731300 -25.107600
C -19.095400 -16.561200 -24.191500
N -18.793300 -18.543800 -23.182900
C -18.756400 -15.365000 -24.840500
C -18.140200 -17.501100 -23.801700
C -17.414200 -15.170900 -25.064500
H -17.140000 -14.375500 -25.505200
C -16.774600 -17.278500 -24.042100
C -16.418200 -16.101200 -24.670100
H -16.118700 -17.915500 -23.781300
C -14.973800 -15.764200 -24.928500
H -14.836100 -15.629300 -25.889000
H -14.738400 -14.944300 -24.446000
H -14.406600 -16.500700 -24.617900
N -20.881400 -20.232600 -28.684000
N -20.586200 -21.360500 -29.280500
H -20.136200 -17.861000 -27.350300
C -19.695400 -19.652600 -28.280100
C -19.433700 -18.441500 -27.617900
N -19.243900 -21.536100 -29.275200
H -18.944000 -22.247000 -29.732800
C -18.640800 -20.487200 -28.660500
C -18.117700 -18.131600 -27.374300
H -17.915600 -17.316400 -26.931300
C -17.299400 -20.175500 -28.402500
C -17.044600 -18.982800 -27.759400
H -16.595600 -20.760800 -28.659800
C -15.635100 -18.561000 -27.440800
H -15.528400 -17.605700 -27.632800
H -15.450800 -18.726400 -26.492200
H -15.008400 -19.076100 -27.990500
