17
Fragment
H -21.134500 -16.748800 -23.838100
N -20.278100 -17.097900 -23.785300
N -20.077600 -18.282800 -23.184500
H -19.410800 -14.731300 -25.107600
C -19.095400 -16.561200 -24.191500
N -18.793300 -18.543800 -23.182900
C -18.756400 -15.365000 -24.840500
C -18.140200 -17.501100 -23.801700
C -17.414200 -15.170900 -25.064500
H -17.140000 -14.375500 -25.505200
C -16.774600 -17.278500 -24.042100
C -16.418200 -16.101200 -24.670100
H -16.118700 -17.915500 -23.781300
C -14.973800 -15.764200 -24.928500
H -14.836100 -15.629300 -25.889000
H -14.738400 -14.944300 -24.446000
H -14.406600 -16.500700 -24.617900
17
Fragment
H -21.502200 -22.552000 -24.617900
H -21.170400 -20.995600 -24.446000
H -21.072700 -21.680600 -25.889000
C -20.934900 -21.815500 -24.928500
H -19.790000 -23.966800 -23.781300
C -19.490600 -22.152500 -24.670100
C -19.134200 -23.329800 -24.042100
H -18.768800 -20.426800 -25.505200
C -18.494600 -21.222200 -25.064500
C -17.768500 -23.552400 -23.801700
C -17.152300 -21.416300 -24.840500
N -17.115400 -24.595100 -23.182900
C -16.813300 -22.612500 -24.191500
H -16.497900 -20.782600 -25.107600
N -15.831200 -24.334100 -23.184500
N -15.630600 -23.149200 -23.785300
H -14.774300 -22.800100 -23.838100
34
Fragment
H -21.134500 -16.748800 -23.838100
N -20.278100 -17.097900 -23.785300
N -20.077600 -18.282800 -23.184500
H -19.410800 -14.731300 -25.107600
C -19.095400 -16.561200 -24.191500
N -18.793300 -18.543800 -23.182900
C -18.756400 -15.365000 -24.840500
C -18.140200 -17.501100 -23.801700
C -17.414200 -15.170900 -25.064500
H -17.140000 -14.375500 -25.505200
C -16.774600 -17.278500 -24.042100
C -16.418200 -16.101200 -24.670100
H -16.118700 -17.915500 -23.781300
C -14.973800 -15.764200 -24.928500
H -14.836100 -15.629300 -25.889000
H -14.738400 -14.944300 -24.446000
H -14.406600 -16.500700 -24.617900
H -21.502200 -22.552000 -24.617900
H -21.170400 -20.995600 -24.446000
H -21.072700 -21.680600 -25.889000
C -20.934900 -21.815500 -24.928500
H -19.790000 -23.966800 -23.781300
C -19.490600 -22.152500 -24.670100
C -19.134200 -23.329800 -24.042100
H -18.768800 -20.426800 -25.505200
C -18.494600 -21.222200 -25.064500
C -17.768500 -23.552400 -23.801700
C -17.152300 -21.416300 -24.840500
N -17.115400 -24.595100 -23.182900
C -16.813300 -22.612500 -24.191500
H -16.497900 -20.782600 -25.107600
N -15.831200 -24.334100 -23.184500
N -15.630600 -23.149200 -23.785300
H -14.774300 -22.800100 -23.838100
