24
Fragment
H -2.077700 -9.007000 -45.625500
H -1.731500 -8.710200 -38.300100
C -1.242300 -9.393800 -45.391600
H -1.036300 -9.119400 -43.400800
C -0.907000 -9.181800 -38.308900
H -0.829300 -9.412400 -36.282200
N -0.746100 -9.509100 -44.133800
H -0.430400 -9.991900 -47.210900
C -0.384500 -9.593900 -37.102700
C -0.330600 -9.932400 -46.268900
N -0.321000 -9.406500 -39.505000
C 0.501500 -10.096700 -44.188500
N 0.722600 -10.125000 -41.857800
C 0.778500 -10.380100 -45.520500
C 0.822000 -10.286400 -37.136700
C 0.841700 -10.072200 -39.506600
H 1.212400 -10.595900 -36.327400
C 1.286000 -10.299100 -43.003600
C 1.452200 -10.526700 -38.335600
N 1.458900 -10.297600 -40.722400
H 1.562100 -10.794500 -45.860800
H 2.199200 -10.555700 -43.063300
H 2.263100 -10.674000 -40.776800
H 2.281300 -10.989300 -38.366700
24
Fragment
H 3.570200 -9.007000 -45.625500
H 3.916400 -8.710200 -38.300100
C 4.405600 -9.393800 -45.391600
H 4.611600 -9.119400 -43.400800
C 4.740900 -9.181800 -38.308900
H 4.818600 -9.412400 -36.282200
N 4.901800 -9.509100 -44.133800
H 5.217500 -9.991900 -47.210900
C 5.263400 -9.593900 -37.102700
C 5.317300 -9.932400 -46.268900
N 5.326900 -9.406500 -39.505000
C 6.149400 -10.096700 -44.188500
N 6.370500 -10.125000 -41.857800
C 6.426400 -10.380100 -45.520500
C 6.469900 -10.286400 -37.136700
C 6.489600 -10.072200 -39.506600
H 6.860300 -10.595900 -36.327400
C 6.933900 -10.299100 -43.003600
C 7.100100 -10.526700 -38.335600
N 7.106800 -10.297600 -40.722400
H 7.210000 -10.794500 -45.860800
H 7.847100 -10.555700 -43.063300
H 7.911000 -10.674000 -40.776800
H 7.929200 -10.989300 -38.366700
48
Fragment
H -2.077700 -9.007000 -45.625500
H -1.731500 -8.710200 -38.300100
C -1.242300 -9.393800 -45.391600
H -1.036300 -9.119400 -43.400800
C -0.907000 -9.181800 -38.308900
H -0.829300 -9.412400 -36.282200
N -0.746100 -9.509100 -44.133800
H -0.430400 -9.991900 -47.210900
C -0.384500 -9.593900 -37.102700
C -0.330600 -9.932400 -46.268900
N -0.321000 -9.406500 -39.505000
C 0.501500 -10.096700 -44.188500
N 0.722600 -10.125000 -41.857800
C 0.778500 -10.380100 -45.520500
C 0.822000 -10.286400 -37.136700
C 0.841700 -10.072200 -39.506600
H 1.212400 -10.595900 -36.327400
C 1.286000 -10.299100 -43.003600
C 1.452200 -10.526700 -38.335600
N 1.458900 -10.297600 -40.722400
H 1.562100 -10.794500 -45.860800
H 2.199200 -10.555700 -43.063300
H 2.263100 -10.674000 -40.776800
H 2.281300 -10.989300 -38.366700
H 3.570200 -9.007000 -45.625500
H 3.916400 -8.710200 -38.300100
C 4.405600 -9.393800 -45.391600
H 4.611600 -9.119400 -43.400800
C 4.740900 -9.181800 -38.308900
H 4.818600 -9.412400 -36.282200
N 4.901800 -9.509100 -44.133800
H 5.217500 -9.991900 -47.210900
C 5.263400 -9.593900 -37.102700
C 5.317300 -9.932400 -46.268900
N 5.326900 -9.406500 -39.505000
C 6.149400 -10.096700 -44.188500
N 6.370500 -10.125000 -41.857800
C 6.426400 -10.380100 -45.520500
C 6.469900 -10.286400 -37.136700
C 6.489600 -10.072200 -39.506600
H 6.860300 -10.595900 -36.327400
C 6.933900 -10.299100 -43.003600
C 7.100100 -10.526700 -38.335600
N 7.106800 -10.297600 -40.722400
H 7.210000 -10.794500 -45.860800
H 7.847100 -10.555700 -43.063300
H 7.911000 -10.674000 -40.776800
H 7.929200 -10.989300 -38.366700
