24
Fragment
H -2.077700 -9.007000 -45.625500
H -1.731500 -8.710200 -38.300100
C -1.242300 -9.393800 -45.391600
H -1.036300 -9.119400 -43.400800
C -0.907000 -9.181800 -38.308900
H -0.829300 -9.412400 -36.282200
N -0.746100 -9.509100 -44.133800
H -0.430400 -9.991900 -47.210900
C -0.384500 -9.593900 -37.102700
C -0.330600 -9.932400 -46.268900
N -0.321000 -9.406500 -39.505000
C 0.501500 -10.096700 -44.188500
N 0.722600 -10.125000 -41.857800
C 0.778500 -10.380100 -45.520500
C 0.822000 -10.286400 -37.136700
C 0.841700 -10.072200 -39.506600
H 1.212400 -10.595900 -36.327400
C 1.286000 -10.299100 -43.003600
C 1.452200 -10.526700 -38.335600
N 1.458900 -10.297600 -40.722400
H 1.562100 -10.794500 -45.860800
H 2.199200 -10.555700 -43.063300
H 2.263100 -10.674000 -40.776800
H 2.281300 -10.989300 -38.366700
24
Fragment
H -5.207900 -14.708500 -44.822100
H -5.189700 -14.393100 -42.412000
H -5.125800 -14.274800 -40.125500
H -4.488700 -14.513600 -37.328000
N -4.385500 -14.016700 -42.466500
C -4.378800 -14.245800 -44.853300
C -4.212600 -14.018200 -40.185200
H -4.139000 -14.315000 -46.861500
C -3.768300 -13.791400 -43.682200
C -3.748600 -14.005600 -46.052200
C -3.705100 -14.099300 -37.668400
N -3.649200 -13.844200 -41.331100
C -3.428000 -13.815900 -39.000400
N -2.605600 -13.125600 -43.683900
C -2.596000 -13.651500 -36.919900
C -2.542100 -13.313100 -46.086100
H -2.496100 -13.711000 -35.978000
N -2.180500 -13.228300 -39.055000
H -2.097300 -13.131600 -46.906600
C -2.019500 -12.901000 -44.879900
H -1.890300 -12.838500 -39.788000
C -1.684300 -13.113000 -37.797200
H -1.195100 -12.429400 -44.888700
H -0.848900 -12.726200 -37.563300
48
Fragment
H -2.077700 -9.007000 -45.625500
H -1.731500 -8.710200 -38.300100
C -1.242300 -9.393800 -45.391600
H -1.036300 -9.119400 -43.400800
C -0.907000 -9.181800 -38.308900
H -0.829300 -9.412400 -36.282200
N -0.746100 -9.509100 -44.133800
H -0.430400 -9.991900 -47.210900
C -0.384500 -9.593900 -37.102700
C -0.330600 -9.932400 -46.268900
N -0.321000 -9.406500 -39.505000
C 0.501500 -10.096700 -44.188500
N 0.722600 -10.125000 -41.857800
C 0.778500 -10.380100 -45.520500
C 0.822000 -10.286400 -37.136700
C 0.841700 -10.072200 -39.506600
H 1.212400 -10.595900 -36.327400
C 1.286000 -10.299100 -43.003600
C 1.452200 -10.526700 -38.335600
N 1.458900 -10.297600 -40.722400
H 1.562100 -10.794500 -45.860800
H 2.199200 -10.555700 -43.063300
H 2.263100 -10.674000 -40.776800
H 2.281300 -10.989300 -38.366700
H -5.207900 -14.708500 -44.822100
H -5.189700 -14.393100 -42.412000
H -5.125800 -14.274800 -40.125500
H -4.488700 -14.513600 -37.328000
N -4.385500 -14.016700 -42.466500
C -4.378800 -14.245800 -44.853300
C -4.212600 -14.018200 -40.185200
H -4.139000 -14.315000 -46.861500
C -3.768300 -13.791400 -43.682200
C -3.748600 -14.005600 -46.052200
C -3.705100 -14.099300 -37.668400
N -3.649200 -13.844200 -41.331100
C -3.428000 -13.815900 -39.000400
N -2.605600 -13.125600 -43.683900
C -2.596000 -13.651500 -36.919900
C -2.542100 -13.313100 -46.086100
H -2.496100 -13.711000 -35.978000
N -2.180500 -13.228300 -39.055000
H -2.097300 -13.131600 -46.906600
C -2.019500 -12.901000 -44.879900
H -1.890300 -12.838500 -39.788000
C -1.684300 -13.113000 -37.797200
H -1.195100 -12.429400 -44.888700
H -0.848900 -12.726200 -37.563300
