12
Fragment
H -18.260100 -13.020000 -16.339400
N -17.609500 -13.008600 -15.767300
N -17.609400 -12.141900 -14.707700
O -16.749900 -10.768300 -12.603400
H -16.635400 -14.700600 -17.366300
C -16.470300 -12.439900 -14.142500
C -16.469900 -13.747600 -15.759700
N -16.184300 -14.704000 -16.655100
N -16.053900 -11.713600 -12.960400
N -15.713200 -13.398700 -14.709200
H -15.362200 -15.089400 -16.605600
O -15.021000 -12.088100 -12.409500
18
Fragment
H -23.005200 -10.314700 -16.324200
O -22.465300 -7.385800 -12.439700
N -22.252000 -10.934900 -16.505700
N -22.244900 -11.814100 -17.538200
N -21.623400 -9.326300 -14.091700
N -21.344100 -7.845100 -12.189900
O -21.315300 -13.810900 -19.141600
C -21.109700 -11.032500 -15.803900
C -21.059000 -12.376500 -17.362500
C -20.869400 -8.903500 -13.064700
C -20.818700 -10.247600 -14.623300
O -20.613000 -7.469100 -11.285600
N -20.584300 -13.435000 -18.237300
N -20.305000 -11.953700 -16.335400
N -19.683500 -9.465900 -12.888900
N -19.676400 -10.345200 -13.921500
O -19.463100 -13.894200 -17.987500
H -18.923200 -10.965300 -14.103000
30
Fragment
H -18.260100 -13.020000 -16.339400
N -17.609500 -13.008600 -15.767300
N -17.609400 -12.141900 -14.707700
O -16.749900 -10.768300 -12.603400
H -16.635400 -14.700600 -17.366300
C -16.470300 -12.439900 -14.142500
C -16.469900 -13.747600 -15.759700
N -16.184300 -14.704000 -16.655100
N -16.053900 -11.713600 -12.960400
N -15.713200 -13.398700 -14.709200
H -15.362200 -15.089400 -16.605600
O -15.021000 -12.088100 -12.409500
H -23.005200 -10.314700 -16.324200
O -22.465300 -7.385800 -12.439700
N -22.252000 -10.934900 -16.505700
N -22.244900 -11.814100 -17.538200
N -21.623400 -9.326300 -14.091700
N -21.344100 -7.845100 -12.189900
O -21.315300 -13.810900 -19.141600
C -21.109700 -11.032500 -15.803900
C -21.059000 -12.376500 -17.362500
C -20.869400 -8.903500 -13.064700
C -20.818700 -10.247600 -14.623300
O -20.613000 -7.469100 -11.285600
N -20.584300 -13.435000 -18.237300
N -20.305000 -11.953700 -16.335400
N -19.683500 -9.465900 -12.888900
N -19.676400 -10.345200 -13.921500
O -19.463100 -13.894200 -17.987500
H -18.923200 -10.965300 -14.103000
