18
Fragment
H -9.704400 -9.702800 -14.709300
N -9.601500 -8.331500 -16.073500
N -9.351600 -9.513500 -15.481900
O -9.195300 -6.242900 -17.740300
C -8.780700 -8.402300 -17.106800
N -8.708000 -7.316500 -18.064500
C -8.413800 -10.189700 -16.166600
N -8.307600 -12.170700 -14.697600
O -8.175200 -14.125700 -12.792600
O -8.153800 -7.548400 -19.137800
N -8.021500 -9.503400 -17.232800
C -7.915300 -11.484400 -15.763800
N -7.621100 -14.357600 -13.865900
C -7.548300 -13.271800 -14.823600
O -7.133800 -15.431200 -14.190100
N -6.977500 -12.160600 -16.448500
N -6.727600 -13.342600 -15.857000
H -6.624600 -11.971300 -17.221100
16
Fragment
O -7.309700 -7.640800 -21.965600
H -7.303300 -9.529400 -19.477600
N -6.789800 -10.194800 -19.898400
N -6.722100 -8.296800 -22.823200
O -6.543300 -7.937800 -23.990900
N -6.491000 -11.345700 -19.270900
C -6.345000 -10.229500 -21.188000
C -6.221300 -9.572000 -22.423800
C -5.852100 -12.102100 -20.150100
C -5.728500 -11.444600 -21.385900
N -5.582500 -10.328400 -23.303000
O -5.530200 -13.736300 -18.583000
N -5.351400 -13.377300 -19.750700
N -5.283700 -11.479300 -22.675500
H -4.770200 -12.144700 -23.096300
O -4.763800 -14.033300 -20.608300
34
Fragment
H -9.704400 -9.702800 -14.709300
N -9.601500 -8.331500 -16.073500
N -9.351600 -9.513500 -15.481900
O -9.195300 -6.242900 -17.740300
C -8.780700 -8.402300 -17.106800
N -8.708000 -7.316500 -18.064500
C -8.413800 -10.189700 -16.166600
N -8.307600 -12.170700 -14.697600
O -8.175200 -14.125700 -12.792600
O -8.153800 -7.548400 -19.137800
N -8.021500 -9.503400 -17.232800
C -7.915300 -11.484400 -15.763800
N -7.621100 -14.357600 -13.865900
C -7.548300 -13.271800 -14.823600
O -7.133800 -15.431200 -14.190100
N -6.977500 -12.160600 -16.448500
N -6.727600 -13.342600 -15.857000
H -6.624600 -11.971300 -17.221100
O -7.309700 -7.640800 -21.965600
H -7.303300 -9.529400 -19.477600
N -6.789800 -10.194800 -19.898400
N -6.722100 -8.296800 -22.823200
O -6.543300 -7.937800 -23.990900
N -6.491000 -11.345700 -19.270900
C -6.345000 -10.229500 -21.188000
C -6.221300 -9.572000 -22.423800
C -5.852100 -12.102100 -20.150100
C -5.728500 -11.444600 -21.385900
N -5.582500 -10.328400 -23.303000
O -5.530200 -13.736300 -18.583000
N -5.351400 -13.377300 -19.750700
N -5.283700 -11.479300 -22.675500
H -4.770200 -12.144700 -23.096300
O -4.763800 -14.033300 -20.608300
