12
Fragment
H -18.260100 -13.020000 -16.339400
N -17.609500 -13.008600 -15.767300
N -17.609400 -12.141900 -14.707700
O -16.749900 -10.768300 -12.603400
H -16.635400 -14.700600 -17.366300
C -16.470300 -12.439900 -14.142500
C -16.469900 -13.747600 -15.759700
N -16.184300 -14.704000 -16.655100
N -16.053900 -11.713600 -12.960400
N -15.713200 -13.398700 -14.709200
H -15.362200 -15.089400 -16.605600
O -15.021000 -12.088100 -12.409500
12
Fragment
O -21.602500 -16.740000 -18.017700
H -21.261300 -13.738600 -13.821500
N -20.910300 -15.429300 -15.717900
N -20.569600 -17.114500 -17.466700
N -20.439200 -14.124100 -13.772100
C -20.153600 -15.080500 -14.667400
C -20.153200 -16.388100 -16.284600
H -19.988100 -14.127500 -13.060900
O -19.873600 -18.059700 -17.823800
N -19.014100 -16.686100 -15.719400
N -19.014000 -15.819400 -14.659800
H -18.363400 -15.808000 -14.087800
24
Fragment
H -18.260100 -13.020000 -16.339400
N -17.609500 -13.008600 -15.767300
N -17.609400 -12.141900 -14.707700
O -16.749900 -10.768300 -12.603400
H -16.635400 -14.700600 -17.366300
C -16.470300 -12.439900 -14.142500
C -16.469900 -13.747600 -15.759700
N -16.184300 -14.704000 -16.655100
N -16.053900 -11.713600 -12.960400
N -15.713200 -13.398700 -14.709200
H -15.362200 -15.089400 -16.605600
O -15.021000 -12.088100 -12.409500
O -21.602500 -16.740000 -18.017700
H -21.261300 -13.738600 -13.821500
N -20.910300 -15.429300 -15.717900
N -20.569600 -17.114500 -17.466700
N -20.439200 -14.124100 -13.772100
C -20.153600 -15.080500 -14.667400
C -20.153200 -16.388100 -16.284600
H -19.988100 -14.127500 -13.060900
O -19.873600 -18.059700 -17.823800
N -19.014100 -16.686100 -15.719400
N -19.014000 -15.819400 -14.659800
H -18.363400 -15.808000 -14.087800
