12
Fragment
H -18.260100 -13.020000 -16.339400
N -17.609500 -13.008600 -15.767300
N -17.609400 -12.141900 -14.707700
O -16.749900 -10.768300 -12.603400
H -16.635400 -14.700600 -17.366300
C -16.470300 -12.439900 -14.142500
C -16.469900 -13.747600 -15.759700
N -16.184300 -14.704000 -16.655100
N -16.053900 -11.713600 -12.960400
N -15.713200 -13.398700 -14.709200
H -15.362200 -15.089400 -16.605600
O -15.021000 -12.088100 -12.409500
12
Fragment
H -20.086600 -14.566000 -23.946200
N -19.436000 -14.554600 -23.374100
N -19.435900 -13.687900 -22.314500
O -18.576400 -12.314300 -20.210200
H -18.461900 -16.246600 -24.973100
C -18.296800 -13.985900 -21.749300
C -18.296400 -15.293600 -23.366500
N -18.010800 -16.250000 -24.261800
N -17.880400 -13.259600 -20.567200
N -17.539700 -14.944800 -22.316000
H -17.188700 -16.635500 -24.212400
O -16.847500 -13.634100 -20.016300
24
Fragment
H -18.260100 -13.020000 -16.339400
N -17.609500 -13.008600 -15.767300
N -17.609400 -12.141900 -14.707700
O -16.749900 -10.768300 -12.603400
H -16.635400 -14.700600 -17.366300
C -16.470300 -12.439900 -14.142500
C -16.469900 -13.747600 -15.759700
N -16.184300 -14.704000 -16.655100
N -16.053900 -11.713600 -12.960400
N -15.713200 -13.398700 -14.709200
H -15.362200 -15.089400 -16.605600
O -15.021000 -12.088100 -12.409500
H -20.086600 -14.566000 -23.946200
N -19.436000 -14.554600 -23.374100
N -19.435900 -13.687900 -22.314500
O -18.576400 -12.314300 -20.210200
H -18.461900 -16.246600 -24.973100
C -18.296800 -13.985900 -21.749300
C -18.296400 -15.293600 -23.366500
N -18.010800 -16.250000 -24.261800
N -17.880400 -13.259600 -20.567200
N -17.539700 -14.944800 -22.316000
H -17.188700 -16.635500 -24.212400
O -16.847500 -13.634100 -20.016300
