18
Fragment
H -9.704400 -9.702800 -14.709300
N -9.601500 -8.331500 -16.073500
N -9.351600 -9.513500 -15.481900
O -9.195300 -6.242900 -17.740300
C -8.780700 -8.402300 -17.106800
N -8.708000 -7.316500 -18.064500
C -8.413800 -10.189700 -16.166600
N -8.307600 -12.170700 -14.697600
O -8.175200 -14.125700 -12.792600
O -8.153800 -7.548400 -19.137800
N -8.021500 -9.503400 -17.232800
C -7.915300 -11.484400 -15.763800
N -7.621100 -14.357600 -13.865900
C -7.548300 -13.271800 -14.823600
O -7.133800 -15.431200 -14.190100
N -6.977500 -12.160600 -16.448500
N -6.727600 -13.342600 -15.857000
H -6.624600 -11.971300 -17.221100
16
Fragment
O -4.588200 -17.645600 -16.643800
H -4.581800 -15.757100 -14.155800
N -4.068300 -15.091700 -14.576700
N -4.000600 -16.989600 -17.501500
O -3.821800 -17.348700 -18.669200
N -3.769500 -13.940800 -13.949100
C -3.623500 -15.057000 -15.866200
C -3.499800 -15.714400 -17.102000
C -3.130600 -13.184400 -14.828400
C -3.007000 -13.841800 -16.064200
N -2.861000 -14.958000 -17.981300
O -2.808700 -11.550100 -13.261200
N -2.629900 -11.909200 -14.428900
N -2.562200 -13.807100 -17.353800
H -2.048700 -13.141700 -17.774600
O -2.042300 -11.253200 -15.286600
34
Fragment
H -9.704400 -9.702800 -14.709300
N -9.601500 -8.331500 -16.073500
N -9.351600 -9.513500 -15.481900
O -9.195300 -6.242900 -17.740300
C -8.780700 -8.402300 -17.106800
N -8.708000 -7.316500 -18.064500
C -8.413800 -10.189700 -16.166600
N -8.307600 -12.170700 -14.697600
O -8.175200 -14.125700 -12.792600
O -8.153800 -7.548400 -19.137800
N -8.021500 -9.503400 -17.232800
C -7.915300 -11.484400 -15.763800
N -7.621100 -14.357600 -13.865900
C -7.548300 -13.271800 -14.823600
O -7.133800 -15.431200 -14.190100
N -6.977500 -12.160600 -16.448500
N -6.727600 -13.342600 -15.857000
H -6.624600 -11.971300 -17.221100
O -4.588200 -17.645600 -16.643800
H -4.581800 -15.757100 -14.155800
N -4.068300 -15.091700 -14.576700
N -4.000600 -16.989600 -17.501500
O -3.821800 -17.348700 -18.669200
N -3.769500 -13.940800 -13.949100
C -3.623500 -15.057000 -15.866200
C -3.499800 -15.714400 -17.102000
C -3.130600 -13.184400 -14.828400
C -3.007000 -13.841800 -16.064200
N -2.861000 -14.958000 -17.981300
O -2.808700 -11.550100 -13.261200
N -2.629900 -11.909200 -14.428900
N -2.562200 -13.807100 -17.353800
H -2.048700 -13.141700 -17.774600
O -2.042300 -11.253200 -15.286600
