12
Fragment
H -18.260100 -13.020000 -16.339400
N -17.609500 -13.008600 -15.767300
N -17.609400 -12.141900 -14.707700
O -16.749900 -10.768300 -12.603400
H -16.635400 -14.700600 -17.366300
C -16.470300 -12.439900 -14.142500
C -16.469900 -13.747600 -15.759700
N -16.184300 -14.704000 -16.655100
N -16.053900 -11.713600 -12.960400
N -15.713200 -13.398700 -14.709200
H -15.362200 -15.089400 -16.605600
O -15.021000 -12.088100 -12.409500
18
Fragment
H -21.178800 -8.768700 -8.717400
O -20.638800 -5.839800 -4.832900
N -20.425500 -9.388800 -8.898900
N -20.418400 -10.268100 -9.931400
N -19.796900 -7.780300 -6.484900
N -19.517600 -6.299100 -4.583100
O -19.488900 -12.264900 -11.534800
C -19.283200 -9.486500 -8.197100
C -19.232500 -10.830500 -9.755700
C -19.042900 -7.357500 -5.457900
C -18.992200 -8.701600 -7.016500
O -18.786600 -5.923100 -3.678800
N -18.757800 -11.888900 -10.630500
N -18.478500 -10.407700 -8.728600
N -17.857000 -7.919900 -5.282200
N -17.849900 -8.799200 -6.314700
O -17.636600 -12.348200 -10.380700
H -17.096700 -9.419300 -6.496200
30
Fragment
H -18.260100 -13.020000 -16.339400
N -17.609500 -13.008600 -15.767300
N -17.609400 -12.141900 -14.707700
O -16.749900 -10.768300 -12.603400
H -16.635400 -14.700600 -17.366300
C -16.470300 -12.439900 -14.142500
C -16.469900 -13.747600 -15.759700
N -16.184300 -14.704000 -16.655100
N -16.053900 -11.713600 -12.960400
N -15.713200 -13.398700 -14.709200
H -15.362200 -15.089400 -16.605600
O -15.021000 -12.088100 -12.409500
H -21.178800 -8.768700 -8.717400
O -20.638800 -5.839800 -4.832900
N -20.425500 -9.388800 -8.898900
N -20.418400 -10.268100 -9.931400
N -19.796900 -7.780300 -6.484900
N -19.517600 -6.299100 -4.583100
O -19.488900 -12.264900 -11.534800
C -19.283200 -9.486500 -8.197100
C -19.232500 -10.830500 -9.755700
C -19.042900 -7.357500 -5.457900
C -18.992200 -8.701600 -7.016500
O -18.786600 -5.923100 -3.678800
N -18.757800 -11.888900 -10.630500
N -18.478500 -10.407700 -8.728600
N -17.857000 -7.919900 -5.282200
N -17.849900 -8.799200 -6.314700
O -17.636600 -12.348200 -10.380700
H -17.096700 -9.419300 -6.496200
