12
Fragment
H -18.260100 -13.020000 -16.339400
N -17.609500 -13.008600 -15.767300
N -17.609400 -12.141900 -14.707700
O -16.749900 -10.768300 -12.603400
H -16.635400 -14.700600 -17.366300
C -16.470300 -12.439900 -14.142500
C -16.469900 -13.747600 -15.759700
N -16.184300 -14.704000 -16.655100
N -16.053900 -11.713600 -12.960400
N -15.713200 -13.398700 -14.709200
H -15.362200 -15.089400 -16.605600
O -15.021000 -12.088100 -12.409500
18
Fragment
H -19.526800 -19.408700 -23.931000
O -18.986900 -16.479900 -20.046500
N -18.773600 -20.028900 -24.112500
N -18.766500 -20.908200 -25.145000
N -18.145000 -18.420300 -21.698500
N -17.865700 -16.939100 -19.796700
O -17.837000 -22.904900 -26.748400
C -17.631300 -20.126500 -23.410600
C -17.580600 -21.470500 -24.969300
C -17.391000 -17.997500 -20.671400
C -17.340300 -19.341600 -22.230100
O -17.134700 -16.563100 -18.892400
N -17.105900 -22.529000 -25.844100
N -16.826600 -21.047700 -23.942200
N -16.205100 -18.559900 -20.495700
N -16.198000 -19.439200 -21.528300
O -15.984700 -22.988200 -25.594300
H -15.444800 -20.059300 -21.709800
30
Fragment
H -18.260100 -13.020000 -16.339400
N -17.609500 -13.008600 -15.767300
N -17.609400 -12.141900 -14.707700
O -16.749900 -10.768300 -12.603400
H -16.635400 -14.700600 -17.366300
C -16.470300 -12.439900 -14.142500
C -16.469900 -13.747600 -15.759700
N -16.184300 -14.704000 -16.655100
N -16.053900 -11.713600 -12.960400
N -15.713200 -13.398700 -14.709200
H -15.362200 -15.089400 -16.605600
O -15.021000 -12.088100 -12.409500
H -19.526800 -19.408700 -23.931000
O -18.986900 -16.479900 -20.046500
N -18.773600 -20.028900 -24.112500
N -18.766500 -20.908200 -25.145000
N -18.145000 -18.420300 -21.698500
N -17.865700 -16.939100 -19.796700
O -17.837000 -22.904900 -26.748400
C -17.631300 -20.126500 -23.410600
C -17.580600 -21.470500 -24.969300
C -17.391000 -17.997500 -20.671400
C -17.340300 -19.341600 -22.230100
O -17.134700 -16.563100 -18.892400
N -17.105900 -22.529000 -25.844100
N -16.826600 -21.047700 -23.942200
N -16.205100 -18.559900 -20.495700
N -16.198000 -19.439200 -21.528300
O -15.984700 -22.988200 -25.594300
H -15.444800 -20.059300 -21.709800
