18
Fragment
H -9.704400 -9.702800 -14.709300
N -9.601500 -8.331500 -16.073500
N -9.351600 -9.513500 -15.481900
O -9.195300 -6.242900 -17.740300
C -8.780700 -8.402300 -17.106800
N -8.708000 -7.316500 -18.064500
C -8.413800 -10.189700 -16.166600
N -8.307600 -12.170700 -14.697600
O -8.175200 -14.125700 -12.792600
O -8.153800 -7.548400 -19.137800
N -8.021500 -9.503400 -17.232800
C -7.915300 -11.484400 -15.763800
N -7.621100 -14.357600 -13.865900
C -7.548300 -13.271800 -14.823600
O -7.133800 -15.431200 -14.190100
N -6.977500 -12.160600 -16.448500
N -6.727600 -13.342600 -15.857000
H -6.624600 -11.971300 -17.221100
18
Fragment
H -9.704400 -16.927500 -14.709300
N -9.601500 -15.556200 -16.073500
N -9.351600 -16.738200 -15.481900
O -9.195300 -13.467600 -17.740300
C -8.780700 -15.627000 -17.106800
N -8.708000 -14.541200 -18.064500
C -8.413800 -17.414400 -16.166600
N -8.307600 -19.395400 -14.697600
O -8.175200 -21.350400 -12.792600
O -8.153800 -14.773100 -19.137800
N -8.021500 -16.728100 -17.232800
C -7.915300 -18.709100 -15.763800
N -7.621100 -21.582300 -13.865900
C -7.548300 -20.496500 -14.823600
O -7.133800 -22.655900 -14.190100
N -6.977500 -19.385300 -16.448500
N -6.727600 -20.567300 -15.857000
H -6.624600 -19.196000 -17.221100
36
Fragment
H -9.704400 -9.702800 -14.709300
N -9.601500 -8.331500 -16.073500
N -9.351600 -9.513500 -15.481900
O -9.195300 -6.242900 -17.740300
C -8.780700 -8.402300 -17.106800
N -8.708000 -7.316500 -18.064500
C -8.413800 -10.189700 -16.166600
N -8.307600 -12.170700 -14.697600
O -8.175200 -14.125700 -12.792600
O -8.153800 -7.548400 -19.137800
N -8.021500 -9.503400 -17.232800
C -7.915300 -11.484400 -15.763800
N -7.621100 -14.357600 -13.865900
C -7.548300 -13.271800 -14.823600
O -7.133800 -15.431200 -14.190100
N -6.977500 -12.160600 -16.448500
N -6.727600 -13.342600 -15.857000
H -6.624600 -11.971300 -17.221100
H -9.704400 -16.927500 -14.709300
N -9.601500 -15.556200 -16.073500
N -9.351600 -16.738200 -15.481900
O -9.195300 -13.467600 -17.740300
C -8.780700 -15.627000 -17.106800
N -8.708000 -14.541200 -18.064500
C -8.413800 -17.414400 -16.166600
N -8.307600 -19.395400 -14.697600
O -8.175200 -21.350400 -12.792600
O -8.153800 -14.773100 -19.137800
N -8.021500 -16.728100 -17.232800
C -7.915300 -18.709100 -15.763800
N -7.621100 -21.582300 -13.865900
C -7.548300 -20.496500 -14.823600
O -7.133800 -22.655900 -14.190100
N -6.977500 -19.385300 -16.448500
N -6.727600 -20.567300 -15.857000
H -6.624600 -19.196000 -17.221100
