18
Fragment
O -12.920800 -11.234400 -21.702000
O -12.025700 -9.644700 -20.513300
N -11.982100 -10.716800 -21.094200
C -10.740000 -11.466400 -21.074400
N -10.662900 -12.648100 -21.696400
H -10.196400 -15.192700 -22.902400
N -9.672800 -11.027000 -20.435600
C -9.412000 -12.988300 -21.416800
N -9.364100 -15.177100 -22.556300
N -8.817700 -12.037700 -20.677400
C -8.769800 -14.226500 -21.816900
N -8.509000 -16.187800 -22.798200
H -7.985400 -12.022100 -20.331400
N -7.518900 -14.566700 -21.537300
C -7.441800 -15.748400 -22.159300
N -6.199700 -16.498000 -22.139600
O -6.156100 -17.570100 -22.720500
O -5.261000 -15.980400 -21.531700
13
Fragment
O -16.312900 -8.440200 -25.025400
N -15.163300 -8.704400 -25.374700
O -14.859900 -9.305600 -26.391500
H -14.750500 -6.344500 -23.909700
C -14.104500 -8.242300 -24.507900
C -14.079400 -7.016600 -23.883000
O -13.165300 -10.987600 -24.931200
N -12.910200 -6.968800 -23.228800
C -12.894300 -8.854300 -24.154500
H -12.593700 -6.320600 -22.765400
N -12.390900 -10.178900 -24.435900
N -12.170400 -8.081000 -23.368000
O -11.221800 -10.410300 -24.129900
31
Fragment
O -12.920800 -11.234400 -21.702000
O -12.025700 -9.644700 -20.513300
N -11.982100 -10.716800 -21.094200
C -10.740000 -11.466400 -21.074400
N -10.662900 -12.648100 -21.696400
H -10.196400 -15.192700 -22.902400
N -9.672800 -11.027000 -20.435600
C -9.412000 -12.988300 -21.416800
N -9.364100 -15.177100 -22.556300
N -8.817700 -12.037700 -20.677400
C -8.769800 -14.226500 -21.816900
N -8.509000 -16.187800 -22.798200
H -7.985400 -12.022100 -20.331400
N -7.518900 -14.566700 -21.537300
C -7.441800 -15.748400 -22.159300
N -6.199700 -16.498000 -22.139600
O -6.156100 -17.570100 -22.720500
O -5.261000 -15.980400 -21.531700
O -16.312900 -8.440200 -25.025400
N -15.163300 -8.704400 -25.374700
O -14.859900 -9.305600 -26.391500
H -14.750500 -6.344500 -23.909700
C -14.104500 -8.242300 -24.507900
C -14.079400 -7.016600 -23.883000
O -13.165300 -10.987600 -24.931200
N -12.910200 -6.968800 -23.228800
C -12.894300 -8.854300 -24.154500
H -12.593700 -6.320600 -22.765400
N -12.390900 -10.178900 -24.435900
N -12.170400 -8.081000 -23.368000
O -11.221800 -10.410300 -24.129900
