18
Fragment
O -12.920800 -11.234400 -21.702000
O -12.025700 -9.644700 -20.513300
N -11.982100 -10.716800 -21.094200
C -10.740000 -11.466400 -21.074400
N -10.662900 -12.648100 -21.696400
H -10.196400 -15.192700 -22.902400
N -9.672800 -11.027000 -20.435600
C -9.412000 -12.988300 -21.416800
N -9.364100 -15.177100 -22.556300
N -8.817700 -12.037700 -20.677400
C -8.769800 -14.226500 -21.816900
N -8.509000 -16.187800 -22.798200
H -7.985400 -12.022100 -20.331400
N -7.518900 -14.566700 -21.537300
C -7.441800 -15.748400 -22.159300
N -6.199700 -16.498000 -22.139600
O -6.156100 -17.570100 -22.720500
O -5.261000 -15.980400 -21.531700
18
Fragment
O -3.102600 -18.038100 -21.702000
O -2.207500 -16.448400 -20.513300
N -2.163900 -17.520500 -21.094200
C -0.921800 -18.270100 -21.074400
N -0.844700 -19.451800 -21.696400
H -0.378200 -21.996400 -22.902400
N 0.145400 -17.830700 -20.435600
C 0.406200 -19.792000 -21.416800
N 0.454100 -21.980800 -22.556300
N 1.000500 -18.841400 -20.677400
C 1.048400 -21.030200 -21.816900
N 1.309200 -22.991500 -22.798200
H 1.832800 -18.825800 -20.331400
N 2.299300 -21.370400 -21.537300
C 2.376400 -22.552100 -22.159300
N 3.618500 -23.301700 -22.139600
O 3.662100 -24.373800 -22.720500
O 4.557200 -22.784100 -21.531700
36
Fragment
O -12.920800 -11.234400 -21.702000
O -12.025700 -9.644700 -20.513300
N -11.982100 -10.716800 -21.094200
C -10.740000 -11.466400 -21.074400
N -10.662900 -12.648100 -21.696400
H -10.196400 -15.192700 -22.902400
N -9.672800 -11.027000 -20.435600
C -9.412000 -12.988300 -21.416800
N -9.364100 -15.177100 -22.556300
N -8.817700 -12.037700 -20.677400
C -8.769800 -14.226500 -21.816900
N -8.509000 -16.187800 -22.798200
H -7.985400 -12.022100 -20.331400
N -7.518900 -14.566700 -21.537300
C -7.441800 -15.748400 -22.159300
N -6.199700 -16.498000 -22.139600
O -6.156100 -17.570100 -22.720500
O -5.261000 -15.980400 -21.531700
O -3.102600 -18.038100 -21.702000
O -2.207500 -16.448400 -20.513300
N -2.163900 -17.520500 -21.094200
C -0.921800 -18.270100 -21.074400
N -0.844700 -19.451800 -21.696400
H -0.378200 -21.996400 -22.902400
N 0.145400 -17.830700 -20.435600
C 0.406200 -19.792000 -21.416800
N 0.454100 -21.980800 -22.556300
N 1.000500 -18.841400 -20.677400
C 1.048400 -21.030200 -21.816900
N 1.309200 -22.991500 -22.798200
H 1.832800 -18.825800 -20.331400
N 2.299300 -21.370400 -21.537300
C 2.376400 -22.552100 -22.159300
N 3.618500 -23.301700 -22.139600
O 3.662100 -24.373800 -22.720500
O 4.557200 -22.784100 -21.531700
