18
Fragment
O -12.920800 -11.234400 -21.702000
O -12.025700 -9.644700 -20.513300
N -11.982100 -10.716800 -21.094200
C -10.740000 -11.466400 -21.074400
N -10.662900 -12.648100 -21.696400
H -10.196400 -15.192700 -22.902400
N -9.672800 -11.027000 -20.435600
C -9.412000 -12.988300 -21.416800
N -9.364100 -15.177100 -22.556300
N -8.817700 -12.037700 -20.677400
C -8.769800 -14.226500 -21.816900
N -8.509000 -16.187800 -22.798200
H -7.985400 -12.022100 -20.331400
N -7.518900 -14.566700 -21.537300
C -7.441800 -15.748400 -22.159300
N -6.199700 -16.498000 -22.139600
O -6.156100 -17.570100 -22.720500
O -5.261000 -15.980400 -21.531700
18
Fragment
O -12.920800 -4.430700 -21.702000
O -12.025700 -2.841000 -20.513300
N -11.982100 -3.913100 -21.094200
C -10.740000 -4.662700 -21.074400
N -10.662900 -5.844400 -21.696400
H -10.196400 -8.389000 -22.902400
N -9.672800 -4.223300 -20.435600
C -9.412000 -6.184600 -21.416800
N -9.364100 -8.373400 -22.556300
N -8.817700 -5.234000 -20.677400
C -8.769800 -7.422800 -21.816900
N -8.509000 -9.384100 -22.798200
H -7.985400 -5.218400 -20.331400
N -7.518900 -7.763000 -21.537300
C -7.441800 -8.944700 -22.159300
N -6.199700 -9.694300 -22.139600
O -6.156100 -10.766400 -22.720500
O -5.261000 -9.176700 -21.531700
36
Fragment
O -12.920800 -11.234400 -21.702000
O -12.025700 -9.644700 -20.513300
N -11.982100 -10.716800 -21.094200
C -10.740000 -11.466400 -21.074400
N -10.662900 -12.648100 -21.696400
H -10.196400 -15.192700 -22.902400
N -9.672800 -11.027000 -20.435600
C -9.412000 -12.988300 -21.416800
N -9.364100 -15.177100 -22.556300
N -8.817700 -12.037700 -20.677400
C -8.769800 -14.226500 -21.816900
N -8.509000 -16.187800 -22.798200
H -7.985400 -12.022100 -20.331400
N -7.518900 -14.566700 -21.537300
C -7.441800 -15.748400 -22.159300
N -6.199700 -16.498000 -22.139600
O -6.156100 -17.570100 -22.720500
O -5.261000 -15.980400 -21.531700
O -12.920800 -4.430700 -21.702000
O -12.025700 -2.841000 -20.513300
N -11.982100 -3.913100 -21.094200
C -10.740000 -4.662700 -21.074400
N -10.662900 -5.844400 -21.696400
H -10.196400 -8.389000 -22.902400
N -9.672800 -4.223300 -20.435600
C -9.412000 -6.184600 -21.416800
N -9.364100 -8.373400 -22.556300
N -8.817700 -5.234000 -20.677400
C -8.769800 -7.422800 -21.816900
N -8.509000 -9.384100 -22.798200
H -7.985400 -5.218400 -20.331400
N -7.518900 -7.763000 -21.537300
C -7.441800 -8.944700 -22.159300
N -6.199700 -9.694300 -22.139600
O -6.156100 -10.766400 -22.720500
O -5.261000 -9.176700 -21.531700
