25
Fragment
H -11.199000 -10.056300 -16.507600
H -10.623200 -8.969300 -18.475500
H -10.621600 -10.422500 -19.145800
C -10.350700 -10.540200 -16.424100
H -10.346400 -11.048400 -15.585600
H -10.250800 -11.156200 -17.179000
H -10.181400 -9.144900 -20.003400
C -10.165200 -9.555300 -19.114200
H -9.719000 -8.931500 -14.584700
N -9.241900 -9.586000 -16.421600
C -8.900600 -9.057800 -15.108800
N -8.773200 -9.749400 -18.688900
H -8.442400 -8.197100 -15.212100
C -8.355600 -9.481100 -17.404900
H -8.310100 -9.688000 -14.645700
O -8.232900 -10.204800 -20.827900
C -7.844400 -9.876500 -19.712400
N -7.128400 -9.107800 -17.095000
C -6.483200 -9.551000 -19.383400
C -6.205800 -9.070700 -18.057000
N -5.633400 -9.670200 -20.402400
N -5.012800 -8.626000 -17.743600
H -4.868000 -8.332700 -16.926200
O -4.416000 -9.327600 -20.218700
H -4.399000 -8.638900 -18.374000
25
Fragment
H -8.285500 -12.772700 -15.478400
O -8.268500 -12.084000 -13.633700
H -7.816400 -13.078900 -16.926200
N -7.671700 -12.785600 -16.108800
N -7.051100 -11.741400 -13.450000
C -6.478600 -12.340900 -15.795400
C -6.201300 -11.860600 -14.469000
N -5.556100 -12.303800 -16.757400
C -4.840000 -11.535100 -14.140000
O -4.451500 -11.206800 -13.024500
H -4.374300 -11.723600 -19.206700
C -4.328900 -11.930500 -16.447500
H -4.242000 -13.214500 -18.640300
N -3.911300 -11.662200 -15.163500
C -3.783800 -12.353800 -18.743600
N -3.442500 -11.825600 -17.430800
H -2.965500 -12.480100 -19.267700
C -2.519300 -11.856300 -14.738200
H -2.503000 -12.266700 -13.849000
H -2.433700 -10.255400 -16.673400
H -2.338100 -10.363200 -18.266800
C -2.333800 -10.871400 -17.428300
H -2.062900 -10.989100 -14.706600
H -2.061200 -12.442300 -15.376900
H -1.485500 -11.355300 -17.344800
50
Fragment
H -11.199000 -10.056300 -16.507600
H -10.623200 -8.969300 -18.475500
H -10.621600 -10.422500 -19.145800
C -10.350700 -10.540200 -16.424100
H -10.346400 -11.048400 -15.585600
H -10.250800 -11.156200 -17.179000
H -10.181400 -9.144900 -20.003400
C -10.165200 -9.555300 -19.114200
H -9.719000 -8.931500 -14.584700
N -9.241900 -9.586000 -16.421600
C -8.900600 -9.057800 -15.108800
N -8.773200 -9.749400 -18.688900
H -8.442400 -8.197100 -15.212100
C -8.355600 -9.481100 -17.404900
H -8.310100 -9.688000 -14.645700
O -8.232900 -10.204800 -20.827900
C -7.844400 -9.876500 -19.712400
N -7.128400 -9.107800 -17.095000
C -6.483200 -9.551000 -19.383400
C -6.205800 -9.070700 -18.057000
N -5.633400 -9.670200 -20.402400
N -5.012800 -8.626000 -17.743600
H -4.868000 -8.332700 -16.926200
O -4.416000 -9.327600 -20.218700
H -4.399000 -8.638900 -18.374000
H -8.285500 -12.772700 -15.478400
O -8.268500 -12.084000 -13.633700
H -7.816400 -13.078900 -16.926200
N -7.671700 -12.785600 -16.108800
N -7.051100 -11.741400 -13.450000
C -6.478600 -12.340900 -15.795400
C -6.201300 -11.860600 -14.469000
N -5.556100 -12.303800 -16.757400
C -4.840000 -11.535100 -14.140000
O -4.451500 -11.206800 -13.024500
H -4.374300 -11.723600 -19.206700
C -4.328900 -11.930500 -16.447500
H -4.242000 -13.214500 -18.640300
N -3.911300 -11.662200 -15.163500
C -3.783800 -12.353800 -18.743600
N -3.442500 -11.825600 -17.430800
H -2.965500 -12.480100 -19.267700
C -2.519300 -11.856300 -14.738200
H -2.503000 -12.266700 -13.849000
H -2.433700 -10.255400 -16.673400
H -2.338100 -10.363200 -18.266800
C -2.333800 -10.871400 -17.428300
H -2.062900 -10.989100 -14.706600
H -2.061200 -12.442300 -15.376900
H -1.485500 -11.355300 -17.344800
