3
Fragment
H -18.725800 -16.661100 -14.911900
O -18.354200 -15.890000 -14.831000
H -18.033700 -15.884100 -14.033700
29
Fragment
H -17.739300 -14.883000 -9.041200
H -17.635200 -15.595000 -11.687300
H -17.441000 -17.021900 -9.892800
H -17.373000 -14.303500 -15.525900
H -17.059700 -12.949300 -16.151900
N -17.032300 -13.494600 -15.461600
C -16.804000 -15.202000 -9.088600
C -16.706200 -15.754700 -11.385000
C -16.681200 -16.397800 -10.010800
O -16.663300 -10.992000 -16.181700
H -16.491800 -15.424200 -8.175000
C -16.483300 -13.101200 -14.335000
N -16.471100 -13.974100 -13.321100
H -16.241900 -16.320700 -12.052300
H -16.235900 -13.248800 -9.550100
N -16.049900 -10.777300 -15.087300
N -15.988800 -14.483100 -11.177000
C -15.953900 -11.779900 -14.209300
C -15.907800 -14.165400 -9.731800
C -15.883000 -13.628400 -12.184100
H -15.833500 -16.885100 -9.857500
C -15.225600 -11.448000 -13.004700
N -15.156300 -12.467400 -12.046800
H -14.977000 -14.245200 -9.402000
O -14.661300 -10.398100 -12.799300
H -14.551000 -11.835500 -10.232900
C -14.146100 -12.282500 -11.004400
H -13.796300 -13.156200 -10.730600
H -13.414000 -11.732700 -11.354000
32
Fragment
H -18.725800 -16.661100 -14.911900
O -18.354200 -15.890000 -14.831000
H -18.033700 -15.884100 -14.033700
H -17.739300 -14.883000 -9.041200
H -17.635200 -15.595000 -11.687300
H -17.441000 -17.021900 -9.892800
H -17.373000 -14.303500 -15.525900
H -17.059700 -12.949300 -16.151900
N -17.032300 -13.494600 -15.461600
C -16.804000 -15.202000 -9.088600
C -16.706200 -15.754700 -11.385000
C -16.681200 -16.397800 -10.010800
O -16.663300 -10.992000 -16.181700
H -16.491800 -15.424200 -8.175000
C -16.483300 -13.101200 -14.335000
N -16.471100 -13.974100 -13.321100
H -16.241900 -16.320700 -12.052300
H -16.235900 -13.248800 -9.550100
N -16.049900 -10.777300 -15.087300
N -15.988800 -14.483100 -11.177000
C -15.953900 -11.779900 -14.209300
C -15.907800 -14.165400 -9.731800
C -15.883000 -13.628400 -12.184100
H -15.833500 -16.885100 -9.857500
C -15.225600 -11.448000 -13.004700
N -15.156300 -12.467400 -12.046800
H -14.977000 -14.245200 -9.402000
O -14.661300 -10.398100 -12.799300
H -14.551000 -11.835500 -10.232900
C -14.146100 -12.282500 -11.004400
H -13.796300 -13.156200 -10.730600
H -13.414000 -11.732700 -11.354000
