25
Fragment
H -11.199000 -10.056300 -16.507600
H -10.623200 -8.969300 -18.475500
H -10.621600 -10.422500 -19.145800
C -10.350700 -10.540200 -16.424100
H -10.346400 -11.048400 -15.585600
H -10.250800 -11.156200 -17.179000
H -10.181400 -9.144900 -20.003400
C -10.165200 -9.555300 -19.114200
H -9.719000 -8.931500 -14.584700
N -9.241900 -9.586000 -16.421600
C -8.900600 -9.057800 -15.108800
N -8.773200 -9.749400 -18.688900
H -8.442400 -8.197100 -15.212100
C -8.355600 -9.481100 -17.404900
H -8.310100 -9.688000 -14.645700
O -8.232900 -10.204800 -20.827900
C -7.844400 -9.876500 -19.712400
N -7.128400 -9.107800 -17.095000
C -6.483200 -9.551000 -19.383400
C -6.205800 -9.070700 -18.057000
N -5.633400 -9.670200 -20.402400
N -5.012800 -8.626000 -17.743600
H -4.868000 -8.332700 -16.926200
O -4.416000 -9.327600 -20.218700
H -4.399000 -8.638900 -18.374000
25
Fragment
H -7.116200 -7.786700 -10.865500
H -6.540400 -8.873700 -12.833400
H -6.538800 -7.420500 -13.503700
C -6.267800 -7.302800 -10.782000
H -6.263600 -6.794600 -9.943600
H -6.168000 -6.686800 -11.536900
H -6.098600 -8.698100 -14.361300
C -6.082400 -8.287700 -13.472100
H -5.636100 -8.911500 -8.942700
N -5.159100 -8.257000 -10.779500
C -4.817800 -8.785200 -9.466700
N -4.690300 -8.093600 -13.046800
H -4.359600 -9.645900 -9.570100
C -4.272800 -8.361900 -11.762800
H -4.227300 -8.155000 -9.003600
O -4.150100 -7.638200 -15.185800
C -3.761600 -7.966500 -14.070300
N -3.045500 -8.735200 -11.452900
C -2.400300 -8.292000 -13.741400
C -2.123000 -8.772300 -12.414900
N -1.550600 -8.172800 -14.760300
N -0.930000 -9.217000 -12.101600
H -0.785200 -9.510300 -11.284100
O -0.333100 -8.515400 -14.576600
H -0.316100 -9.204100 -12.731900
50
Fragment
H -11.199000 -10.056300 -16.507600
H -10.623200 -8.969300 -18.475500
H -10.621600 -10.422500 -19.145800
C -10.350700 -10.540200 -16.424100
H -10.346400 -11.048400 -15.585600
H -10.250800 -11.156200 -17.179000
H -10.181400 -9.144900 -20.003400
C -10.165200 -9.555300 -19.114200
H -9.719000 -8.931500 -14.584700
N -9.241900 -9.586000 -16.421600
C -8.900600 -9.057800 -15.108800
N -8.773200 -9.749400 -18.688900
H -8.442400 -8.197100 -15.212100
C -8.355600 -9.481100 -17.404900
H -8.310100 -9.688000 -14.645700
O -8.232900 -10.204800 -20.827900
C -7.844400 -9.876500 -19.712400
N -7.128400 -9.107800 -17.095000
C -6.483200 -9.551000 -19.383400
C -6.205800 -9.070700 -18.057000
N -5.633400 -9.670200 -20.402400
N -5.012800 -8.626000 -17.743600
H -4.868000 -8.332700 -16.926200
O -4.416000 -9.327600 -20.218700
H -4.399000 -8.638900 -18.374000
H -7.116200 -7.786700 -10.865500
H -6.540400 -8.873700 -12.833400
H -6.538800 -7.420500 -13.503700
C -6.267800 -7.302800 -10.782000
H -6.263600 -6.794600 -9.943600
H -6.168000 -6.686800 -11.536900
H -6.098600 -8.698100 -14.361300
C -6.082400 -8.287700 -13.472100
H -5.636100 -8.911500 -8.942700
N -5.159100 -8.257000 -10.779500
C -4.817800 -8.785200 -9.466700
N -4.690300 -8.093600 -13.046800
H -4.359600 -9.645900 -9.570100
C -4.272800 -8.361900 -11.762800
H -4.227300 -8.155000 -9.003600
O -4.150100 -7.638200 -15.185800
C -3.761600 -7.966500 -14.070300
N -3.045500 -8.735200 -11.452900
C -2.400300 -8.292000 -13.741400
C -2.123000 -8.772300 -12.414900
N -1.550600 -8.172800 -14.760300
N -0.930000 -9.217000 -12.101600
H -0.785200 -9.510300 -11.284100
O -0.333100 -8.515400 -14.576600
H -0.316100 -9.204100 -12.731900
