25
Fragment
H -11.199000 -10.056300 -16.507600
H -10.623200 -8.969300 -18.475500
H -10.621600 -10.422500 -19.145800
C -10.350700 -10.540200 -16.424100
H -10.346400 -11.048400 -15.585600
H -10.250800 -11.156200 -17.179000
H -10.181400 -9.144900 -20.003400
C -10.165200 -9.555300 -19.114200
H -9.719000 -8.931500 -14.584700
N -9.241900 -9.586000 -16.421600
C -8.900600 -9.057800 -15.108800
N -8.773200 -9.749400 -18.688900
H -8.442400 -8.197100 -15.212100
C -8.355600 -9.481100 -17.404900
H -8.310100 -9.688000 -14.645700
O -8.232900 -10.204800 -20.827900
C -7.844400 -9.876500 -19.712400
N -7.128400 -9.107800 -17.095000
C -6.483200 -9.551000 -19.383400
C -6.205800 -9.070700 -18.057000
N -5.633400 -9.670200 -20.402400
N -5.012800 -8.626000 -17.743600
H -4.868000 -8.332700 -16.926200
O -4.416000 -9.327600 -20.218700
H -4.399000 -8.638900 -18.374000
25
Fragment
H -16.015200 -12.207500 -9.836400
O -15.998200 -12.896200 -7.991600
H -15.546100 -11.901300 -11.284100
N -15.401300 -12.194600 -10.466700
N -14.780700 -13.238800 -7.807900
C -14.208300 -12.639300 -10.153300
C -13.931000 -13.119600 -8.826900
N -13.285800 -12.676400 -11.115300
C -12.569700 -13.445100 -8.498000
O -12.181200 -13.773400 -7.382400
H -12.104000 -13.256600 -13.564700
C -12.058500 -13.049700 -10.805500
H -11.971700 -11.765700 -12.998200
N -11.641000 -13.318000 -9.521400
C -11.513500 -12.626400 -13.101600
N -11.172200 -13.154600 -11.788800
H -10.695200 -12.500100 -13.625600
C -10.248900 -13.123900 -9.096100
H -10.232700 -12.713500 -8.206900
H -10.163300 -14.724800 -11.031400
H -10.067700 -14.617000 -12.624700
C -10.063500 -14.108800 -11.786300
H -9.792500 -13.991100 -9.064500
H -9.790900 -12.537900 -9.734800
H -9.215100 -13.624900 -11.702800
50
Fragment
H -11.199000 -10.056300 -16.507600
H -10.623200 -8.969300 -18.475500
H -10.621600 -10.422500 -19.145800
C -10.350700 -10.540200 -16.424100
H -10.346400 -11.048400 -15.585600
H -10.250800 -11.156200 -17.179000
H -10.181400 -9.144900 -20.003400
C -10.165200 -9.555300 -19.114200
H -9.719000 -8.931500 -14.584700
N -9.241900 -9.586000 -16.421600
C -8.900600 -9.057800 -15.108800
N -8.773200 -9.749400 -18.688900
H -8.442400 -8.197100 -15.212100
C -8.355600 -9.481100 -17.404900
H -8.310100 -9.688000 -14.645700
O -8.232900 -10.204800 -20.827900
C -7.844400 -9.876500 -19.712400
N -7.128400 -9.107800 -17.095000
C -6.483200 -9.551000 -19.383400
C -6.205800 -9.070700 -18.057000
N -5.633400 -9.670200 -20.402400
N -5.012800 -8.626000 -17.743600
H -4.868000 -8.332700 -16.926200
O -4.416000 -9.327600 -20.218700
H -4.399000 -8.638900 -18.374000
H -16.015200 -12.207500 -9.836400
O -15.998200 -12.896200 -7.991600
H -15.546100 -11.901300 -11.284100
N -15.401300 -12.194600 -10.466700
N -14.780700 -13.238800 -7.807900
C -14.208300 -12.639300 -10.153300
C -13.931000 -13.119600 -8.826900
N -13.285800 -12.676400 -11.115300
C -12.569700 -13.445100 -8.498000
O -12.181200 -13.773400 -7.382400
H -12.104000 -13.256600 -13.564700
C -12.058500 -13.049700 -10.805500
H -11.971700 -11.765700 -12.998200
N -11.641000 -13.318000 -9.521400
C -11.513500 -12.626400 -13.101600
N -11.172200 -13.154600 -11.788800
H -10.695200 -12.500100 -13.625600
C -10.248900 -13.123900 -9.096100
H -10.232700 -12.713500 -8.206900
H -10.163300 -14.724800 -11.031400
H -10.067700 -14.617000 -12.624700
C -10.063500 -14.108800 -11.786300
H -9.792500 -13.991100 -9.064500
H -9.790900 -12.537900 -9.734800
H -9.215100 -13.624900 -11.702800
