25
Fragment
H -11.199000 -10.056300 -16.507600
H -10.623200 -8.969300 -18.475500
H -10.621600 -10.422500 -19.145800
C -10.350700 -10.540200 -16.424100
H -10.346400 -11.048400 -15.585600
H -10.250800 -11.156200 -17.179000
H -10.181400 -9.144900 -20.003400
C -10.165200 -9.555300 -19.114200
H -9.719000 -8.931500 -14.584700
N -9.241900 -9.586000 -16.421600
C -8.900600 -9.057800 -15.108800
N -8.773200 -9.749400 -18.688900
H -8.442400 -8.197100 -15.212100
C -8.355600 -9.481100 -17.404900
H -8.310100 -9.688000 -14.645700
O -8.232900 -10.204800 -20.827900
C -7.844400 -9.876500 -19.712400
N -7.128400 -9.107800 -17.095000
C -6.483200 -9.551000 -19.383400
C -6.205800 -9.070700 -18.057000
N -5.633400 -9.670200 -20.402400
N -5.012800 -8.626000 -17.743600
H -4.868000 -8.332700 -16.926200
O -4.416000 -9.327600 -20.218700
H -4.399000 -8.638900 -18.374000
25
Fragment
H -15.281800 -7.786700 -22.149600
H -14.706000 -8.873700 -24.117600
H -14.704400 -7.420500 -24.787900
C -14.433500 -7.302800 -22.066100
H -14.429200 -6.794600 -21.227700
H -14.333600 -6.686800 -22.821000
H -14.264200 -8.698100 -25.645400
C -14.248000 -8.287700 -24.756300
H -13.801800 -8.911500 -20.226800
N -13.324700 -8.257000 -22.063600
C -12.983400 -8.785200 -20.750800
N -12.856000 -8.093600 -24.331000
H -12.525300 -9.645900 -20.854200
C -12.438400 -8.361900 -23.046900
H -12.392900 -8.155000 -20.287700
O -12.315800 -7.638200 -26.470000
C -11.927300 -7.966500 -25.354400
N -11.211200 -8.735200 -22.737100
C -10.566000 -8.292000 -25.025500
C -10.288600 -8.772300 -23.699000
N -9.716200 -8.172800 -26.044500
N -9.095600 -9.217000 -23.385700
H -8.950800 -9.510300 -22.568300
O -8.498800 -8.515400 -25.860700
H -8.481800 -9.204100 -24.016000
50
Fragment
H -11.199000 -10.056300 -16.507600
H -10.623200 -8.969300 -18.475500
H -10.621600 -10.422500 -19.145800
C -10.350700 -10.540200 -16.424100
H -10.346400 -11.048400 -15.585600
H -10.250800 -11.156200 -17.179000
H -10.181400 -9.144900 -20.003400
C -10.165200 -9.555300 -19.114200
H -9.719000 -8.931500 -14.584700
N -9.241900 -9.586000 -16.421600
C -8.900600 -9.057800 -15.108800
N -8.773200 -9.749400 -18.688900
H -8.442400 -8.197100 -15.212100
C -8.355600 -9.481100 -17.404900
H -8.310100 -9.688000 -14.645700
O -8.232900 -10.204800 -20.827900
C -7.844400 -9.876500 -19.712400
N -7.128400 -9.107800 -17.095000
C -6.483200 -9.551000 -19.383400
C -6.205800 -9.070700 -18.057000
N -5.633400 -9.670200 -20.402400
N -5.012800 -8.626000 -17.743600
H -4.868000 -8.332700 -16.926200
O -4.416000 -9.327600 -20.218700
H -4.399000 -8.638900 -18.374000
H -15.281800 -7.786700 -22.149600
H -14.706000 -8.873700 -24.117600
H -14.704400 -7.420500 -24.787900
C -14.433500 -7.302800 -22.066100
H -14.429200 -6.794600 -21.227700
H -14.333600 -6.686800 -22.821000
H -14.264200 -8.698100 -25.645400
C -14.248000 -8.287700 -24.756300
H -13.801800 -8.911500 -20.226800
N -13.324700 -8.257000 -22.063600
C -12.983400 -8.785200 -20.750800
N -12.856000 -8.093600 -24.331000
H -12.525300 -9.645900 -20.854200
C -12.438400 -8.361900 -23.046900
H -12.392900 -8.155000 -20.287700
O -12.315800 -7.638200 -26.470000
C -11.927300 -7.966500 -25.354400
N -11.211200 -8.735200 -22.737100
C -10.566000 -8.292000 -25.025500
C -10.288600 -8.772300 -23.699000
N -9.716200 -8.172800 -26.044500
N -9.095600 -9.217000 -23.385700
H -8.950800 -9.510300 -22.568300
O -8.498800 -8.515400 -25.860700
H -8.481800 -9.204100 -24.016000
