25
Fragment
H -11.199000 -10.056300 -16.507600
H -10.623200 -8.969300 -18.475500
H -10.621600 -10.422500 -19.145800
C -10.350700 -10.540200 -16.424100
H -10.346400 -11.048400 -15.585600
H -10.250800 -11.156200 -17.179000
H -10.181400 -9.144900 -20.003400
C -10.165200 -9.555300 -19.114200
H -9.719000 -8.931500 -14.584700
N -9.241900 -9.586000 -16.421600
C -8.900600 -9.057800 -15.108800
N -8.773200 -9.749400 -18.688900
H -8.442400 -8.197100 -15.212100
C -8.355600 -9.481100 -17.404900
H -8.310100 -9.688000 -14.645700
O -8.232900 -10.204800 -20.827900
C -7.844400 -9.876500 -19.712400
N -7.128400 -9.107800 -17.095000
C -6.483200 -9.551000 -19.383400
C -6.205800 -9.070700 -18.057000
N -5.633400 -9.670200 -20.402400
N -5.012800 -8.626000 -17.743600
H -4.868000 -8.332700 -16.926200
O -4.416000 -9.327600 -20.218700
H -4.399000 -8.638900 -18.374000
25
Fragment
H -8.285500 -5.635500 -15.478400
O -8.268500 -4.946800 -13.633700
H -7.816400 -5.941700 -16.926200
N -7.671700 -5.648400 -16.108800
N -7.051100 -4.604200 -13.450000
C -6.478600 -5.203700 -15.795400
C -6.201300 -4.723400 -14.469000
N -5.556100 -5.166600 -16.757400
C -4.840000 -4.397900 -14.140000
O -4.451500 -4.069600 -13.024500
H -4.374300 -4.586400 -19.206700
C -4.328900 -4.793300 -16.447500
H -4.242000 -6.077300 -18.640300
N -3.911300 -4.525000 -15.163500
C -3.783800 -5.216600 -18.743600
N -3.442500 -4.688400 -17.430800
H -2.965500 -5.342900 -19.267700
C -2.519300 -4.719100 -14.738200
H -2.503000 -5.129500 -13.849000
H -2.433700 -3.118200 -16.673400
H -2.338100 -3.226000 -18.266800
C -2.333800 -3.734200 -17.428300
H -2.062900 -3.851900 -14.706600
H -2.061200 -5.305100 -15.376900
H -1.485500 -4.218100 -17.344800
50
Fragment
H -11.199000 -10.056300 -16.507600
H -10.623200 -8.969300 -18.475500
H -10.621600 -10.422500 -19.145800
C -10.350700 -10.540200 -16.424100
H -10.346400 -11.048400 -15.585600
H -10.250800 -11.156200 -17.179000
H -10.181400 -9.144900 -20.003400
C -10.165200 -9.555300 -19.114200
H -9.719000 -8.931500 -14.584700
N -9.241900 -9.586000 -16.421600
C -8.900600 -9.057800 -15.108800
N -8.773200 -9.749400 -18.688900
H -8.442400 -8.197100 -15.212100
C -8.355600 -9.481100 -17.404900
H -8.310100 -9.688000 -14.645700
O -8.232900 -10.204800 -20.827900
C -7.844400 -9.876500 -19.712400
N -7.128400 -9.107800 -17.095000
C -6.483200 -9.551000 -19.383400
C -6.205800 -9.070700 -18.057000
N -5.633400 -9.670200 -20.402400
N -5.012800 -8.626000 -17.743600
H -4.868000 -8.332700 -16.926200
O -4.416000 -9.327600 -20.218700
H -4.399000 -8.638900 -18.374000
H -8.285500 -5.635500 -15.478400
O -8.268500 -4.946800 -13.633700
H -7.816400 -5.941700 -16.926200
N -7.671700 -5.648400 -16.108800
N -7.051100 -4.604200 -13.450000
C -6.478600 -5.203700 -15.795400
C -6.201300 -4.723400 -14.469000
N -5.556100 -5.166600 -16.757400
C -4.840000 -4.397900 -14.140000
O -4.451500 -4.069600 -13.024500
H -4.374300 -4.586400 -19.206700
C -4.328900 -4.793300 -16.447500
H -4.242000 -6.077300 -18.640300
N -3.911300 -4.525000 -15.163500
C -3.783800 -5.216600 -18.743600
N -3.442500 -4.688400 -17.430800
H -2.965500 -5.342900 -19.267700
C -2.519300 -4.719100 -14.738200
H -2.503000 -5.129500 -13.849000
H -2.433700 -3.118200 -16.673400
H -2.338100 -3.226000 -18.266800
C -2.333800 -3.734200 -17.428300
H -2.062900 -3.851900 -14.706600
H -2.061200 -5.305100 -15.376900
H -1.485500 -4.218100 -17.344800
