25
Fragment
H -11.199000 -10.056300 -16.507600
H -10.623200 -8.969300 -18.475500
H -10.621600 -10.422500 -19.145800
C -10.350700 -10.540200 -16.424100
H -10.346400 -11.048400 -15.585600
H -10.250800 -11.156200 -17.179000
H -10.181400 -9.144900 -20.003400
C -10.165200 -9.555300 -19.114200
H -9.719000 -8.931500 -14.584700
N -9.241900 -9.586000 -16.421600
C -8.900600 -9.057800 -15.108800
N -8.773200 -9.749400 -18.688900
H -8.442400 -8.197100 -15.212100
C -8.355600 -9.481100 -17.404900
H -8.310100 -9.688000 -14.645700
O -8.232900 -10.204800 -20.827900
C -7.844400 -9.876500 -19.712400
N -7.128400 -9.107800 -17.095000
C -6.483200 -9.551000 -19.383400
C -6.205800 -9.070700 -18.057000
N -5.633400 -9.670200 -20.402400
N -5.012800 -8.626000 -17.743600
H -4.868000 -8.332700 -16.926200
O -4.416000 -9.327600 -20.218700
H -4.399000 -8.638900 -18.374000
3
Fragment
H -3.446300 -10.685100 -21.456800
H -3.040900 -11.352400 -22.652900
O -3.003000 -11.341000 -21.793400
28
Fragment
H -11.199000 -10.056300 -16.507600
H -10.623200 -8.969300 -18.475500
H -10.621600 -10.422500 -19.145800
C -10.350700 -10.540200 -16.424100
H -10.346400 -11.048400 -15.585600
H -10.250800 -11.156200 -17.179000
H -10.181400 -9.144900 -20.003400
C -10.165200 -9.555300 -19.114200
H -9.719000 -8.931500 -14.584700
N -9.241900 -9.586000 -16.421600
C -8.900600 -9.057800 -15.108800
N -8.773200 -9.749400 -18.688900
H -8.442400 -8.197100 -15.212100
C -8.355600 -9.481100 -17.404900
H -8.310100 -9.688000 -14.645700
O -8.232900 -10.204800 -20.827900
C -7.844400 -9.876500 -19.712400
N -7.128400 -9.107800 -17.095000
C -6.483200 -9.551000 -19.383400
C -6.205800 -9.070700 -18.057000
N -5.633400 -9.670200 -20.402400
N -5.012800 -8.626000 -17.743600
H -4.868000 -8.332700 -16.926200
O -4.416000 -9.327600 -20.218700
H -4.399000 -8.638900 -18.374000
H -3.446300 -10.685100 -21.456800
H -3.040900 -11.352400 -22.652900
O -3.003000 -11.341000 -21.793400
