3
Fragment
H -18.725800 -16.661100 -14.911900
O -18.354200 -15.890000 -14.831000
H -18.033700 -15.884100 -14.033700
29
Fragment
H -21.386500 -22.507500 -9.041200
H -21.282400 -23.219500 -11.687300
H -21.088200 -24.646500 -9.892800
H -21.020200 -21.928100 -15.525900
H -20.706900 -20.573900 -16.151900
N -20.679500 -21.119200 -15.461600
C -20.451200 -22.826600 -9.088600
C -20.353400 -23.379300 -11.385000
C -20.328400 -24.022400 -10.010800
O -20.310500 -18.616600 -16.181700
H -20.139000 -23.048800 -8.175000
C -20.130500 -20.725800 -14.335000
N -20.118300 -21.598700 -13.321100
H -19.889100 -23.945300 -12.052300
H -19.883100 -20.873400 -9.550100
N -19.697100 -18.401900 -15.087300
N -19.636000 -22.107700 -11.177000
C -19.601100 -19.404500 -14.209300
C -19.555000 -21.790000 -9.731800
C -19.530200 -21.253000 -12.184100
H -19.480700 -24.509700 -9.857500
C -18.872800 -19.072600 -13.004700
N -18.803500 -20.092000 -12.046800
H -18.624200 -21.869800 -9.402000
O -18.308500 -18.022700 -12.799300
H -18.198200 -19.460100 -10.232900
C -17.793300 -19.907100 -11.004400
H -17.443500 -20.780800 -10.730600
H -17.061200 -19.357300 -11.354000
32
Fragment
H -18.725800 -16.661100 -14.911900
O -18.354200 -15.890000 -14.831000
H -18.033700 -15.884100 -14.033700
H -21.386500 -22.507500 -9.041200
H -21.282400 -23.219500 -11.687300
H -21.088200 -24.646500 -9.892800
H -21.020200 -21.928100 -15.525900
H -20.706900 -20.573900 -16.151900
N -20.679500 -21.119200 -15.461600
C -20.451200 -22.826600 -9.088600
C -20.353400 -23.379300 -11.385000
C -20.328400 -24.022400 -10.010800
O -20.310500 -18.616600 -16.181700
H -20.139000 -23.048800 -8.175000
C -20.130500 -20.725800 -14.335000
N -20.118300 -21.598700 -13.321100
H -19.889100 -23.945300 -12.052300
H -19.883100 -20.873400 -9.550100
N -19.697100 -18.401900 -15.087300
N -19.636000 -22.107700 -11.177000
C -19.601100 -19.404500 -14.209300
C -19.555000 -21.790000 -9.731800
C -19.530200 -21.253000 -12.184100
H -19.480700 -24.509700 -9.857500
C -18.872800 -19.072600 -13.004700
N -18.803500 -20.092000 -12.046800
H -18.624200 -21.869800 -9.402000
O -18.308500 -18.022700 -12.799300
H -18.198200 -19.460100 -10.232900
C -17.793300 -19.907100 -11.004400
H -17.443500 -20.780800 -10.730600
H -17.061200 -19.357300 -11.354000
