25
Fragment
H -11.199000 -10.056300 -16.507600
H -10.623200 -8.969300 -18.475500
H -10.621600 -10.422500 -19.145800
C -10.350700 -10.540200 -16.424100
H -10.346400 -11.048400 -15.585600
H -10.250800 -11.156200 -17.179000
H -10.181400 -9.144900 -20.003400
C -10.165200 -9.555300 -19.114200
H -9.719000 -8.931500 -14.584700
N -9.241900 -9.586000 -16.421600
C -8.900600 -9.057800 -15.108800
N -8.773200 -9.749400 -18.688900
H -8.442400 -8.197100 -15.212100
C -8.355600 -9.481100 -17.404900
H -8.310100 -9.688000 -14.645700
O -8.232900 -10.204800 -20.827900
C -7.844400 -9.876500 -19.712400
N -7.128400 -9.107800 -17.095000
C -6.483200 -9.551000 -19.383400
C -6.205800 -9.070700 -18.057000
N -5.633400 -9.670200 -20.402400
N -5.012800 -8.626000 -17.743600
H -4.868000 -8.332700 -16.926200
O -4.416000 -9.327600 -20.218700
H -4.399000 -8.638900 -18.374000
25
Fragment
H -16.015200 -5.070300 -9.836400
O -15.998200 -5.759000 -7.991600
H -15.546100 -4.764100 -11.284100
N -15.401300 -5.057400 -10.466700
N -14.780700 -6.101600 -7.807900
C -14.208300 -5.502100 -10.153300
C -13.931000 -5.982400 -8.826900
N -13.285800 -5.539200 -11.115300
C -12.569700 -6.307900 -8.498000
O -12.181200 -6.636200 -7.382400
H -12.104000 -6.119400 -13.564700
C -12.058500 -5.912500 -10.805500
H -11.971700 -4.628500 -12.998200
N -11.641000 -6.180800 -9.521400
C -11.513500 -5.489200 -13.101600
N -11.172200 -6.017400 -11.788800
H -10.695200 -5.362900 -13.625600
C -10.248900 -5.986700 -9.096100
H -10.232700 -5.576300 -8.206900
H -10.163300 -7.587600 -11.031400
H -10.067700 -7.479800 -12.624700
C -10.063500 -6.971600 -11.786300
H -9.792500 -6.853900 -9.064500
H -9.790900 -5.400700 -9.734800
H -9.215100 -6.487700 -11.702800
50
Fragment
H -11.199000 -10.056300 -16.507600
H -10.623200 -8.969300 -18.475500
H -10.621600 -10.422500 -19.145800
C -10.350700 -10.540200 -16.424100
H -10.346400 -11.048400 -15.585600
H -10.250800 -11.156200 -17.179000
H -10.181400 -9.144900 -20.003400
C -10.165200 -9.555300 -19.114200
H -9.719000 -8.931500 -14.584700
N -9.241900 -9.586000 -16.421600
C -8.900600 -9.057800 -15.108800
N -8.773200 -9.749400 -18.688900
H -8.442400 -8.197100 -15.212100
C -8.355600 -9.481100 -17.404900
H -8.310100 -9.688000 -14.645700
O -8.232900 -10.204800 -20.827900
C -7.844400 -9.876500 -19.712400
N -7.128400 -9.107800 -17.095000
C -6.483200 -9.551000 -19.383400
C -6.205800 -9.070700 -18.057000
N -5.633400 -9.670200 -20.402400
N -5.012800 -8.626000 -17.743600
H -4.868000 -8.332700 -16.926200
O -4.416000 -9.327600 -20.218700
H -4.399000 -8.638900 -18.374000
H -16.015200 -5.070300 -9.836400
O -15.998200 -5.759000 -7.991600
H -15.546100 -4.764100 -11.284100
N -15.401300 -5.057400 -10.466700
N -14.780700 -6.101600 -7.807900
C -14.208300 -5.502100 -10.153300
C -13.931000 -5.982400 -8.826900
N -13.285800 -5.539200 -11.115300
C -12.569700 -6.307900 -8.498000
O -12.181200 -6.636200 -7.382400
H -12.104000 -6.119400 -13.564700
C -12.058500 -5.912500 -10.805500
H -11.971700 -4.628500 -12.998200
N -11.641000 -6.180800 -9.521400
C -11.513500 -5.489200 -13.101600
N -11.172200 -6.017400 -11.788800
H -10.695200 -5.362900 -13.625600
C -10.248900 -5.986700 -9.096100
H -10.232700 -5.576300 -8.206900
H -10.163300 -7.587600 -11.031400
H -10.067700 -7.479800 -12.624700
C -10.063500 -6.971600 -11.786300
H -9.792500 -6.853900 -9.064500
H -9.790900 -5.400700 -9.734800
H -9.215100 -6.487700 -11.702800
