3
Fragment
H -18.725800 -16.661100 -14.911900
O -18.354200 -15.890000 -14.831000
H -18.033700 -15.884100 -14.033700
29
Fragment
H -23.904300 -17.555900 -14.478000
H -23.522000 -16.132500 -15.101400
C -23.172200 -17.006100 -14.827600
H -22.767300 -17.453100 -15.599100
O -22.657000 -18.890500 -13.032700
H -22.341300 -15.043500 -16.430000
N -22.162000 -16.821200 -13.785200
C -22.092600 -17.840600 -12.827300
H -21.484800 -12.403600 -15.974500
C -21.435300 -15.660200 -13.647900
C -21.410500 -15.123200 -16.100200
C -21.364400 -17.508700 -11.622700
N -21.329500 -14.805500 -14.655000
N -21.268400 -18.511400 -10.744700
H -21.082400 -16.039800 -16.281900
H -21.076400 -12.967900 -13.779600
N -20.847200 -15.314600 -12.510900
C -20.835000 -16.187400 -11.497000
H -20.826500 -13.864400 -17.657000
O -20.655000 -18.296600 -9.650300
C -20.637100 -12.890800 -15.821200
C -20.612100 -13.533900 -14.447000
C -20.514300 -14.086700 -16.743400
N -20.286000 -15.794000 -10.370300
H -20.258600 -16.339300 -9.680100
H -19.945300 -14.985100 -10.306100
H -19.877300 -12.266700 -15.939200
H -19.683100 -13.693700 -14.144700
H -19.579000 -14.405700 -16.790800
32
Fragment
H -18.725800 -16.661100 -14.911900
O -18.354200 -15.890000 -14.831000
H -18.033700 -15.884100 -14.033700
H -23.904300 -17.555900 -14.478000
H -23.522000 -16.132500 -15.101400
C -23.172200 -17.006100 -14.827600
H -22.767300 -17.453100 -15.599100
O -22.657000 -18.890500 -13.032700
H -22.341300 -15.043500 -16.430000
N -22.162000 -16.821200 -13.785200
C -22.092600 -17.840600 -12.827300
H -21.484800 -12.403600 -15.974500
C -21.435300 -15.660200 -13.647900
C -21.410500 -15.123200 -16.100200
C -21.364400 -17.508700 -11.622700
N -21.329500 -14.805500 -14.655000
N -21.268400 -18.511400 -10.744700
H -21.082400 -16.039800 -16.281900
H -21.076400 -12.967900 -13.779600
N -20.847200 -15.314600 -12.510900
C -20.835000 -16.187400 -11.497000
H -20.826500 -13.864400 -17.657000
O -20.655000 -18.296600 -9.650300
C -20.637100 -12.890800 -15.821200
C -20.612100 -13.533900 -14.447000
C -20.514300 -14.086700 -16.743400
N -20.286000 -15.794000 -10.370300
H -20.258600 -16.339300 -9.680100
H -19.945300 -14.985100 -10.306100
H -19.877300 -12.266700 -15.939200
H -19.683100 -13.693700 -14.144700
H -19.579000 -14.405700 -16.790800
