28
Fragment
H -13.161100 -7.845700 -21.884800
H -12.755200 -7.536700 -18.885600
H -12.679400 -6.099400 -19.583000
C -12.234800 -7.920600 -21.687500
C -12.163200 -6.890900 -19.324300
H -11.984300 -9.089900 -24.123200
C -11.568000 -7.507900 -20.529200
H -11.450600 -6.627500 -18.706000
C -11.255000 -8.453100 -22.467300
N -11.224100 -9.045900 -23.681000
H -11.124700 -10.114800 -25.840900
N -10.264200 -7.743700 -20.565600
C -10.198300 -10.185700 -25.529100
N -10.081600 -8.338500 -21.779900
C -10.074300 -9.541700 -24.188100
H -9.947800 -11.130900 -25.462100
H -9.604000 -9.735400 -26.163900
C -8.900800 -9.438800 -23.504400
C -8.852400 -8.793200 -22.239200
O -7.845800 -8.640100 -21.550000
H -7.793400 -10.751300 -24.622900
C -7.605300 -9.996800 -24.010200
H -7.261500 -8.686600 -25.558700
H -7.082800 -10.349200 -23.246300
C -6.783800 -8.962500 -24.736500
H -6.684500 -8.163600 -24.161000
H -5.573500 -10.137000 -25.594900
O -5.496100 -9.448500 -25.086400
28
Fragment
O -16.224500 -3.856400 -20.195600
H -16.147200 -3.167900 -19.687100
H -15.036100 -5.141300 -21.121000
C -14.936800 -4.342300 -20.545500
H -14.637800 -2.955600 -22.035700
H -14.459100 -4.618300 -19.723300
C -14.115300 -3.308000 -21.271800
H -13.927200 -2.553600 -20.659200
O -13.874800 -4.664700 -23.732000
C -12.868300 -4.511700 -23.042800
C -12.819900 -3.866100 -21.777600
H -12.116600 -3.569400 -19.118100
H -11.772800 -2.173900 -19.819900
C -11.646300 -3.763200 -21.093900
N -11.639000 -4.966400 -23.502100
C -11.522300 -3.119200 -19.752900
N -11.456500 -5.561200 -24.716400
H -10.595900 -3.190100 -19.441100
N -10.496500 -4.258900 -21.601000
C -10.465600 -4.851800 -22.814700
H -10.270000 -6.677400 -26.576000
C -10.152600 -5.796900 -24.752800
H -9.736400 -4.214900 -21.158800
C -9.557400 -6.414000 -25.957800
C -9.485900 -5.384200 -23.594500
H -9.041200 -7.205400 -25.699100
H -8.965500 -5.768100 -26.396400
H -8.559500 -5.459200 -23.397200
56
Fragment
H -13.161100 -7.845700 -21.884800
H -12.755200 -7.536700 -18.885600
H -12.679400 -6.099400 -19.583000
C -12.234800 -7.920600 -21.687500
C -12.163200 -6.890900 -19.324300
H -11.984300 -9.089900 -24.123200
C -11.568000 -7.507900 -20.529200
H -11.450600 -6.627500 -18.706000
C -11.255000 -8.453100 -22.467300
N -11.224100 -9.045900 -23.681000
H -11.124700 -10.114800 -25.840900
N -10.264200 -7.743700 -20.565600
C -10.198300 -10.185700 -25.529100
N -10.081600 -8.338500 -21.779900
C -10.074300 -9.541700 -24.188100
H -9.947800 -11.130900 -25.462100
H -9.604000 -9.735400 -26.163900
C -8.900800 -9.438800 -23.504400
C -8.852400 -8.793200 -22.239200
O -7.845800 -8.640100 -21.550000
H -7.793400 -10.751300 -24.622900
C -7.605300 -9.996800 -24.010200
H -7.261500 -8.686600 -25.558700
H -7.082800 -10.349200 -23.246300
C -6.783800 -8.962500 -24.736500
H -6.684500 -8.163600 -24.161000
H -5.573500 -10.137000 -25.594900
O -5.496100 -9.448500 -25.086400
O -16.224500 -3.856400 -20.195600
H -16.147200 -3.167900 -19.687100
H -15.036100 -5.141300 -21.121000
C -14.936800 -4.342300 -20.545500
H -14.637800 -2.955600 -22.035700
H -14.459100 -4.618300 -19.723300
C -14.115300 -3.308000 -21.271800
H -13.927200 -2.553600 -20.659200
O -13.874800 -4.664700 -23.732000
C -12.868300 -4.511700 -23.042800
C -12.819900 -3.866100 -21.777600
H -12.116600 -3.569400 -19.118100
H -11.772800 -2.173900 -19.819900
C -11.646300 -3.763200 -21.093900
N -11.639000 -4.966400 -23.502100
C -11.522300 -3.119200 -19.752900
N -11.456500 -5.561200 -24.716400
H -10.595900 -3.190100 -19.441100
N -10.496500 -4.258900 -21.601000
C -10.465600 -4.851800 -22.814700
H -10.270000 -6.677400 -26.576000
C -10.152600 -5.796900 -24.752800
H -9.736400 -4.214900 -21.158800
C -9.557400 -6.414000 -25.957800
C -9.485900 -5.384200 -23.594500
H -9.041200 -7.205400 -25.699100
H -8.965500 -5.768100 -26.396400
H -8.559500 -5.459200 -23.397200
