28
Fragment
H -13.161100 -7.845700 -21.884800
H -12.755200 -7.536700 -18.885600
H -12.679400 -6.099400 -19.583000
C -12.234800 -7.920600 -21.687500
C -12.163200 -6.890900 -19.324300
H -11.984300 -9.089900 -24.123200
C -11.568000 -7.507900 -20.529200
H -11.450600 -6.627500 -18.706000
C -11.255000 -8.453100 -22.467300
N -11.224100 -9.045900 -23.681000
H -11.124700 -10.114800 -25.840900
N -10.264200 -7.743700 -20.565600
C -10.198300 -10.185700 -25.529100
N -10.081600 -8.338500 -21.779900
C -10.074300 -9.541700 -24.188100
H -9.947800 -11.130900 -25.462100
H -9.604000 -9.735400 -26.163900
C -8.900800 -9.438800 -23.504400
C -8.852400 -8.793200 -22.239200
O -7.845800 -8.640100 -21.550000
H -7.793400 -10.751300 -24.622900
C -7.605300 -9.996800 -24.010200
H -7.261500 -8.686600 -25.558700
H -7.082800 -10.349200 -23.246300
C -6.783800 -8.962500 -24.736500
H -6.684500 -8.163600 -24.161000
H -5.573500 -10.137000 -25.594900
O -5.496100 -9.448500 -25.086400
28
Fragment
H -16.919300 -6.342200 -17.250900
H -16.684600 -6.385400 -18.832800
C -16.247000 -6.438000 -17.957500
H -15.829600 -8.439500 -19.635800
H -15.585600 -5.719100 -17.878800
C -15.573800 -7.743900 -17.821900
N -15.493200 -8.598900 -18.838700
H -15.196700 -9.897700 -14.614000
C -14.936400 -8.338800 -16.760400
N -14.839800 -9.736200 -18.514500
H -14.815900 -7.984800 -15.886400
C -14.506100 -9.569900 -17.238700
H -14.377100 -10.698600 -13.497100
C -14.302600 -10.166200 -14.316100
H -13.763900 -9.366900 -14.138600
N -13.758900 -10.587800 -16.667600
C -13.653300 -10.974200 -15.371300
H -13.486000 -12.834600 -13.208800
H -13.277900 -11.056900 -17.234300
C -12.940500 -12.086900 -15.064400
C -12.651700 -12.659900 -13.712600
H -12.527300 -14.730000 -13.897100
C -12.224400 -12.847500 -16.038900
O -12.122600 -12.672400 -17.242800
H -12.070800 -12.058000 -13.183100
C -11.934000 -13.954200 -14.062800
O -11.580900 -13.884000 -15.459000
H -11.121100 -14.056000 -13.507600
56
Fragment
H -13.161100 -7.845700 -21.884800
H -12.755200 -7.536700 -18.885600
H -12.679400 -6.099400 -19.583000
C -12.234800 -7.920600 -21.687500
C -12.163200 -6.890900 -19.324300
H -11.984300 -9.089900 -24.123200
C -11.568000 -7.507900 -20.529200
H -11.450600 -6.627500 -18.706000
C -11.255000 -8.453100 -22.467300
N -11.224100 -9.045900 -23.681000
H -11.124700 -10.114800 -25.840900
N -10.264200 -7.743700 -20.565600
C -10.198300 -10.185700 -25.529100
N -10.081600 -8.338500 -21.779900
C -10.074300 -9.541700 -24.188100
H -9.947800 -11.130900 -25.462100
H -9.604000 -9.735400 -26.163900
C -8.900800 -9.438800 -23.504400
C -8.852400 -8.793200 -22.239200
O -7.845800 -8.640100 -21.550000
H -7.793400 -10.751300 -24.622900
C -7.605300 -9.996800 -24.010200
H -7.261500 -8.686600 -25.558700
H -7.082800 -10.349200 -23.246300
C -6.783800 -8.962500 -24.736500
H -6.684500 -8.163600 -24.161000
H -5.573500 -10.137000 -25.594900
O -5.496100 -9.448500 -25.086400
H -16.919300 -6.342200 -17.250900
H -16.684600 -6.385400 -18.832800
C -16.247000 -6.438000 -17.957500
H -15.829600 -8.439500 -19.635800
H -15.585600 -5.719100 -17.878800
C -15.573800 -7.743900 -17.821900
N -15.493200 -8.598900 -18.838700
H -15.196700 -9.897700 -14.614000
C -14.936400 -8.338800 -16.760400
N -14.839800 -9.736200 -18.514500
H -14.815900 -7.984800 -15.886400
C -14.506100 -9.569900 -17.238700
H -14.377100 -10.698600 -13.497100
C -14.302600 -10.166200 -14.316100
H -13.763900 -9.366900 -14.138600
N -13.758900 -10.587800 -16.667600
C -13.653300 -10.974200 -15.371300
H -13.486000 -12.834600 -13.208800
H -13.277900 -11.056900 -17.234300
C -12.940500 -12.086900 -15.064400
C -12.651700 -12.659900 -13.712600
H -12.527300 -14.730000 -13.897100
C -12.224400 -12.847500 -16.038900
O -12.122600 -12.672400 -17.242800
H -12.070800 -12.058000 -13.183100
C -11.934000 -13.954200 -14.062800
O -11.580900 -13.884000 -15.459000
H -11.121100 -14.056000 -13.507600
