28
Fragment
H -13.161100 -7.845700 -21.884800
H -12.755200 -7.536700 -18.885600
H -12.679400 -6.099400 -19.583000
C -12.234800 -7.920600 -21.687500
C -12.163200 -6.890900 -19.324300
H -11.984300 -9.089900 -24.123200
C -11.568000 -7.507900 -20.529200
H -11.450600 -6.627500 -18.706000
C -11.255000 -8.453100 -22.467300
N -11.224100 -9.045900 -23.681000
H -11.124700 -10.114800 -25.840900
N -10.264200 -7.743700 -20.565600
C -10.198300 -10.185700 -25.529100
N -10.081600 -8.338500 -21.779900
C -10.074300 -9.541700 -24.188100
H -9.947800 -11.130900 -25.462100
H -9.604000 -9.735400 -26.163900
C -8.900800 -9.438800 -23.504400
C -8.852400 -8.793200 -22.239200
O -7.845800 -8.640100 -21.550000
H -7.793400 -10.751300 -24.622900
C -7.605300 -9.996800 -24.010200
H -7.261500 -8.686600 -25.558700
H -7.082800 -10.349200 -23.246300
C -6.783800 -8.962500 -24.736500
H -6.684500 -8.163600 -24.161000
H -5.573500 -10.137000 -25.594900
O -5.496100 -9.448500 -25.086400
28
Fragment
H -17.332200 -7.346400 -31.774400
O -16.872500 -7.518500 -29.823000
C -16.519400 -7.448300 -31.219200
H -16.382600 -9.344500 -32.098900
O -16.330700 -8.730100 -28.039200
C -16.229000 -8.555000 -29.243100
H -15.926000 -6.672500 -31.385000
C -15.801600 -8.742600 -31.569400
C -15.512900 -9.315500 -30.217600
H -15.175400 -10.345600 -28.047700
H -14.967300 -8.567900 -32.073300
C -14.800000 -10.428300 -29.910700
N -14.694400 -10.814700 -28.614500
H -14.689500 -12.035500 -31.143500
C -14.150700 -11.236300 -30.966000
H -14.076300 -10.703800 -31.785000
C -13.947200 -11.832600 -28.043300
H -13.637400 -13.417600 -29.395600
N -13.613500 -11.666200 -26.767600
C -13.516900 -13.063700 -28.521600
H -13.256600 -11.504700 -30.668000
N -12.960200 -12.803600 -26.443300
C -12.879600 -13.658600 -27.460100
H -12.867800 -15.683400 -27.403200
H -12.623700 -12.963000 -25.646200
C -12.206300 -14.964500 -27.324500
H -11.768700 -15.017100 -26.449200
H -11.534000 -15.060300 -28.031100
56
Fragment
H -13.161100 -7.845700 -21.884800
H -12.755200 -7.536700 -18.885600
H -12.679400 -6.099400 -19.583000
C -12.234800 -7.920600 -21.687500
C -12.163200 -6.890900 -19.324300
H -11.984300 -9.089900 -24.123200
C -11.568000 -7.507900 -20.529200
H -11.450600 -6.627500 -18.706000
C -11.255000 -8.453100 -22.467300
N -11.224100 -9.045900 -23.681000
H -11.124700 -10.114800 -25.840900
N -10.264200 -7.743700 -20.565600
C -10.198300 -10.185700 -25.529100
N -10.081600 -8.338500 -21.779900
C -10.074300 -9.541700 -24.188100
H -9.947800 -11.130900 -25.462100
H -9.604000 -9.735400 -26.163900
C -8.900800 -9.438800 -23.504400
C -8.852400 -8.793200 -22.239200
O -7.845800 -8.640100 -21.550000
H -7.793400 -10.751300 -24.622900
C -7.605300 -9.996800 -24.010200
H -7.261500 -8.686600 -25.558700
H -7.082800 -10.349200 -23.246300
C -6.783800 -8.962500 -24.736500
H -6.684500 -8.163600 -24.161000
H -5.573500 -10.137000 -25.594900
O -5.496100 -9.448500 -25.086400
H -17.332200 -7.346400 -31.774400
O -16.872500 -7.518500 -29.823000
C -16.519400 -7.448300 -31.219200
H -16.382600 -9.344500 -32.098900
O -16.330700 -8.730100 -28.039200
C -16.229000 -8.555000 -29.243100
H -15.926000 -6.672500 -31.385000
C -15.801600 -8.742600 -31.569400
C -15.512900 -9.315500 -30.217600
H -15.175400 -10.345600 -28.047700
H -14.967300 -8.567900 -32.073300
C -14.800000 -10.428300 -29.910700
N -14.694400 -10.814700 -28.614500
H -14.689500 -12.035500 -31.143500
C -14.150700 -11.236300 -30.966000
H -14.076300 -10.703800 -31.785000
C -13.947200 -11.832600 -28.043300
H -13.637400 -13.417600 -29.395600
N -13.613500 -11.666200 -26.767600
C -13.516900 -13.063700 -28.521600
H -13.256600 -11.504700 -30.668000
N -12.960200 -12.803600 -26.443300
C -12.879600 -13.658600 -27.460100
H -12.867800 -15.683400 -27.403200
H -12.623700 -12.963000 -25.646200
C -12.206300 -14.964500 -27.324500
H -11.768700 -15.017100 -26.449200
H -11.534000 -15.060300 -28.031100
