26
Fragment
H -20.821900 -12.196200 -38.891300
H -20.462200 -10.495500 -40.952100
H -20.299700 -11.849200 -41.789200
C -19.972500 -12.384300 -38.509700
O -19.952000 -12.886500 -37.389900
C -19.831700 -11.058400 -41.447700
H -19.460000 -10.549500 -42.197900
C -18.831600 -12.067300 -39.267800
C -18.735200 -11.485600 -40.547600
H -17.677700 -13.157800 -37.153100
C -17.506500 -12.303400 -38.873600
N -17.488100 -11.350000 -40.920100
N -17.092700 -12.894700 -37.755100
N -16.735100 -11.858900 -39.859900
H -16.232400 -13.022200 -37.616000
H -15.442600 -12.734300 -41.904900
C -15.324500 -11.972100 -40.026900
C -14.843400 -12.471300 -41.216500
H -14.827200 -11.215100 -38.216700
C -14.480400 -11.568800 -39.028000
C -13.478200 -12.584400 -41.393600
H -13.130500 -12.933700 -42.205300
C -13.115300 -11.684300 -39.218100
C -12.627700 -12.189400 -40.392500
H -12.516100 -11.412200 -38.531900
H -11.689400 -12.268100 -40.516300
26
Fragment
H -9.987300 -12.196200 -38.891300
H -9.627600 -10.495500 -40.952100
H -9.465100 -11.849200 -41.789200
C -9.137900 -12.384300 -38.509700
O -9.117400 -12.886500 -37.389900
C -8.997100 -11.058400 -41.447700
H -8.625400 -10.549500 -42.197900
C -7.997000 -12.067300 -39.267800
C -7.900600 -11.485600 -40.547600
H -6.843100 -13.157800 -37.153100
C -6.671900 -12.303400 -38.873600
N -6.653500 -11.350000 -40.920100
N -6.258100 -12.894700 -37.755100
N -5.900500 -11.858900 -39.859900
H -5.397800 -13.022200 -37.616000
H -4.608000 -12.734300 -41.904900
C -4.489900 -11.972100 -40.026900
C -4.008800 -12.471300 -41.216500
H -3.992600 -11.215100 -38.216700
C -3.645800 -11.568800 -39.028000
C -2.643600 -12.584400 -41.393600
H -2.295900 -12.933700 -42.205300
C -2.280700 -11.684300 -39.218100
C -1.793100 -12.189400 -40.392500
H -1.681500 -11.412200 -38.531900
H -0.854800 -12.268100 -40.516300
52
Fragment
H -20.821900 -12.196200 -38.891300
H -20.462200 -10.495500 -40.952100
H -20.299700 -11.849200 -41.789200
C -19.972500 -12.384300 -38.509700
O -19.952000 -12.886500 -37.389900
C -19.831700 -11.058400 -41.447700
H -19.460000 -10.549500 -42.197900
C -18.831600 -12.067300 -39.267800
C -18.735200 -11.485600 -40.547600
H -17.677700 -13.157800 -37.153100
C -17.506500 -12.303400 -38.873600
N -17.488100 -11.350000 -40.920100
N -17.092700 -12.894700 -37.755100
N -16.735100 -11.858900 -39.859900
H -16.232400 -13.022200 -37.616000
H -15.442600 -12.734300 -41.904900
C -15.324500 -11.972100 -40.026900
C -14.843400 -12.471300 -41.216500
H -14.827200 -11.215100 -38.216700
C -14.480400 -11.568800 -39.028000
C -13.478200 -12.584400 -41.393600
H -13.130500 -12.933700 -42.205300
C -13.115300 -11.684300 -39.218100
C -12.627700 -12.189400 -40.392500
H -12.516100 -11.412200 -38.531900
H -11.689400 -12.268100 -40.516300
H -9.987300 -12.196200 -38.891300
H -9.627600 -10.495500 -40.952100
H -9.465100 -11.849200 -41.789200
C -9.137900 -12.384300 -38.509700
O -9.117400 -12.886500 -37.389900
C -8.997100 -11.058400 -41.447700
H -8.625400 -10.549500 -42.197900
C -7.997000 -12.067300 -39.267800
C -7.900600 -11.485600 -40.547600
H -6.843100 -13.157800 -37.153100
C -6.671900 -12.303400 -38.873600
N -6.653500 -11.350000 -40.920100
N -6.258100 -12.894700 -37.755100
N -5.900500 -11.858900 -39.859900
H -5.397800 -13.022200 -37.616000
H -4.608000 -12.734300 -41.904900
C -4.489900 -11.972100 -40.026900
C -4.008800 -12.471300 -41.216500
H -3.992600 -11.215100 -38.216700
C -3.645800 -11.568800 -39.028000
C -2.643600 -12.584400 -41.393600
H -2.295900 -12.933700 -42.205300
C -2.280700 -11.684300 -39.218100
C -1.793100 -12.189400 -40.392500
H -1.681500 -11.412200 -38.531900
H -0.854800 -12.268100 -40.516300
