26
Fragment
H -20.821900 -12.196200 -38.891300
H -20.462200 -10.495500 -40.952100
H -20.299700 -11.849200 -41.789200
C -19.972500 -12.384300 -38.509700
O -19.952000 -12.886500 -37.389900
C -19.831700 -11.058400 -41.447700
H -19.460000 -10.549500 -42.197900
C -18.831600 -12.067300 -39.267800
C -18.735200 -11.485600 -40.547600
H -17.677700 -13.157800 -37.153100
C -17.506500 -12.303400 -38.873600
N -17.488100 -11.350000 -40.920100
N -17.092700 -12.894700 -37.755100
N -16.735100 -11.858900 -39.859900
H -16.232400 -13.022200 -37.616000
H -15.442600 -12.734300 -41.904900
C -15.324500 -11.972100 -40.026900
C -14.843400 -12.471300 -41.216500
H -14.827200 -11.215100 -38.216700
C -14.480400 -11.568800 -39.028000
C -13.478200 -12.584400 -41.393600
H -13.130500 -12.933700 -42.205300
C -13.115300 -11.684300 -39.218100
C -12.627700 -12.189400 -40.392500
H -12.516100 -11.412200 -38.531900
H -11.689400 -12.268100 -40.516300
3
Fragment
H -10.968900 -14.070000 -43.768800
O -10.834600 -13.567100 -43.086700
H -10.700300 -14.070000 -42.404700
29
Fragment
H -20.821900 -12.196200 -38.891300
H -20.462200 -10.495500 -40.952100
H -20.299700 -11.849200 -41.789200
C -19.972500 -12.384300 -38.509700
O -19.952000 -12.886500 -37.389900
C -19.831700 -11.058400 -41.447700
H -19.460000 -10.549500 -42.197900
C -18.831600 -12.067300 -39.267800
C -18.735200 -11.485600 -40.547600
H -17.677700 -13.157800 -37.153100
C -17.506500 -12.303400 -38.873600
N -17.488100 -11.350000 -40.920100
N -17.092700 -12.894700 -37.755100
N -16.735100 -11.858900 -39.859900
H -16.232400 -13.022200 -37.616000
H -15.442600 -12.734300 -41.904900
C -15.324500 -11.972100 -40.026900
C -14.843400 -12.471300 -41.216500
H -14.827200 -11.215100 -38.216700
C -14.480400 -11.568800 -39.028000
C -13.478200 -12.584400 -41.393600
H -13.130500 -12.933700 -42.205300
C -13.115300 -11.684300 -39.218100
C -12.627700 -12.189400 -40.392500
H -12.516100 -11.412200 -38.531900
H -11.689400 -12.268100 -40.516300
H -10.968900 -14.070000 -43.768800
O -10.834600 -13.567100 -43.086700
H -10.700300 -14.070000 -42.404700
