26
Fragment
H -20.821900 -12.196200 -38.891300
H -20.462200 -10.495500 -40.952100
H -20.299700 -11.849200 -41.789200
C -19.972500 -12.384300 -38.509700
O -19.952000 -12.886500 -37.389900
C -19.831700 -11.058400 -41.447700
H -19.460000 -10.549500 -42.197900
C -18.831600 -12.067300 -39.267800
C -18.735200 -11.485600 -40.547600
H -17.677700 -13.157800 -37.153100
C -17.506500 -12.303400 -38.873600
N -17.488100 -11.350000 -40.920100
N -17.092700 -12.894700 -37.755100
N -16.735100 -11.858900 -39.859900
H -16.232400 -13.022200 -37.616000
H -15.442600 -12.734300 -41.904900
C -15.324500 -11.972100 -40.026900
C -14.843400 -12.471300 -41.216500
H -14.827200 -11.215100 -38.216700
C -14.480400 -11.568800 -39.028000
C -13.478200 -12.584400 -41.393600
H -13.130500 -12.933700 -42.205300
C -13.115300 -11.684300 -39.218100
C -12.627700 -12.189400 -40.392500
H -12.516100 -11.412200 -38.531900
H -11.689400 -12.268100 -40.516300
26
Fragment
H -15.404600 -14.037000 -34.971700
H -15.044900 -15.737700 -32.910900
H -14.882400 -14.384000 -32.073800
C -14.555200 -13.848900 -35.353300
O -14.534700 -13.346700 -36.473100
C -14.414400 -15.174800 -32.415300
H -14.042700 -15.683700 -31.665100
C -13.414300 -14.165900 -34.595200
C -13.317900 -14.747600 -33.315400
H -12.260400 -13.075400 -36.709900
C -12.089200 -13.929800 -34.989400
N -12.070800 -14.883200 -32.942900
N -11.675400 -13.338500 -36.107900
N -11.317800 -14.374300 -34.003100
H -10.815100 -13.211000 -36.247000
H -10.025300 -13.498900 -31.958100
C -9.907200 -14.261100 -33.836100
C -9.426100 -13.761900 -32.646500
H -9.409900 -15.018100 -35.646300
C -9.063100 -14.664400 -34.835000
C -8.060900 -13.648800 -32.469400
H -7.713200 -13.299500 -31.657700
C -7.698000 -14.548900 -34.644900
C -7.210400 -14.043800 -33.470500
H -7.098800 -14.821000 -35.331100
H -6.272100 -13.965100 -33.346700
52
Fragment
H -20.821900 -12.196200 -38.891300
H -20.462200 -10.495500 -40.952100
H -20.299700 -11.849200 -41.789200
C -19.972500 -12.384300 -38.509700
O -19.952000 -12.886500 -37.389900
C -19.831700 -11.058400 -41.447700
H -19.460000 -10.549500 -42.197900
C -18.831600 -12.067300 -39.267800
C -18.735200 -11.485600 -40.547600
H -17.677700 -13.157800 -37.153100
C -17.506500 -12.303400 -38.873600
N -17.488100 -11.350000 -40.920100
N -17.092700 -12.894700 -37.755100
N -16.735100 -11.858900 -39.859900
H -16.232400 -13.022200 -37.616000
H -15.442600 -12.734300 -41.904900
C -15.324500 -11.972100 -40.026900
C -14.843400 -12.471300 -41.216500
H -14.827200 -11.215100 -38.216700
C -14.480400 -11.568800 -39.028000
C -13.478200 -12.584400 -41.393600
H -13.130500 -12.933700 -42.205300
C -13.115300 -11.684300 -39.218100
C -12.627700 -12.189400 -40.392500
H -12.516100 -11.412200 -38.531900
H -11.689400 -12.268100 -40.516300
H -15.404600 -14.037000 -34.971700
H -15.044900 -15.737700 -32.910900
H -14.882400 -14.384000 -32.073800
C -14.555200 -13.848900 -35.353300
O -14.534700 -13.346700 -36.473100
C -14.414400 -15.174800 -32.415300
H -14.042700 -15.683700 -31.665100
C -13.414300 -14.165900 -34.595200
C -13.317900 -14.747600 -33.315400
H -12.260400 -13.075400 -36.709900
C -12.089200 -13.929800 -34.989400
N -12.070800 -14.883200 -32.942900
N -11.675400 -13.338500 -36.107900
N -11.317800 -14.374300 -34.003100
H -10.815100 -13.211000 -36.247000
H -10.025300 -13.498900 -31.958100
C -9.907200 -14.261100 -33.836100
C -9.426100 -13.761900 -32.646500
H -9.409900 -15.018100 -35.646300
C -9.063100 -14.664400 -34.835000
C -8.060900 -13.648800 -32.469400
H -7.713200 -13.299500 -31.657700
C -7.698000 -14.548900 -34.644900
C -7.210400 -14.043800 -33.470500
H -7.098800 -14.821000 -35.331100
H -6.272100 -13.965100 -33.346700
