34
Fragment
H -19.154200 -9.457400 -18.202300
H -18.647600 -8.150100 -15.718300
H -18.600900 -6.785500 -13.900700
H -18.534200 -5.587900 -12.042000
H -18.367400 -4.459700 -9.957500
C -18.239500 -9.746900 -18.020500
H -18.016400 -10.819300 -19.684000
N -17.863500 -8.461400 -15.886900
C -17.845800 -6.755500 -13.459900
C -17.790700 -6.003700 -12.316800
C -17.550400 -10.444900 -18.972400
C -17.508900 -9.224800 -16.965000
C -17.455900 -4.498700 -9.711900
N -16.915500 -3.897300 -8.683000
C -16.746100 -8.213600 -15.156700
C -16.724300 -7.429900 -13.919300
C -16.597000 -5.905600 -11.594500
N -16.526100 -5.120100 -10.427500
C -16.156900 -10.611500 -18.903400
C -16.128900 -9.437400 -16.830900
O -16.099100 -11.690500 -21.018300
N -15.665400 -8.792800 -15.702300
C -15.614900 -4.185400 -8.801100
C -15.545300 -7.349600 -13.195700
C -15.492600 -11.296800 -20.043800
C -15.478400 -6.589900 -12.030000
C -15.439600 -10.118600 -17.820000
N -15.298000 -4.922600 -9.840700
H -14.763600 -3.766500 -8.271400
H -14.715100 -7.777700 -13.595300
H -14.523100 -6.580200 -11.418000
H -14.451700 -10.211700 -17.737700
O -14.179900 -11.381900 -19.916400
H -13.898600 -12.018300 -20.655900
34
Fragment
H -14.347800 -5.535300 -5.897500
O -14.066500 -6.171600 -6.637000
H -13.794700 -7.341900 -8.815700
H -13.723300 -10.973300 -15.135400
H -13.531300 -9.775800 -12.958000
H -13.482800 -13.787000 -18.282000
N -12.948300 -12.631000 -16.712700
C -12.806700 -7.435000 -8.733400
C -12.768000 -10.963600 -14.523400
C -12.753800 -6.256700 -6.509600
C -12.701100 -10.203900 -13.357700
C -12.631400 -13.368100 -17.752300
N -12.580900 -8.760700 -10.851000
O -12.147300 -5.863000 -5.535100
C -12.117500 -8.116100 -9.722500
C -12.089500 -6.942000 -7.650000
N -11.720300 -12.433500 -16.125900
C -11.649400 -11.647900 -14.958800
C -11.522000 -10.123600 -12.634100
C -11.500300 -9.340000 -11.396700
N -11.330800 -13.656200 -17.870400
C -10.790500 -13.054800 -16.841500
C -10.737500 -8.328800 -9.588400
C -10.696000 -7.108600 -7.581000
C -10.455700 -11.549800 -14.236600
C -10.400500 -10.798000 -13.093500
N -10.382800 -9.092200 -10.666500
H -10.230000 -6.734200 -6.869400
C -10.006800 -7.806600 -8.532900
H -9.878900 -13.093800 -16.595900
H -9.712200 -11.965600 -14.511400
H -9.645500 -10.768100 -12.652700
H -9.598700 -9.403400 -10.835100
H -9.092200 -8.096100 -8.351000
68
Fragment
H -19.154200 -9.457400 -18.202300
H -18.647600 -8.150100 -15.718300
H -18.600900 -6.785500 -13.900700
H -18.534200 -5.587900 -12.042000
H -18.367400 -4.459700 -9.957500
C -18.239500 -9.746900 -18.020500
H -18.016400 -10.819300 -19.684000
N -17.863500 -8.461400 -15.886900
C -17.845800 -6.755500 -13.459900
C -17.790700 -6.003700 -12.316800
C -17.550400 -10.444900 -18.972400
C -17.508900 -9.224800 -16.965000
C -17.455900 -4.498700 -9.711900
N -16.915500 -3.897300 -8.683000
C -16.746100 -8.213600 -15.156700
C -16.724300 -7.429900 -13.919300
C -16.597000 -5.905600 -11.594500
N -16.526100 -5.120100 -10.427500
C -16.156900 -10.611500 -18.903400
C -16.128900 -9.437400 -16.830900
O -16.099100 -11.690500 -21.018300
N -15.665400 -8.792800 -15.702300
C -15.614900 -4.185400 -8.801100
C -15.545300 -7.349600 -13.195700
C -15.492600 -11.296800 -20.043800
C -15.478400 -6.589900 -12.030000
C -15.439600 -10.118600 -17.820000
N -15.298000 -4.922600 -9.840700
H -14.763600 -3.766500 -8.271400
H -14.715100 -7.777700 -13.595300
H -14.523100 -6.580200 -11.418000
H -14.451700 -10.211700 -17.737700
O -14.179900 -11.381900 -19.916400
H -13.898600 -12.018300 -20.655900
H -14.347800 -5.535300 -5.897500
O -14.066500 -6.171600 -6.637000
H -13.794700 -7.341900 -8.815700
H -13.723300 -10.973300 -15.135400
H -13.531300 -9.775800 -12.958000
H -13.482800 -13.787000 -18.282000
N -12.948300 -12.631000 -16.712700
C -12.806700 -7.435000 -8.733400
C -12.768000 -10.963600 -14.523400
C -12.753800 -6.256700 -6.509600
C -12.701100 -10.203900 -13.357700
C -12.631400 -13.368100 -17.752300
N -12.580900 -8.760700 -10.851000
O -12.147300 -5.863000 -5.535100
C -12.117500 -8.116100 -9.722500
C -12.089500 -6.942000 -7.650000
N -11.720300 -12.433500 -16.125900
C -11.649400 -11.647900 -14.958800
C -11.522000 -10.123600 -12.634100
C -11.500300 -9.340000 -11.396700
N -11.330800 -13.656200 -17.870400
C -10.790500 -13.054800 -16.841500
C -10.737500 -8.328800 -9.588400
C -10.696000 -7.108600 -7.581000
C -10.455700 -11.549800 -14.236600
C -10.400500 -10.798000 -13.093500
N -10.382800 -9.092200 -10.666500
H -10.230000 -6.734200 -6.869400
C -10.006800 -7.806600 -8.532900
H -9.878900 -13.093800 -16.595900
H -9.712200 -11.965600 -14.511400
H -9.645500 -10.768100 -12.652700
H -9.598700 -9.403400 -10.835100
H -9.092200 -8.096100 -8.351000
