34
Fragment
H -19.154200 -9.457400 -18.202300
H -18.647600 -8.150100 -15.718300
H -18.600900 -6.785500 -13.900700
H -18.534200 -5.587900 -12.042000
H -18.367400 -4.459700 -9.957500
C -18.239500 -9.746900 -18.020500
H -18.016400 -10.819300 -19.684000
N -17.863500 -8.461400 -15.886900
C -17.845800 -6.755500 -13.459900
C -17.790700 -6.003700 -12.316800
C -17.550400 -10.444900 -18.972400
C -17.508900 -9.224800 -16.965000
C -17.455900 -4.498700 -9.711900
N -16.915500 -3.897300 -8.683000
C -16.746100 -8.213600 -15.156700
C -16.724300 -7.429900 -13.919300
C -16.597000 -5.905600 -11.594500
N -16.526100 -5.120100 -10.427500
C -16.156900 -10.611500 -18.903400
C -16.128900 -9.437400 -16.830900
O -16.099100 -11.690500 -21.018300
N -15.665400 -8.792800 -15.702300
C -15.614900 -4.185400 -8.801100
C -15.545300 -7.349600 -13.195700
C -15.492600 -11.296800 -20.043800
C -15.478400 -6.589900 -12.030000
C -15.439600 -10.118600 -17.820000
N -15.298000 -4.922600 -9.840700
H -14.763600 -3.766500 -8.271400
H -14.715100 -7.777700 -13.595300
H -14.523100 -6.580200 -11.418000
H -14.451700 -10.211700 -17.737700
O -14.179900 -11.381900 -19.916400
H -13.898600 -12.018300 -20.655900
34
Fragment
H -19.513000 2.269300 -5.897500
O -19.231700 1.633000 -6.637000
H -18.959900 0.462700 -8.815700
H -18.888500 -3.168700 -15.135400
H -18.696500 -1.971200 -12.958000
H -18.648000 -5.982400 -18.282000
N -18.113500 -4.826400 -16.712700
C -17.971900 0.369600 -8.733400
C -17.933200 -3.159000 -14.523400
C -17.919000 1.547900 -6.509600
C -17.866300 -2.399300 -13.357700
C -17.796600 -5.563500 -17.752300
N -17.746100 -0.956100 -10.851000
O -17.312500 1.941500 -5.535100
C -17.282700 -0.311500 -9.722500
C -17.254700 0.862600 -7.650000
N -16.885500 -4.628900 -16.125900
C -16.814600 -3.843300 -14.958800
C -16.687200 -2.319000 -12.634100
C -16.665500 -1.535400 -11.396700
N -16.496000 -5.851600 -17.870400
C -15.955700 -5.250200 -16.841500
C -15.902700 -0.524200 -9.588400
C -15.861200 0.696000 -7.581000
C -15.620900 -3.745200 -14.236600
C -15.565700 -2.993400 -13.093500
N -15.548000 -1.287600 -10.666500
H -15.395200 1.070400 -6.869400
C -15.172000 -0.002000 -8.532900
H -15.044100 -5.289200 -16.595900
H -14.877400 -4.161000 -14.511400
H -14.810700 -2.963500 -12.652700
H -14.763900 -1.598800 -10.835100
H -14.257400 -0.291500 -8.351000
68
Fragment
H -19.154200 -9.457400 -18.202300
H -18.647600 -8.150100 -15.718300
H -18.600900 -6.785500 -13.900700
H -18.534200 -5.587900 -12.042000
H -18.367400 -4.459700 -9.957500
C -18.239500 -9.746900 -18.020500
H -18.016400 -10.819300 -19.684000
N -17.863500 -8.461400 -15.886900
C -17.845800 -6.755500 -13.459900
C -17.790700 -6.003700 -12.316800
C -17.550400 -10.444900 -18.972400
C -17.508900 -9.224800 -16.965000
C -17.455900 -4.498700 -9.711900
N -16.915500 -3.897300 -8.683000
C -16.746100 -8.213600 -15.156700
C -16.724300 -7.429900 -13.919300
C -16.597000 -5.905600 -11.594500
N -16.526100 -5.120100 -10.427500
C -16.156900 -10.611500 -18.903400
C -16.128900 -9.437400 -16.830900
O -16.099100 -11.690500 -21.018300
N -15.665400 -8.792800 -15.702300
C -15.614900 -4.185400 -8.801100
C -15.545300 -7.349600 -13.195700
C -15.492600 -11.296800 -20.043800
C -15.478400 -6.589900 -12.030000
C -15.439600 -10.118600 -17.820000
N -15.298000 -4.922600 -9.840700
H -14.763600 -3.766500 -8.271400
H -14.715100 -7.777700 -13.595300
H -14.523100 -6.580200 -11.418000
H -14.451700 -10.211700 -17.737700
O -14.179900 -11.381900 -19.916400
H -13.898600 -12.018300 -20.655900
H -19.513000 2.269300 -5.897500
O -19.231700 1.633000 -6.637000
H -18.959900 0.462700 -8.815700
H -18.888500 -3.168700 -15.135400
H -18.696500 -1.971200 -12.958000
H -18.648000 -5.982400 -18.282000
N -18.113500 -4.826400 -16.712700
C -17.971900 0.369600 -8.733400
C -17.933200 -3.159000 -14.523400
C -17.919000 1.547900 -6.509600
C -17.866300 -2.399300 -13.357700
C -17.796600 -5.563500 -17.752300
N -17.746100 -0.956100 -10.851000
O -17.312500 1.941500 -5.535100
C -17.282700 -0.311500 -9.722500
C -17.254700 0.862600 -7.650000
N -16.885500 -4.628900 -16.125900
C -16.814600 -3.843300 -14.958800
C -16.687200 -2.319000 -12.634100
C -16.665500 -1.535400 -11.396700
N -16.496000 -5.851600 -17.870400
C -15.955700 -5.250200 -16.841500
C -15.902700 -0.524200 -9.588400
C -15.861200 0.696000 -7.581000
C -15.620900 -3.745200 -14.236600
C -15.565700 -2.993400 -13.093500
N -15.548000 -1.287600 -10.666500
H -15.395200 1.070400 -6.869400
C -15.172000 -0.002000 -8.532900
H -15.044100 -5.289200 -16.595900
H -14.877400 -4.161000 -14.511400
H -14.810700 -2.963500 -12.652700
H -14.763900 -1.598800 -10.835100
H -14.257400 -0.291500 -8.351000
