34
Fragment
H -19.154200 -9.457400 -18.202300
H -18.647600 -8.150100 -15.718300
H -18.600900 -6.785500 -13.900700
H -18.534200 -5.587900 -12.042000
H -18.367400 -4.459700 -9.957500
C -18.239500 -9.746900 -18.020500
H -18.016400 -10.819300 -19.684000
N -17.863500 -8.461400 -15.886900
C -17.845800 -6.755500 -13.459900
C -17.790700 -6.003700 -12.316800
C -17.550400 -10.444900 -18.972400
C -17.508900 -9.224800 -16.965000
C -17.455900 -4.498700 -9.711900
N -16.915500 -3.897300 -8.683000
C -16.746100 -8.213600 -15.156700
C -16.724300 -7.429900 -13.919300
C -16.597000 -5.905600 -11.594500
N -16.526100 -5.120100 -10.427500
C -16.156900 -10.611500 -18.903400
C -16.128900 -9.437400 -16.830900
O -16.099100 -11.690500 -21.018300
N -15.665400 -8.792800 -15.702300
C -15.614900 -4.185400 -8.801100
C -15.545300 -7.349600 -13.195700
C -15.492600 -11.296800 -20.043800
C -15.478400 -6.589900 -12.030000
C -15.439600 -10.118600 -17.820000
N -15.298000 -4.922600 -9.840700
H -14.763600 -3.766500 -8.271400
H -14.715100 -7.777700 -13.595300
H -14.523100 -6.580200 -11.418000
H -14.451700 -10.211700 -17.737700
O -14.179900 -11.381900 -19.916400
H -13.898600 -12.018300 -20.655900
34
Fragment
H -15.621100 -6.507400 -19.174200
O -15.339900 -7.143800 -19.913700
H -15.068000 -8.314000 -22.092400
H -14.996700 -11.945500 -28.412100
H -14.804700 -10.748000 -26.234700
H -14.756200 -14.759200 -31.558700
N -14.221700 -13.603100 -29.989400
C -14.080100 -8.407100 -22.010100
C -14.041400 -11.935800 -27.800100
C -14.027200 -7.228900 -19.786300
C -13.974500 -11.176100 -26.634400
C -13.904800 -14.340300 -31.029000
N -13.854300 -9.732900 -24.127700
O -13.420700 -6.835200 -18.811700
C -13.390900 -9.088300 -22.999200
C -13.362900 -7.914200 -20.926700
N -12.993700 -13.405600 -29.402600
C -12.922800 -12.620100 -28.235500
C -12.795400 -11.095800 -25.910800
C -12.773600 -10.312100 -24.673400
N -12.604200 -14.628400 -31.147100
C -12.063900 -14.027000 -30.118200
C -12.010800 -9.300900 -22.865100
C -11.969300 -8.080800 -20.857700
C -11.729100 -12.522000 -27.513300
C -11.673900 -11.770200 -26.370200
N -11.656200 -10.064300 -23.943200
H -11.503300 -7.706400 -20.146000
C -11.280200 -8.778800 -21.809600
H -11.152300 -14.066000 -29.872600
H -10.985500 -12.937800 -27.788100
H -10.918800 -11.740200 -25.929400
H -10.872100 -10.375600 -24.111800
H -10.365500 -9.068300 -21.627700
68
Fragment
H -19.154200 -9.457400 -18.202300
H -18.647600 -8.150100 -15.718300
H -18.600900 -6.785500 -13.900700
H -18.534200 -5.587900 -12.042000
H -18.367400 -4.459700 -9.957500
C -18.239500 -9.746900 -18.020500
H -18.016400 -10.819300 -19.684000
N -17.863500 -8.461400 -15.886900
C -17.845800 -6.755500 -13.459900
C -17.790700 -6.003700 -12.316800
C -17.550400 -10.444900 -18.972400
C -17.508900 -9.224800 -16.965000
C -17.455900 -4.498700 -9.711900
N -16.915500 -3.897300 -8.683000
C -16.746100 -8.213600 -15.156700
C -16.724300 -7.429900 -13.919300
C -16.597000 -5.905600 -11.594500
N -16.526100 -5.120100 -10.427500
C -16.156900 -10.611500 -18.903400
C -16.128900 -9.437400 -16.830900
O -16.099100 -11.690500 -21.018300
N -15.665400 -8.792800 -15.702300
C -15.614900 -4.185400 -8.801100
C -15.545300 -7.349600 -13.195700
C -15.492600 -11.296800 -20.043800
C -15.478400 -6.589900 -12.030000
C -15.439600 -10.118600 -17.820000
N -15.298000 -4.922600 -9.840700
H -14.763600 -3.766500 -8.271400
H -14.715100 -7.777700 -13.595300
H -14.523100 -6.580200 -11.418000
H -14.451700 -10.211700 -17.737700
O -14.179900 -11.381900 -19.916400
H -13.898600 -12.018300 -20.655900
H -15.621100 -6.507400 -19.174200
O -15.339900 -7.143800 -19.913700
H -15.068000 -8.314000 -22.092400
H -14.996700 -11.945500 -28.412100
H -14.804700 -10.748000 -26.234700
H -14.756200 -14.759200 -31.558700
N -14.221700 -13.603100 -29.989400
C -14.080100 -8.407100 -22.010100
C -14.041400 -11.935800 -27.800100
C -14.027200 -7.228900 -19.786300
C -13.974500 -11.176100 -26.634400
C -13.904800 -14.340300 -31.029000
N -13.854300 -9.732900 -24.127700
O -13.420700 -6.835200 -18.811700
C -13.390900 -9.088300 -22.999200
C -13.362900 -7.914200 -20.926700
N -12.993700 -13.405600 -29.402600
C -12.922800 -12.620100 -28.235500
C -12.795400 -11.095800 -25.910800
C -12.773600 -10.312100 -24.673400
N -12.604200 -14.628400 -31.147100
C -12.063900 -14.027000 -30.118200
C -12.010800 -9.300900 -22.865100
C -11.969300 -8.080800 -20.857700
C -11.729100 -12.522000 -27.513300
C -11.673900 -11.770200 -26.370200
N -11.656200 -10.064300 -23.943200
H -11.503300 -7.706400 -20.146000
C -11.280200 -8.778800 -21.809600
H -11.152300 -14.066000 -29.872600
H -10.985500 -12.937800 -27.788100
H -10.918800 -11.740200 -25.929400
H -10.872100 -10.375600 -24.111800
H -10.365500 -9.068300 -21.627700
