34
Fragment
H -19.154200 -9.457400 -18.202300
H -18.647600 -8.150100 -15.718300
H -18.600900 -6.785500 -13.900700
H -18.534200 -5.587900 -12.042000
H -18.367400 -4.459700 -9.957500
C -18.239500 -9.746900 -18.020500
H -18.016400 -10.819300 -19.684000
N -17.863500 -8.461400 -15.886900
C -17.845800 -6.755500 -13.459900
C -17.790700 -6.003700 -12.316800
C -17.550400 -10.444900 -18.972400
C -17.508900 -9.224800 -16.965000
C -17.455900 -4.498700 -9.711900
N -16.915500 -3.897300 -8.683000
C -16.746100 -8.213600 -15.156700
C -16.724300 -7.429900 -13.919300
C -16.597000 -5.905600 -11.594500
N -16.526100 -5.120100 -10.427500
C -16.156900 -10.611500 -18.903400
C -16.128900 -9.437400 -16.830900
O -16.099100 -11.690500 -21.018300
N -15.665400 -8.792800 -15.702300
C -15.614900 -4.185400 -8.801100
C -15.545300 -7.349600 -13.195700
C -15.492600 -11.296800 -20.043800
C -15.478400 -6.589900 -12.030000
C -15.439600 -10.118600 -17.820000
N -15.298000 -4.922600 -9.840700
H -14.763600 -3.766500 -8.271400
H -14.715100 -7.777700 -13.595300
H -14.523100 -6.580200 -11.418000
H -14.451700 -10.211700 -17.737700
O -14.179900 -11.381900 -19.916400
H -13.898600 -12.018300 -20.655900
34
Fragment
H -17.661900 -14.312000 -19.174200
O -17.380700 -14.948400 -19.913700
H -17.108800 -16.118600 -22.092400
H -17.037500 -19.750000 -28.412100
H -16.845500 -18.552600 -26.234700
H -16.797000 -22.563800 -31.558700
N -16.262500 -21.407700 -29.989400
C -16.120900 -16.211700 -22.010100
C -16.082200 -19.740300 -27.800100
C -16.068000 -15.033500 -19.786300
C -16.015300 -18.980700 -26.634400
C -15.945600 -22.144900 -31.029000
N -15.895100 -17.537500 -24.127700
O -15.461500 -14.639800 -18.811700
C -15.431700 -16.892900 -22.999200
C -15.403700 -15.718700 -20.926700
N -15.034500 -21.210200 -29.402600
C -14.963600 -20.424700 -28.235500
C -14.836200 -18.900400 -25.910800
C -14.814400 -18.116700 -24.673400
N -14.645000 -22.433000 -31.147100
C -14.104700 -21.831600 -30.118200
C -14.051600 -17.105500 -22.865100
C -14.010100 -15.885400 -20.857700
C -13.769900 -20.326500 -27.513300
C -13.714700 -19.574800 -26.370200
N -13.697000 -17.868900 -23.943200
H -13.544100 -15.511000 -20.146000
C -13.321000 -16.583400 -21.809600
H -13.193100 -21.870600 -29.872600
H -13.026300 -20.742400 -27.788100
H -12.959600 -19.544800 -25.929400
H -12.912900 -18.180200 -24.111800
H -12.406300 -16.872900 -21.627700
68
Fragment
H -19.154200 -9.457400 -18.202300
H -18.647600 -8.150100 -15.718300
H -18.600900 -6.785500 -13.900700
H -18.534200 -5.587900 -12.042000
H -18.367400 -4.459700 -9.957500
C -18.239500 -9.746900 -18.020500
H -18.016400 -10.819300 -19.684000
N -17.863500 -8.461400 -15.886900
C -17.845800 -6.755500 -13.459900
C -17.790700 -6.003700 -12.316800
C -17.550400 -10.444900 -18.972400
C -17.508900 -9.224800 -16.965000
C -17.455900 -4.498700 -9.711900
N -16.915500 -3.897300 -8.683000
C -16.746100 -8.213600 -15.156700
C -16.724300 -7.429900 -13.919300
C -16.597000 -5.905600 -11.594500
N -16.526100 -5.120100 -10.427500
C -16.156900 -10.611500 -18.903400
C -16.128900 -9.437400 -16.830900
O -16.099100 -11.690500 -21.018300
N -15.665400 -8.792800 -15.702300
C -15.614900 -4.185400 -8.801100
C -15.545300 -7.349600 -13.195700
C -15.492600 -11.296800 -20.043800
C -15.478400 -6.589900 -12.030000
C -15.439600 -10.118600 -17.820000
N -15.298000 -4.922600 -9.840700
H -14.763600 -3.766500 -8.271400
H -14.715100 -7.777700 -13.595300
H -14.523100 -6.580200 -11.418000
H -14.451700 -10.211700 -17.737700
O -14.179900 -11.381900 -19.916400
H -13.898600 -12.018300 -20.655900
H -17.661900 -14.312000 -19.174200
O -17.380700 -14.948400 -19.913700
H -17.108800 -16.118600 -22.092400
H -17.037500 -19.750000 -28.412100
H -16.845500 -18.552600 -26.234700
H -16.797000 -22.563800 -31.558700
N -16.262500 -21.407700 -29.989400
C -16.120900 -16.211700 -22.010100
C -16.082200 -19.740300 -27.800100
C -16.068000 -15.033500 -19.786300
C -16.015300 -18.980700 -26.634400
C -15.945600 -22.144900 -31.029000
N -15.895100 -17.537500 -24.127700
O -15.461500 -14.639800 -18.811700
C -15.431700 -16.892900 -22.999200
C -15.403700 -15.718700 -20.926700
N -15.034500 -21.210200 -29.402600
C -14.963600 -20.424700 -28.235500
C -14.836200 -18.900400 -25.910800
C -14.814400 -18.116700 -24.673400
N -14.645000 -22.433000 -31.147100
C -14.104700 -21.831600 -30.118200
C -14.051600 -17.105500 -22.865100
C -14.010100 -15.885400 -20.857700
C -13.769900 -20.326500 -27.513300
C -13.714700 -19.574800 -26.370200
N -13.697000 -17.868900 -23.943200
H -13.544100 -15.511000 -20.146000
C -13.321000 -16.583400 -21.809600
H -13.193100 -21.870600 -29.872600
H -13.026300 -20.742400 -27.788100
H -12.959600 -19.544800 -25.929400
H -12.912900 -18.180200 -24.111800
H -12.406300 -16.872900 -21.627700
