36
Fragment
O -9.193200 -10.665200 -18.522000
O -8.905400 -11.230100 -20.624100
N -8.660800 -11.310100 -19.422700
O -7.958900 -15.452200 -20.292900
H -7.818300 -12.233100 -17.012200
N -7.726400 -12.199800 -19.052500
H -7.516700 -13.286100 -20.773300
N -7.354100 -15.281900 -19.249100
O -7.313700 -10.196900 -15.774200
O -7.268200 -16.058300 -18.317400
C -7.120300 -12.216500 -17.727800
C -6.956400 -12.986600 -20.000700
H -6.688800 -14.213900 -17.100500
N -6.570200 -14.102900 -19.151700
C -6.396300 -10.172300 -16.563900
C -6.350400 -13.576100 -17.792600
N -6.212800 -11.109600 -17.542700
H -5.768800 -9.461600 -16.500100
N -5.680900 -10.894900 -19.870500
C -5.653700 -12.215700 -20.482600
H -5.598900 -12.163400 -21.479900
O -5.273200 -9.956800 -21.852500
N -5.252900 -9.803100 -20.641400
C -5.135700 -11.021700 -18.499200
O -4.992900 -8.777900 -20.037200
N -4.936300 -13.282100 -17.587400
O -4.728500 -15.317500 -16.680100
H -4.534200 -10.253200 -18.284500
N -4.483200 -12.862200 -19.909200
C -4.327000 -12.366200 -18.542800
N -4.148800 -14.387400 -17.210400
O -3.479500 -12.869300 -21.922900
H -3.362400 -12.211700 -18.325900
N -3.315500 -12.950900 -20.716300
O -2.947300 -14.294700 -17.389400
O -2.277700 -13.178300 -20.130300
36
Fragment
O -9.579200 -17.139800 -24.591600
O -8.909500 -18.256200 -27.332500
N -8.541400 -16.912400 -24.005600
H -8.494400 -16.173200 -26.396000
O -8.377300 -16.830800 -22.799000
N -7.708100 -18.348900 -27.511500
C -7.529900 -16.327700 -26.179100
N -7.373700 -16.823700 -24.812700
H -7.322700 -14.214700 -26.437300
O -7.128300 -19.279000 -28.041700
N -6.920600 -17.243600 -27.134400
O -6.863900 -12.739400 -24.684700
C -6.721200 -14.983200 -26.222700
N -6.603900 -13.764600 -24.080500
O -6.583700 -13.918300 -22.869400
H -6.258000 -16.124900 -23.242000
C -6.203200 -16.177200 -24.239300
N -6.176000 -14.856400 -24.851400
H -6.088000 -13.423100 -28.221800
N -5.644100 -15.071100 -27.179200
C -5.506500 -17.537600 -26.929300
C -5.460600 -14.133800 -28.158000
N -5.286700 -18.064400 -25.570200
H -5.168100 -18.175400 -27.621400
C -4.900400 -16.948100 -24.721100
C -4.736600 -16.178000 -26.994100
O -4.588600 -20.019800 -26.404500
O -4.543200 -14.158400 -28.947700
N -4.502800 -19.243400 -25.472800
H -4.340100 -17.247600 -23.948600
N -4.130500 -16.161300 -25.669400
H -4.038500 -16.194600 -27.709700
O -3.898000 -19.413700 -24.429000
N -3.196000 -15.271600 -25.299200
O -2.951400 -15.191600 -24.097800
O -2.663700 -14.626700 -26.199900
72
Fragment
O -9.193200 -10.665200 -18.522000
O -8.905400 -11.230100 -20.624100
N -8.660800 -11.310100 -19.422700
O -7.958900 -15.452200 -20.292900
H -7.818300 -12.233100 -17.012200
N -7.726400 -12.199800 -19.052500
H -7.516700 -13.286100 -20.773300
N -7.354100 -15.281900 -19.249100
O -7.313700 -10.196900 -15.774200
O -7.268200 -16.058300 -18.317400
C -7.120300 -12.216500 -17.727800
C -6.956400 -12.986600 -20.000700
H -6.688800 -14.213900 -17.100500
N -6.570200 -14.102900 -19.151700
C -6.396300 -10.172300 -16.563900
C -6.350400 -13.576100 -17.792600
N -6.212800 -11.109600 -17.542700
H -5.768800 -9.461600 -16.500100
N -5.680900 -10.894900 -19.870500
C -5.653700 -12.215700 -20.482600
H -5.598900 -12.163400 -21.479900
O -5.273200 -9.956800 -21.852500
N -5.252900 -9.803100 -20.641400
C -5.135700 -11.021700 -18.499200
O -4.992900 -8.777900 -20.037200
N -4.936300 -13.282100 -17.587400
O -4.728500 -15.317500 -16.680100
H -4.534200 -10.253200 -18.284500
N -4.483200 -12.862200 -19.909200
C -4.327000 -12.366200 -18.542800
N -4.148800 -14.387400 -17.210400
O -3.479500 -12.869300 -21.922900
H -3.362400 -12.211700 -18.325900
N -3.315500 -12.950900 -20.716300
O -2.947300 -14.294700 -17.389400
O -2.277700 -13.178300 -20.130300
O -9.579200 -17.139800 -24.591600
O -8.909500 -18.256200 -27.332500
N -8.541400 -16.912400 -24.005600
H -8.494400 -16.173200 -26.396000
O -8.377300 -16.830800 -22.799000
N -7.708100 -18.348900 -27.511500
C -7.529900 -16.327700 -26.179100
N -7.373700 -16.823700 -24.812700
H -7.322700 -14.214700 -26.437300
O -7.128300 -19.279000 -28.041700
N -6.920600 -17.243600 -27.134400
O -6.863900 -12.739400 -24.684700
C -6.721200 -14.983200 -26.222700
N -6.603900 -13.764600 -24.080500
O -6.583700 -13.918300 -22.869400
H -6.258000 -16.124900 -23.242000
C -6.203200 -16.177200 -24.239300
N -6.176000 -14.856400 -24.851400
H -6.088000 -13.423100 -28.221800
N -5.644100 -15.071100 -27.179200
C -5.506500 -17.537600 -26.929300
C -5.460600 -14.133800 -28.158000
N -5.286700 -18.064400 -25.570200
H -5.168100 -18.175400 -27.621400
C -4.900400 -16.948100 -24.721100
C -4.736600 -16.178000 -26.994100
O -4.588600 -20.019800 -26.404500
O -4.543200 -14.158400 -28.947700
N -4.502800 -19.243400 -25.472800
H -4.340100 -17.247600 -23.948600
N -4.130500 -16.161300 -25.669400
H -4.038500 -16.194600 -27.709700
O -3.898000 -19.413700 -24.429000
N -3.196000 -15.271600 -25.299200
O -2.951400 -15.191600 -24.097800
O -2.663700 -14.626700 -26.199900
