36
Fragment
O -9.193200 -10.665200 -18.522000
O -8.905400 -11.230100 -20.624100
N -8.660800 -11.310100 -19.422700
O -7.958900 -15.452200 -20.292900
H -7.818300 -12.233100 -17.012200
N -7.726400 -12.199800 -19.052500
H -7.516700 -13.286100 -20.773300
N -7.354100 -15.281900 -19.249100
O -7.313700 -10.196900 -15.774200
O -7.268200 -16.058300 -18.317400
C -7.120300 -12.216500 -17.727800
C -6.956400 -12.986600 -20.000700
H -6.688800 -14.213900 -17.100500
N -6.570200 -14.102900 -19.151700
C -6.396300 -10.172300 -16.563900
C -6.350400 -13.576100 -17.792600
N -6.212800 -11.109600 -17.542700
H -5.768800 -9.461600 -16.500100
N -5.680900 -10.894900 -19.870500
C -5.653700 -12.215700 -20.482600
H -5.598900 -12.163400 -21.479900
O -5.273200 -9.956800 -21.852500
N -5.252900 -9.803100 -20.641400
C -5.135700 -11.021700 -18.499200
O -4.992900 -8.777900 -20.037200
N -4.936300 -13.282100 -17.587400
O -4.728500 -15.317500 -16.680100
H -4.534200 -10.253200 -18.284500
N -4.483200 -12.862200 -19.909200
C -4.327000 -12.366200 -18.542800
N -4.148800 -14.387400 -17.210400
O -3.479500 -12.869300 -21.922900
H -3.362400 -12.211700 -18.325900
N -3.315500 -12.950900 -20.716300
O -2.947300 -14.294700 -17.389400
O -2.277700 -13.178300 -20.130300
36
Fragment
O -9.193200 -2.742200 -18.522000
O -8.905400 -3.307100 -20.624100
N -8.660800 -3.387100 -19.422700
O -7.958900 -7.529200 -20.292900
H -7.818300 -4.310100 -17.012200
N -7.726400 -4.276800 -19.052500
H -7.516700 -5.363100 -20.773300
N -7.354100 -7.358900 -19.249100
O -7.313700 -2.273900 -15.774200
O -7.268200 -8.135300 -18.317400
C -7.120300 -4.293500 -17.727800
C -6.956400 -5.063600 -20.000700
H -6.688800 -6.290900 -17.100500
N -6.570200 -6.179900 -19.151700
C -6.396300 -2.249300 -16.563900
C -6.350400 -5.653100 -17.792600
N -6.212800 -3.186600 -17.542700
H -5.768800 -1.538600 -16.500100
N -5.680900 -2.971900 -19.870500
C -5.653700 -4.292700 -20.482600
H -5.598900 -4.240400 -21.479900
O -5.273200 -2.033800 -21.852500
N -5.252900 -1.880100 -20.641400
C -5.135700 -3.098700 -18.499200
O -4.992900 -0.854900 -20.037200
N -4.936300 -5.359100 -17.587400
O -4.728500 -7.394500 -16.680100
H -4.534200 -2.330200 -18.284500
N -4.483200 -4.939200 -19.909200
C -4.327000 -4.443200 -18.542800
N -4.148800 -6.464400 -17.210400
O -3.479500 -4.946300 -21.922900
H -3.362400 -4.288700 -18.325900
N -3.315500 -5.027900 -20.716300
O -2.947300 -6.371700 -17.389400
O -2.277700 -5.255300 -20.130300
72
Fragment
O -9.193200 -10.665200 -18.522000
O -8.905400 -11.230100 -20.624100
N -8.660800 -11.310100 -19.422700
O -7.958900 -15.452200 -20.292900
H -7.818300 -12.233100 -17.012200
N -7.726400 -12.199800 -19.052500
H -7.516700 -13.286100 -20.773300
N -7.354100 -15.281900 -19.249100
O -7.313700 -10.196900 -15.774200
O -7.268200 -16.058300 -18.317400
C -7.120300 -12.216500 -17.727800
C -6.956400 -12.986600 -20.000700
H -6.688800 -14.213900 -17.100500
N -6.570200 -14.102900 -19.151700
C -6.396300 -10.172300 -16.563900
C -6.350400 -13.576100 -17.792600
N -6.212800 -11.109600 -17.542700
H -5.768800 -9.461600 -16.500100
N -5.680900 -10.894900 -19.870500
C -5.653700 -12.215700 -20.482600
H -5.598900 -12.163400 -21.479900
O -5.273200 -9.956800 -21.852500
N -5.252900 -9.803100 -20.641400
C -5.135700 -11.021700 -18.499200
O -4.992900 -8.777900 -20.037200
N -4.936300 -13.282100 -17.587400
O -4.728500 -15.317500 -16.680100
H -4.534200 -10.253200 -18.284500
N -4.483200 -12.862200 -19.909200
C -4.327000 -12.366200 -18.542800
N -4.148800 -14.387400 -17.210400
O -3.479500 -12.869300 -21.922900
H -3.362400 -12.211700 -18.325900
N -3.315500 -12.950900 -20.716300
O -2.947300 -14.294700 -17.389400
O -2.277700 -13.178300 -20.130300
O -9.193200 -2.742200 -18.522000
O -8.905400 -3.307100 -20.624100
N -8.660800 -3.387100 -19.422700
O -7.958900 -7.529200 -20.292900
H -7.818300 -4.310100 -17.012200
N -7.726400 -4.276800 -19.052500
H -7.516700 -5.363100 -20.773300
N -7.354100 -7.358900 -19.249100
O -7.313700 -2.273900 -15.774200
O -7.268200 -8.135300 -18.317400
C -7.120300 -4.293500 -17.727800
C -6.956400 -5.063600 -20.000700
H -6.688800 -6.290900 -17.100500
N -6.570200 -6.179900 -19.151700
C -6.396300 -2.249300 -16.563900
C -6.350400 -5.653100 -17.792600
N -6.212800 -3.186600 -17.542700
H -5.768800 -1.538600 -16.500100
N -5.680900 -2.971900 -19.870500
C -5.653700 -4.292700 -20.482600
H -5.598900 -4.240400 -21.479900
O -5.273200 -2.033800 -21.852500
N -5.252900 -1.880100 -20.641400
C -5.135700 -3.098700 -18.499200
O -4.992900 -0.854900 -20.037200
N -4.936300 -5.359100 -17.587400
O -4.728500 -7.394500 -16.680100
H -4.534200 -2.330200 -18.284500
N -4.483200 -4.939200 -19.909200
C -4.327000 -4.443200 -18.542800
N -4.148800 -6.464400 -17.210400
O -3.479500 -4.946300 -21.922900
H -3.362400 -4.288700 -18.325900
N -3.315500 -5.027900 -20.716300
O -2.947300 -6.371700 -17.389400
O -2.277700 -5.255300 -20.130300
