31
Fragment
O -18.881200 -22.868300 -15.620900
H -18.797500 -23.563500 -12.506900
H -18.777000 -23.680800 -15.657800
H -18.373500 -20.355300 -15.846000
H -17.941200 -21.036700 -17.190100
C -17.941000 -23.901700 -12.642200
H -17.888200 -21.509100 -13.680800
C -17.705000 -20.899100 -16.269800
C -17.622000 -22.235700 -15.565100
N -17.504800 -25.039700 -12.091600
C -17.210200 -22.034000 -14.132900
N -17.021500 -23.296100 -13.409300
H -16.958400 -22.798400 -16.016300
H -16.854100 -20.458000 -16.219600
H -16.381800 -21.530800 -14.111200
H -16.332200 -27.794400 -11.714200
C -16.224700 -25.136800 -12.538100
H -16.166100 -26.792600 -10.519500
C -15.892900 -24.099200 -13.357300
C -15.731300 -27.184800 -11.280100
N -15.344000 -26.131800 -12.216800
H -14.947800 -27.659600 -10.990600
C -14.605800 -23.960900 -13.952300
O -14.234500 -23.074900 -14.697800
C -14.078700 -26.097700 -12.752800
N -13.766600 -25.019500 -13.591900
O -13.253300 -26.966000 -12.512600
C -12.398700 -25.012600 -14.134800
H -12.294700 -24.267800 -14.731700
H -12.239500 -25.829100 -14.612500
H -11.769000 -24.935300 -13.414000
31
Fragment
H -9.901800 -27.596400 -14.963400
H -9.431300 -26.702600 -13.765000
H -9.376100 -28.264000 -13.645800
C -9.272100 -27.519200 -14.242700
O -8.417500 -25.565700 -15.864900
N -7.904200 -27.512200 -14.785600
C -7.592100 -26.434000 -15.624600
O -7.436300 -29.456900 -13.679700
C -7.065000 -28.570800 -14.425200
H -6.723000 -24.872100 -17.386900
N -6.326800 -26.399900 -16.160700
C -5.939500 -25.347000 -17.097400
C -5.777900 -28.432600 -15.020200
H -5.504700 -25.739100 -17.858000
C -5.446100 -27.395000 -15.839400
H -5.338600 -24.737300 -16.663300
H -5.289000 -31.000900 -14.266300
H -4.816700 -32.073800 -12.157900
H -4.712400 -29.733300 -12.361200
N -4.649300 -29.235600 -14.968200
C -4.460600 -30.497700 -14.244600
N -4.166000 -27.492000 -16.285800
C -4.048800 -30.296000 -12.812400
C -3.965800 -31.632700 -12.107700
H -3.782600 -31.022600 -14.696700
C -3.729800 -28.630000 -15.735300
H -3.729600 -31.495000 -11.187400
H -3.297300 -32.176400 -12.531500
H -2.893800 -28.850900 -12.719700
H -2.873300 -28.968300 -15.870600
O -2.789600 -29.663400 -12.756600
62
Fragment
O -18.881200 -22.868300 -15.620900
H -18.797500 -23.563500 -12.506900
H -18.777000 -23.680800 -15.657800
H -18.373500 -20.355300 -15.846000
H -17.941200 -21.036700 -17.190100
C -17.941000 -23.901700 -12.642200
H -17.888200 -21.509100 -13.680800
C -17.705000 -20.899100 -16.269800
C -17.622000 -22.235700 -15.565100
N -17.504800 -25.039700 -12.091600
C -17.210200 -22.034000 -14.132900
N -17.021500 -23.296100 -13.409300
H -16.958400 -22.798400 -16.016300
H -16.854100 -20.458000 -16.219600
H -16.381800 -21.530800 -14.111200
H -16.332200 -27.794400 -11.714200
C -16.224700 -25.136800 -12.538100
H -16.166100 -26.792600 -10.519500
C -15.892900 -24.099200 -13.357300
C -15.731300 -27.184800 -11.280100
N -15.344000 -26.131800 -12.216800
H -14.947800 -27.659600 -10.990600
C -14.605800 -23.960900 -13.952300
O -14.234500 -23.074900 -14.697800
C -14.078700 -26.097700 -12.752800
N -13.766600 -25.019500 -13.591900
O -13.253300 -26.966000 -12.512600
C -12.398700 -25.012600 -14.134800
H -12.294700 -24.267800 -14.731700
H -12.239500 -25.829100 -14.612500
H -11.769000 -24.935300 -13.414000
H -9.901800 -27.596400 -14.963400
H -9.431300 -26.702600 -13.765000
H -9.376100 -28.264000 -13.645800
C -9.272100 -27.519200 -14.242700
O -8.417500 -25.565700 -15.864900
N -7.904200 -27.512200 -14.785600
C -7.592100 -26.434000 -15.624600
O -7.436300 -29.456900 -13.679700
C -7.065000 -28.570800 -14.425200
H -6.723000 -24.872100 -17.386900
N -6.326800 -26.399900 -16.160700
C -5.939500 -25.347000 -17.097400
C -5.777900 -28.432600 -15.020200
H -5.504700 -25.739100 -17.858000
C -5.446100 -27.395000 -15.839400
H -5.338600 -24.737300 -16.663300
H -5.289000 -31.000900 -14.266300
H -4.816700 -32.073800 -12.157900
H -4.712400 -29.733300 -12.361200
N -4.649300 -29.235600 -14.968200
C -4.460600 -30.497700 -14.244600
N -4.166000 -27.492000 -16.285800
C -4.048800 -30.296000 -12.812400
C -3.965800 -31.632700 -12.107700
H -3.782600 -31.022600 -14.696700
C -3.729800 -28.630000 -15.735300
H -3.729600 -31.495000 -11.187400
H -3.297300 -32.176400 -12.531500
H -2.893800 -28.850900 -12.719700
H -2.873300 -28.968300 -15.870600
O -2.789600 -29.663400 -12.756600
