31
Fragment
O -18.881200 -22.868300 -15.620900
H -18.797500 -23.563500 -12.506900
H -18.777000 -23.680800 -15.657800
H -18.373500 -20.355300 -15.846000
H -17.941200 -21.036700 -17.190100
C -17.941000 -23.901700 -12.642200
H -17.888200 -21.509100 -13.680800
C -17.705000 -20.899100 -16.269800
C -17.622000 -22.235700 -15.565100
N -17.504800 -25.039700 -12.091600
C -17.210200 -22.034000 -14.132900
N -17.021500 -23.296100 -13.409300
H -16.958400 -22.798400 -16.016300
H -16.854100 -20.458000 -16.219600
H -16.381800 -21.530800 -14.111200
H -16.332200 -27.794400 -11.714200
C -16.224700 -25.136800 -12.538100
H -16.166100 -26.792600 -10.519500
C -15.892900 -24.099200 -13.357300
C -15.731300 -27.184800 -11.280100
N -15.344000 -26.131800 -12.216800
H -14.947800 -27.659600 -10.990600
C -14.605800 -23.960900 -13.952300
O -14.234500 -23.074900 -14.697800
C -14.078700 -26.097700 -12.752800
N -13.766600 -25.019500 -13.591900
O -13.253300 -26.966000 -12.512600
C -12.398700 -25.012600 -14.134800
H -12.294700 -24.267800 -14.731700
H -12.239500 -25.829100 -14.612500
H -11.769000 -24.935300 -13.414000
16
Fragment
H -24.337000 -25.619300 -8.483900
H -24.025400 -27.642400 -7.444400
C -23.539500 -26.084600 -8.594600
C -23.348900 -27.292000 -7.976900
O -22.763600 -24.370800 -9.998300
C -22.528800 -25.564300 -9.389200
C -22.188100 -27.989000 -8.125400
H -22.116100 -24.166400 -10.458100
H -22.083200 -28.809500 -7.700700
C -21.338100 -26.251300 -9.547100
C -21.162800 -27.479900 -8.908600
O -20.411600 -24.609800 -10.978100
H -20.367200 -27.951500 -9.006100
C -20.278000 -25.682700 -10.392800
O -19.176800 -26.387900 -10.480500
H -18.630100 -25.985600 -10.940500
47
Fragment
O -18.881200 -22.868300 -15.620900
H -18.797500 -23.563500 -12.506900
H -18.777000 -23.680800 -15.657800
H -18.373500 -20.355300 -15.846000
H -17.941200 -21.036700 -17.190100
C -17.941000 -23.901700 -12.642200
H -17.888200 -21.509100 -13.680800
C -17.705000 -20.899100 -16.269800
C -17.622000 -22.235700 -15.565100
N -17.504800 -25.039700 -12.091600
C -17.210200 -22.034000 -14.132900
N -17.021500 -23.296100 -13.409300
H -16.958400 -22.798400 -16.016300
H -16.854100 -20.458000 -16.219600
H -16.381800 -21.530800 -14.111200
H -16.332200 -27.794400 -11.714200
C -16.224700 -25.136800 -12.538100
H -16.166100 -26.792600 -10.519500
C -15.892900 -24.099200 -13.357300
C -15.731300 -27.184800 -11.280100
N -15.344000 -26.131800 -12.216800
H -14.947800 -27.659600 -10.990600
C -14.605800 -23.960900 -13.952300
O -14.234500 -23.074900 -14.697800
C -14.078700 -26.097700 -12.752800
N -13.766600 -25.019500 -13.591900
O -13.253300 -26.966000 -12.512600
C -12.398700 -25.012600 -14.134800
H -12.294700 -24.267800 -14.731700
H -12.239500 -25.829100 -14.612500
H -11.769000 -24.935300 -13.414000
H -24.337000 -25.619300 -8.483900
H -24.025400 -27.642400 -7.444400
C -23.539500 -26.084600 -8.594600
C -23.348900 -27.292000 -7.976900
O -22.763600 -24.370800 -9.998300
C -22.528800 -25.564300 -9.389200
C -22.188100 -27.989000 -8.125400
H -22.116100 -24.166400 -10.458100
H -22.083200 -28.809500 -7.700700
C -21.338100 -26.251300 -9.547100
C -21.162800 -27.479900 -8.908600
O -20.411600 -24.609800 -10.978100
H -20.367200 -27.951500 -9.006100
C -20.278000 -25.682700 -10.392800
O -19.176800 -26.387900 -10.480500
H -18.630100 -25.985600 -10.940500
