31
Fragment
O -18.881200 -22.868300 -15.620900
H -18.797500 -23.563500 -12.506900
H -18.777000 -23.680800 -15.657800
H -18.373500 -20.355300 -15.846000
H -17.941200 -21.036700 -17.190100
C -17.941000 -23.901700 -12.642200
H -17.888200 -21.509100 -13.680800
C -17.705000 -20.899100 -16.269800
C -17.622000 -22.235700 -15.565100
N -17.504800 -25.039700 -12.091600
C -17.210200 -22.034000 -14.132900
N -17.021500 -23.296100 -13.409300
H -16.958400 -22.798400 -16.016300
H -16.854100 -20.458000 -16.219600
H -16.381800 -21.530800 -14.111200
H -16.332200 -27.794400 -11.714200
C -16.224700 -25.136800 -12.538100
H -16.166100 -26.792600 -10.519500
C -15.892900 -24.099200 -13.357300
C -15.731300 -27.184800 -11.280100
N -15.344000 -26.131800 -12.216800
H -14.947800 -27.659600 -10.990600
C -14.605800 -23.960900 -13.952300
O -14.234500 -23.074900 -14.697800
C -14.078700 -26.097700 -12.752800
N -13.766600 -25.019500 -13.591900
O -13.253300 -26.966000 -12.512600
C -12.398700 -25.012600 -14.134800
H -12.294700 -24.267800 -14.731700
H -12.239500 -25.829100 -14.612500
H -11.769000 -24.935300 -13.414000
31
Fragment
H -17.755600 -17.539900 -14.963400
H -17.285100 -16.646100 -13.765000
H -17.229900 -18.207500 -13.645800
C -17.125900 -17.462700 -14.242700
O -16.271300 -15.509200 -15.864900
N -15.758000 -17.455700 -14.785600
C -15.445900 -16.377500 -15.624600
O -15.290100 -19.400400 -13.679700
C -14.918800 -18.514300 -14.425200
H -14.576800 -14.815600 -17.386900
N -14.180600 -16.343400 -16.160700
C -13.793300 -15.290500 -17.097400
C -13.631600 -18.376100 -15.020200
H -13.358500 -15.682600 -17.858000
C -13.299900 -17.338500 -15.839400
H -13.192400 -14.680800 -16.663300
H -13.142800 -20.944400 -14.266300
H -12.670500 -22.017300 -12.157900
H -12.566100 -19.676800 -12.361200
N -12.503100 -19.179200 -14.968200
C -12.314400 -20.441200 -14.244600
N -12.019800 -17.435500 -16.285800
C -11.902600 -20.239500 -12.812400
C -11.819600 -21.576200 -12.107700
H -11.636400 -20.966100 -14.696700
C -11.583600 -18.573500 -15.735300
H -11.583400 -21.438500 -11.187400
H -11.151100 -22.120000 -12.531500
H -10.747600 -18.794400 -12.719700
H -10.727100 -18.911800 -15.870600
O -10.643400 -19.606900 -12.756600
62
Fragment
O -18.881200 -22.868300 -15.620900
H -18.797500 -23.563500 -12.506900
H -18.777000 -23.680800 -15.657800
H -18.373500 -20.355300 -15.846000
H -17.941200 -21.036700 -17.190100
C -17.941000 -23.901700 -12.642200
H -17.888200 -21.509100 -13.680800
C -17.705000 -20.899100 -16.269800
C -17.622000 -22.235700 -15.565100
N -17.504800 -25.039700 -12.091600
C -17.210200 -22.034000 -14.132900
N -17.021500 -23.296100 -13.409300
H -16.958400 -22.798400 -16.016300
H -16.854100 -20.458000 -16.219600
H -16.381800 -21.530800 -14.111200
H -16.332200 -27.794400 -11.714200
C -16.224700 -25.136800 -12.538100
H -16.166100 -26.792600 -10.519500
C -15.892900 -24.099200 -13.357300
C -15.731300 -27.184800 -11.280100
N -15.344000 -26.131800 -12.216800
H -14.947800 -27.659600 -10.990600
C -14.605800 -23.960900 -13.952300
O -14.234500 -23.074900 -14.697800
C -14.078700 -26.097700 -12.752800
N -13.766600 -25.019500 -13.591900
O -13.253300 -26.966000 -12.512600
C -12.398700 -25.012600 -14.134800
H -12.294700 -24.267800 -14.731700
H -12.239500 -25.829100 -14.612500
H -11.769000 -24.935300 -13.414000
H -17.755600 -17.539900 -14.963400
H -17.285100 -16.646100 -13.765000
H -17.229900 -18.207500 -13.645800
C -17.125900 -17.462700 -14.242700
O -16.271300 -15.509200 -15.864900
N -15.758000 -17.455700 -14.785600
C -15.445900 -16.377500 -15.624600
O -15.290100 -19.400400 -13.679700
C -14.918800 -18.514300 -14.425200
H -14.576800 -14.815600 -17.386900
N -14.180600 -16.343400 -16.160700
C -13.793300 -15.290500 -17.097400
C -13.631600 -18.376100 -15.020200
H -13.358500 -15.682600 -17.858000
C -13.299900 -17.338500 -15.839400
H -13.192400 -14.680800 -16.663300
H -13.142800 -20.944400 -14.266300
H -12.670500 -22.017300 -12.157900
H -12.566100 -19.676800 -12.361200
N -12.503100 -19.179200 -14.968200
C -12.314400 -20.441200 -14.244600
N -12.019800 -17.435500 -16.285800
C -11.902600 -20.239500 -12.812400
C -11.819600 -21.576200 -12.107700
H -11.636400 -20.966100 -14.696700
C -11.583600 -18.573500 -15.735300
H -11.583400 -21.438500 -11.187400
H -11.151100 -22.120000 -12.531500
H -10.747600 -18.794400 -12.719700
H -10.727100 -18.911800 -15.870600
O -10.643400 -19.606900 -12.756600
