31
Fragment
O -18.881200 -22.868300 -15.620900
H -18.797500 -23.563500 -12.506900
H -18.777000 -23.680800 -15.657800
H -18.373500 -20.355300 -15.846000
H -17.941200 -21.036700 -17.190100
C -17.941000 -23.901700 -12.642200
H -17.888200 -21.509100 -13.680800
C -17.705000 -20.899100 -16.269800
C -17.622000 -22.235700 -15.565100
N -17.504800 -25.039700 -12.091600
C -17.210200 -22.034000 -14.132900
N -17.021500 -23.296100 -13.409300
H -16.958400 -22.798400 -16.016300
H -16.854100 -20.458000 -16.219600
H -16.381800 -21.530800 -14.111200
H -16.332200 -27.794400 -11.714200
C -16.224700 -25.136800 -12.538100
H -16.166100 -26.792600 -10.519500
C -15.892900 -24.099200 -13.357300
C -15.731300 -27.184800 -11.280100
N -15.344000 -26.131800 -12.216800
H -14.947800 -27.659600 -10.990600
C -14.605800 -23.960900 -13.952300
O -14.234500 -23.074900 -14.697800
C -14.078700 -26.097700 -12.752800
N -13.766600 -25.019500 -13.591900
O -13.253300 -26.966000 -12.512600
C -12.398700 -25.012600 -14.134800
H -12.294700 -24.267800 -14.731700
H -12.239500 -25.829100 -14.612500
H -11.769000 -24.935300 -13.414000
16
Fragment
H -20.736100 -22.444200 -7.977900
O -20.189400 -22.041900 -8.437900
C -19.088100 -22.747100 -8.525500
H -18.998900 -20.478300 -9.912300
O -18.954600 -23.820000 -7.940200
C -18.203300 -20.950000 -10.009700
C -18.028100 -22.178500 -9.371200
H -17.283000 -19.620400 -11.217600
H -17.250000 -24.263400 -8.460300
C -17.178100 -20.440800 -10.792900
C -16.837400 -22.865500 -9.529200
O -16.602600 -24.059000 -8.920000
C -16.017300 -21.137800 -10.941400
C -15.826600 -22.345200 -10.323700
H -15.340800 -20.787500 -11.474000
H -15.029200 -22.810500 -10.434400
47
Fragment
O -18.881200 -22.868300 -15.620900
H -18.797500 -23.563500 -12.506900
H -18.777000 -23.680800 -15.657800
H -18.373500 -20.355300 -15.846000
H -17.941200 -21.036700 -17.190100
C -17.941000 -23.901700 -12.642200
H -17.888200 -21.509100 -13.680800
C -17.705000 -20.899100 -16.269800
C -17.622000 -22.235700 -15.565100
N -17.504800 -25.039700 -12.091600
C -17.210200 -22.034000 -14.132900
N -17.021500 -23.296100 -13.409300
H -16.958400 -22.798400 -16.016300
H -16.854100 -20.458000 -16.219600
H -16.381800 -21.530800 -14.111200
H -16.332200 -27.794400 -11.714200
C -16.224700 -25.136800 -12.538100
H -16.166100 -26.792600 -10.519500
C -15.892900 -24.099200 -13.357300
C -15.731300 -27.184800 -11.280100
N -15.344000 -26.131800 -12.216800
H -14.947800 -27.659600 -10.990600
C -14.605800 -23.960900 -13.952300
O -14.234500 -23.074900 -14.697800
C -14.078700 -26.097700 -12.752800
N -13.766600 -25.019500 -13.591900
O -13.253300 -26.966000 -12.512600
C -12.398700 -25.012600 -14.134800
H -12.294700 -24.267800 -14.731700
H -12.239500 -25.829100 -14.612500
H -11.769000 -24.935300 -13.414000
H -20.736100 -22.444200 -7.977900
O -20.189400 -22.041900 -8.437900
C -19.088100 -22.747100 -8.525500
H -18.998900 -20.478300 -9.912300
O -18.954600 -23.820000 -7.940200
C -18.203300 -20.950000 -10.009700
C -18.028100 -22.178500 -9.371200
H -17.283000 -19.620400 -11.217600
H -17.250000 -24.263400 -8.460300
C -17.178100 -20.440800 -10.792900
C -16.837400 -22.865500 -9.529200
O -16.602600 -24.059000 -8.920000
C -16.017300 -21.137800 -10.941400
C -15.826600 -22.345200 -10.323700
H -15.340800 -20.787500 -11.474000
H -15.029200 -22.810500 -10.434400
