33
Fragment
H -6.149200 -7.805700 -10.793200
N -6.121000 -6.343100 -12.939300
H -5.734200 -9.747400 -9.492600
H -5.655300 -11.771900 -15.387400
N -5.534800 -6.034300 -14.138700
N -5.474900 -7.939400 -11.253900
H -5.374500 -10.230300 -13.706400
C -5.358000 -7.294000 -12.431800
C -4.859300 -11.295300 -15.325300
C -4.785400 -9.576800 -9.603500
C -4.691500 -10.371200 -14.322500
C -4.552900 -8.913900 -10.914300
H -4.502200 -8.984700 -8.888900
N -4.482100 -6.755100 -14.352900
H -4.464600 -11.541800 -10.058600
N -4.355900 -7.558700 -13.262500
H -4.057000 -11.189800 -8.586000
C -4.031200 -10.875600 -9.502700
H -3.976200 -12.136100 -16.919200
C -3.858600 -11.517300 -16.235500
C -3.519800 -9.649900 -14.220800
C -3.519000 -9.193100 -11.731700
C -3.344300 -8.620900 -13.121200
C -2.687200 -10.822200 -16.129700
C -2.611200 -10.725700 -9.931500
C -2.514900 -9.887700 -15.135700
H -2.451000 -8.224000 -13.193900
C -2.438400 -10.057300 -11.263600
H -2.203000 -11.604100 -9.969700
H -2.136300 -10.209700 -9.261400
H -2.000200 -10.982000 -16.735800
H -1.716700 -9.414000 -15.079900
O -1.409600 -10.174900 -11.918300
33
Fragment
O -12.488500 -3.023900 -10.859300
H -12.181400 -3.784700 -7.697700
H -11.897900 -2.216800 -6.041800
H -11.761800 -2.989000 -13.516200
H -11.695200 -1.594700 -12.807800
C -11.459800 -3.141500 -11.513900
H -11.447100 -4.974800 -9.583700
C -11.383300 -3.311000 -7.641900
C -11.287000 -2.473100 -12.846100
C -11.211000 -2.376500 -6.647900
C -10.553900 -4.577800 -9.656300
C -10.379200 -4.005600 -11.045900
C -10.378400 -3.548900 -8.556700
C -10.039600 -1.681500 -6.542100
H -9.922000 -1.062600 -5.858400
C -9.866900 -2.323100 -13.274900
H -9.841100 -2.008900 -14.191600
N -9.542200 -5.640100 -9.515100
H -9.433500 -1.656900 -12.719000
N -9.416000 -6.443700 -8.424600
H -9.396000 -4.214100 -13.888600
C -9.345300 -4.284800 -11.863200
C -9.206600 -2.827500 -8.455000
C -9.112800 -3.621900 -13.174100
C -9.038900 -1.903500 -7.452300
C -8.540200 -5.904800 -10.345800
H -8.523600 -2.968500 -9.071200
N -8.423300 -5.259400 -11.523600
N -8.363300 -7.164400 -8.638900
H -8.242900 -1.426800 -7.390200
H -8.163900 -3.451300 -13.285000
N -7.777200 -6.855600 -9.838300
H -7.748900 -5.393100 -11.984400
66
Fragment
H -6.149200 -7.805700 -10.793200
N -6.121000 -6.343100 -12.939300
H -5.734200 -9.747400 -9.492600
H -5.655300 -11.771900 -15.387400
N -5.534800 -6.034300 -14.138700
N -5.474900 -7.939400 -11.253900
H -5.374500 -10.230300 -13.706400
C -5.358000 -7.294000 -12.431800
C -4.859300 -11.295300 -15.325300
C -4.785400 -9.576800 -9.603500
C -4.691500 -10.371200 -14.322500
C -4.552900 -8.913900 -10.914300
H -4.502200 -8.984700 -8.888900
N -4.482100 -6.755100 -14.352900
H -4.464600 -11.541800 -10.058600
N -4.355900 -7.558700 -13.262500
H -4.057000 -11.189800 -8.586000
C -4.031200 -10.875600 -9.502700
H -3.976200 -12.136100 -16.919200
C -3.858600 -11.517300 -16.235500
C -3.519800 -9.649900 -14.220800
C -3.519000 -9.193100 -11.731700
C -3.344300 -8.620900 -13.121200
C -2.687200 -10.822200 -16.129700
C -2.611200 -10.725700 -9.931500
C -2.514900 -9.887700 -15.135700
H -2.451000 -8.224000 -13.193900
C -2.438400 -10.057300 -11.263600
H -2.203000 -11.604100 -9.969700
H -2.136300 -10.209700 -9.261400
H -2.000200 -10.982000 -16.735800
H -1.716700 -9.414000 -15.079900
O -1.409600 -10.174900 -11.918300
O -12.488500 -3.023900 -10.859300
H -12.181400 -3.784700 -7.697700
H -11.897900 -2.216800 -6.041800
H -11.761800 -2.989000 -13.516200
H -11.695200 -1.594700 -12.807800
C -11.459800 -3.141500 -11.513900
H -11.447100 -4.974800 -9.583700
C -11.383300 -3.311000 -7.641900
C -11.287000 -2.473100 -12.846100
C -11.211000 -2.376500 -6.647900
C -10.553900 -4.577800 -9.656300
C -10.379200 -4.005600 -11.045900
C -10.378400 -3.548900 -8.556700
C -10.039600 -1.681500 -6.542100
H -9.922000 -1.062600 -5.858400
C -9.866900 -2.323100 -13.274900
H -9.841100 -2.008900 -14.191600
N -9.542200 -5.640100 -9.515100
H -9.433500 -1.656900 -12.719000
N -9.416000 -6.443700 -8.424600
H -9.396000 -4.214100 -13.888600
C -9.345300 -4.284800 -11.863200
C -9.206600 -2.827500 -8.455000
C -9.112800 -3.621900 -13.174100
C -9.038900 -1.903500 -7.452300
C -8.540200 -5.904800 -10.345800
H -8.523600 -2.968500 -9.071200
N -8.423300 -5.259400 -11.523600
N -8.363300 -7.164400 -8.638900
H -8.242900 -1.426800 -7.390200
H -8.163900 -3.451300 -13.285000
N -7.777200 -6.855600 -9.838300
H -7.748900 -5.393100 -11.984400
