33
Fragment
H -6.149200 -7.805700 -10.793200
N -6.121000 -6.343100 -12.939300
H -5.734200 -9.747400 -9.492600
H -5.655300 -11.771900 -15.387400
N -5.534800 -6.034300 -14.138700
N -5.474900 -7.939400 -11.253900
H -5.374500 -10.230300 -13.706400
C -5.358000 -7.294000 -12.431800
C -4.859300 -11.295300 -15.325300
C -4.785400 -9.576800 -9.603500
C -4.691500 -10.371200 -14.322500
C -4.552900 -8.913900 -10.914300
H -4.502200 -8.984700 -8.888900
N -4.482100 -6.755100 -14.352900
H -4.464600 -11.541800 -10.058600
N -4.355900 -7.558700 -13.262500
H -4.057000 -11.189800 -8.586000
C -4.031200 -10.875600 -9.502700
H -3.976200 -12.136100 -16.919200
C -3.858600 -11.517300 -16.235500
C -3.519800 -9.649900 -14.220800
C -3.519000 -9.193100 -11.731700
C -3.344300 -8.620900 -13.121200
C -2.687200 -10.822200 -16.129700
C -2.611200 -10.725700 -9.931500
C -2.514900 -9.887700 -15.135700
H -2.451000 -8.224000 -13.193900
C -2.438400 -10.057300 -11.263600
H -2.203000 -11.604100 -9.969700
H -2.136300 -10.209700 -9.261400
H -2.000200 -10.982000 -16.735800
H -1.716700 -9.414000 -15.079900
O -1.409600 -10.174900 -11.918300
14
Fragment
H -10.350200 -4.797400 -18.300600
H -10.179500 -5.008800 -16.754000
H -10.054200 -2.753300 -17.236900
C -9.724400 -4.726600 -17.562800
C -9.284100 -3.314800 -17.417900
H -8.881600 -3.015100 -18.247100
O -8.617800 -5.569700 -17.800300
O -8.349200 -3.186200 -16.366000
H -8.085400 -5.740800 -15.919200
C -7.682900 -5.441200 -16.748500
C -7.242600 -4.029300 -16.603600
H -6.912800 -6.002600 -16.929400
H -6.787500 -3.747100 -17.412300
H -6.616800 -3.958500 -15.865700
47
Fragment
H -6.149200 -7.805700 -10.793200
N -6.121000 -6.343100 -12.939300
H -5.734200 -9.747400 -9.492600
H -5.655300 -11.771900 -15.387400
N -5.534800 -6.034300 -14.138700
N -5.474900 -7.939400 -11.253900
H -5.374500 -10.230300 -13.706400
C -5.358000 -7.294000 -12.431800
C -4.859300 -11.295300 -15.325300
C -4.785400 -9.576800 -9.603500
C -4.691500 -10.371200 -14.322500
C -4.552900 -8.913900 -10.914300
H -4.502200 -8.984700 -8.888900
N -4.482100 -6.755100 -14.352900
H -4.464600 -11.541800 -10.058600
N -4.355900 -7.558700 -13.262500
H -4.057000 -11.189800 -8.586000
C -4.031200 -10.875600 -9.502700
H -3.976200 -12.136100 -16.919200
C -3.858600 -11.517300 -16.235500
C -3.519800 -9.649900 -14.220800
C -3.519000 -9.193100 -11.731700
C -3.344300 -8.620900 -13.121200
C -2.687200 -10.822200 -16.129700
C -2.611200 -10.725700 -9.931500
C -2.514900 -9.887700 -15.135700
H -2.451000 -8.224000 -13.193900
C -2.438400 -10.057300 -11.263600
H -2.203000 -11.604100 -9.969700
H -2.136300 -10.209700 -9.261400
H -2.000200 -10.982000 -16.735800
H -1.716700 -9.414000 -15.079900
O -1.409600 -10.174900 -11.918300
H -10.350200 -4.797400 -18.300600
H -10.179500 -5.008800 -16.754000
H -10.054200 -2.753300 -17.236900
C -9.724400 -4.726600 -17.562800
C -9.284100 -3.314800 -17.417900
H -8.881600 -3.015100 -18.247100
O -8.617800 -5.569700 -17.800300
O -8.349200 -3.186200 -16.366000
H -8.085400 -5.740800 -15.919200
C -7.682900 -5.441200 -16.748500
C -7.242600 -4.029300 -16.603600
H -6.912800 -6.002600 -16.929400
H -6.787500 -3.747100 -17.412300
H -6.616800 -3.958500 -15.865700
