33
Fragment
H -6.149200 -7.805700 -10.793200
N -6.121000 -6.343100 -12.939300
H -5.734200 -9.747400 -9.492600
H -5.655300 -11.771900 -15.387400
N -5.534800 -6.034300 -14.138700
N -5.474900 -7.939400 -11.253900
H -5.374500 -10.230300 -13.706400
C -5.358000 -7.294000 -12.431800
C -4.859300 -11.295300 -15.325300
C -4.785400 -9.576800 -9.603500
C -4.691500 -10.371200 -14.322500
C -4.552900 -8.913900 -10.914300
H -4.502200 -8.984700 -8.888900
N -4.482100 -6.755100 -14.352900
H -4.464600 -11.541800 -10.058600
N -4.355900 -7.558700 -13.262500
H -4.057000 -11.189800 -8.586000
C -4.031200 -10.875600 -9.502700
H -3.976200 -12.136100 -16.919200
C -3.858600 -11.517300 -16.235500
C -3.519800 -9.649900 -14.220800
C -3.519000 -9.193100 -11.731700
C -3.344300 -8.620900 -13.121200
C -2.687200 -10.822200 -16.129700
C -2.611200 -10.725700 -9.931500
C -2.514900 -9.887700 -15.135700
H -2.451000 -8.224000 -13.193900
C -2.438400 -10.057300 -11.263600
H -2.203000 -11.604100 -9.969700
H -2.136300 -10.209700 -9.261400
H -2.000200 -10.982000 -16.735800
H -1.716700 -9.414000 -15.079900
O -1.409600 -10.174900 -11.918300
33
Fragment
O -7.236600 -9.623200 -22.248100
H -6.929500 -10.384100 -19.086500
H -6.646000 -8.816100 -17.430500
H -6.509900 -9.588400 -24.905000
H -6.443300 -8.194100 -24.196600
C -6.207900 -9.740900 -22.902700
H -6.195200 -11.574100 -20.972500
C -6.131300 -9.910400 -19.030700
C -6.035100 -9.072400 -24.234900
C -5.959000 -8.975900 -18.036600
C -5.301900 -11.177200 -21.045100
C -5.127200 -10.605000 -22.434700
C -5.126500 -10.148200 -19.945500
C -4.787700 -8.280900 -17.930800
H -4.670000 -7.662000 -17.247200
C -4.615000 -8.922500 -24.663700
H -4.589200 -8.608300 -25.580400
N -4.290300 -12.239400 -20.903900
H -4.181600 -8.256300 -24.107800
N -4.164100 -13.043000 -19.813400
H -4.144000 -10.813500 -25.277400
C -4.093300 -10.884200 -23.252000
C -3.954700 -9.426900 -19.843800
C -3.860900 -10.221300 -24.562900
C -3.787000 -8.502800 -18.841000
C -3.288200 -12.504200 -21.734600
H -3.271700 -9.567800 -20.460000
N -3.171300 -11.858700 -22.912400
N -3.111400 -13.763800 -20.027600
H -2.990900 -8.026200 -18.779000
H -2.912000 -10.050700 -24.673800
N -2.525300 -13.455000 -21.227100
H -2.497000 -11.992500 -23.373200
66
Fragment
H -6.149200 -7.805700 -10.793200
N -6.121000 -6.343100 -12.939300
H -5.734200 -9.747400 -9.492600
H -5.655300 -11.771900 -15.387400
N -5.534800 -6.034300 -14.138700
N -5.474900 -7.939400 -11.253900
H -5.374500 -10.230300 -13.706400
C -5.358000 -7.294000 -12.431800
C -4.859300 -11.295300 -15.325300
C -4.785400 -9.576800 -9.603500
C -4.691500 -10.371200 -14.322500
C -4.552900 -8.913900 -10.914300
H -4.502200 -8.984700 -8.888900
N -4.482100 -6.755100 -14.352900
H -4.464600 -11.541800 -10.058600
N -4.355900 -7.558700 -13.262500
H -4.057000 -11.189800 -8.586000
C -4.031200 -10.875600 -9.502700
H -3.976200 -12.136100 -16.919200
C -3.858600 -11.517300 -16.235500
C -3.519800 -9.649900 -14.220800
C -3.519000 -9.193100 -11.731700
C -3.344300 -8.620900 -13.121200
C -2.687200 -10.822200 -16.129700
C -2.611200 -10.725700 -9.931500
C -2.514900 -9.887700 -15.135700
H -2.451000 -8.224000 -13.193900
C -2.438400 -10.057300 -11.263600
H -2.203000 -11.604100 -9.969700
H -2.136300 -10.209700 -9.261400
H -2.000200 -10.982000 -16.735800
H -1.716700 -9.414000 -15.079900
O -1.409600 -10.174900 -11.918300
O -7.236600 -9.623200 -22.248100
H -6.929500 -10.384100 -19.086500
H -6.646000 -8.816100 -17.430500
H -6.509900 -9.588400 -24.905000
H -6.443300 -8.194100 -24.196600
C -6.207900 -9.740900 -22.902700
H -6.195200 -11.574100 -20.972500
C -6.131300 -9.910400 -19.030700
C -6.035100 -9.072400 -24.234900
C -5.959000 -8.975900 -18.036600
C -5.301900 -11.177200 -21.045100
C -5.127200 -10.605000 -22.434700
C -5.126500 -10.148200 -19.945500
C -4.787700 -8.280900 -17.930800
H -4.670000 -7.662000 -17.247200
C -4.615000 -8.922500 -24.663700
H -4.589200 -8.608300 -25.580400
N -4.290300 -12.239400 -20.903900
H -4.181600 -8.256300 -24.107800
N -4.164100 -13.043000 -19.813400
H -4.144000 -10.813500 -25.277400
C -4.093300 -10.884200 -23.252000
C -3.954700 -9.426900 -19.843800
C -3.860900 -10.221300 -24.562900
C -3.787000 -8.502800 -18.841000
C -3.288200 -12.504200 -21.734600
H -3.271700 -9.567800 -20.460000
N -3.171300 -11.858700 -22.912400
N -3.111400 -13.763800 -20.027600
H -2.990900 -8.026200 -18.779000
H -2.912000 -10.050700 -24.673800
N -2.525300 -13.455000 -21.227100
H -2.497000 -11.992500 -23.373200
