34
Fragment
H -19.060100 -18.531600 -18.001300
H -18.583100 -16.314700 -18.792700
C -18.188200 -18.049600 -17.804100
C -17.910800 -16.796700 -18.236200
N -17.239800 -19.956300 -16.524000
C -17.214100 -18.735800 -17.049100
C -16.668500 -16.170300 -17.939800
H -16.454700 -15.256100 -18.265100
H -16.335300 -18.494200 -11.205300
C -16.015600 -20.102000 -15.921100
N -16.006800 -18.104400 -16.780300
H -15.789500 -20.698500 -15.426100
C -15.729300 -16.817900 -17.214900
C -15.583000 -19.067100 -11.560800
H -15.477700 -18.145500 -13.428800
H -15.387300 -20.212800 -9.810900
C -15.236800 -18.999800 -16.059200
C -15.112000 -18.836700 -12.809500
H -15.006500 -16.414400 -16.996400
C -14.995100 -20.062100 -10.744300
N -14.062200 -19.600100 -13.271700
C -13.926900 -20.788200 -11.183900
C -13.832000 -18.682200 -15.615800
H -13.827800 -17.709600 -15.262800
H -13.466100 -21.483200 -10.627400
C -13.441400 -20.566500 -12.482800
C -13.425700 -19.601400 -14.501500
H -13.084500 -18.108100 -17.524000
C -12.842200 -18.762000 -16.787800
H -12.815600 -19.714700 -17.222500
C -12.450100 -20.555300 -14.391000
N -12.447600 -21.145600 -13.148600
H -11.909600 -18.531600 -16.481300
H -11.757000 -20.810600 -15.124600
34
Fragment
H -18.688000 -12.603400 -24.282300
H -18.211000 -14.820300 -25.073700
C -17.816200 -13.085400 -24.085100
C -17.538800 -14.338300 -24.517200
N -16.867700 -11.178700 -22.805000
C -16.842000 -12.399200 -23.330100
C -16.296400 -14.964700 -24.220800
H -16.082700 -15.878900 -24.546100
H -15.963200 -12.640800 -17.486300
C -15.643500 -11.033000 -22.202000
N -15.634800 -13.030600 -23.061300
H -15.417500 -10.436500 -21.707100
C -15.357200 -14.317100 -23.495900
C -15.210900 -12.067900 -17.841800
H -15.105700 -12.989500 -19.709700
H -15.015300 -10.922200 -16.091900
C -14.864700 -12.135200 -22.340200
C -14.740000 -12.298300 -19.090400
H -14.634500 -14.720600 -23.277300
C -14.623100 -11.072900 -17.025300
N -13.690200 -11.534900 -19.552700
C -13.554900 -10.346800 -17.464900
C -13.459900 -12.452800 -21.896800
H -13.455700 -13.425400 -21.543800
H -13.094100 -9.651900 -16.908400
C -13.069300 -10.568500 -18.763800
C -13.053700 -11.533600 -20.782500
H -12.712400 -13.026900 -23.805000
C -12.470200 -12.373000 -23.068800
H -12.443500 -11.420300 -23.503500
C -12.078100 -10.579700 -20.672000
N -12.075500 -9.989400 -19.429600
H -11.537600 -12.603400 -22.762300
H -11.385000 -10.324400 -21.405600
68
Fragment
H -19.060100 -18.531600 -18.001300
H -18.583100 -16.314700 -18.792700
C -18.188200 -18.049600 -17.804100
C -17.910800 -16.796700 -18.236200
N -17.239800 -19.956300 -16.524000
C -17.214100 -18.735800 -17.049100
C -16.668500 -16.170300 -17.939800
H -16.454700 -15.256100 -18.265100
H -16.335300 -18.494200 -11.205300
C -16.015600 -20.102000 -15.921100
N -16.006800 -18.104400 -16.780300
H -15.789500 -20.698500 -15.426100
C -15.729300 -16.817900 -17.214900
C -15.583000 -19.067100 -11.560800
H -15.477700 -18.145500 -13.428800
H -15.387300 -20.212800 -9.810900
C -15.236800 -18.999800 -16.059200
C -15.112000 -18.836700 -12.809500
H -15.006500 -16.414400 -16.996400
C -14.995100 -20.062100 -10.744300
N -14.062200 -19.600100 -13.271700
C -13.926900 -20.788200 -11.183900
C -13.832000 -18.682200 -15.615800
H -13.827800 -17.709600 -15.262800
H -13.466100 -21.483200 -10.627400
C -13.441400 -20.566500 -12.482800
C -13.425700 -19.601400 -14.501500
H -13.084500 -18.108100 -17.524000
C -12.842200 -18.762000 -16.787800
H -12.815600 -19.714700 -17.222500
C -12.450100 -20.555300 -14.391000
N -12.447600 -21.145600 -13.148600
H -11.909600 -18.531600 -16.481300
H -11.757000 -20.810600 -15.124600
H -18.688000 -12.603400 -24.282300
H -18.211000 -14.820300 -25.073700
C -17.816200 -13.085400 -24.085100
C -17.538800 -14.338300 -24.517200
N -16.867700 -11.178700 -22.805000
C -16.842000 -12.399200 -23.330100
C -16.296400 -14.964700 -24.220800
H -16.082700 -15.878900 -24.546100
H -15.963200 -12.640800 -17.486300
C -15.643500 -11.033000 -22.202000
N -15.634800 -13.030600 -23.061300
H -15.417500 -10.436500 -21.707100
C -15.357200 -14.317100 -23.495900
C -15.210900 -12.067900 -17.841800
H -15.105700 -12.989500 -19.709700
H -15.015300 -10.922200 -16.091900
C -14.864700 -12.135200 -22.340200
C -14.740000 -12.298300 -19.090400
H -14.634500 -14.720600 -23.277300
C -14.623100 -11.072900 -17.025300
N -13.690200 -11.534900 -19.552700
C -13.554900 -10.346800 -17.464900
C -13.459900 -12.452800 -21.896800
H -13.455700 -13.425400 -21.543800
H -13.094100 -9.651900 -16.908400
C -13.069300 -10.568500 -18.763800
C -13.053700 -11.533600 -20.782500
H -12.712400 -13.026900 -23.805000
C -12.470200 -12.373000 -23.068800
H -12.443500 -11.420300 -23.503500
C -12.078100 -10.579700 -20.672000
N -12.075500 -9.989400 -19.429600
H -11.537600 -12.603400 -22.762300
H -11.385000 -10.324400 -21.405600
