16
Fragment
N -26.621700 -11.347400 -8.578700
C -25.532600 -11.243000 -8.316700
H -24.368100 -9.140300 -7.247400
C -24.144400 -11.052600 -7.948600
N -23.952600 -14.341400 -9.160300
C -23.738700 -9.854700 -7.387500
C -23.636500 -13.344600 -8.708900
C -23.221000 -12.091500 -8.137200
C -22.410800 -9.688500 -7.008800
C -21.995300 -8.435400 -6.437000
C -21.893100 -11.925300 -7.758500
N -21.679200 -7.438600 -5.985700
C -21.487300 -10.727400 -7.197400
H -21.263700 -12.639700 -7.898600
C -20.099100 -10.537000 -6.829300
N -19.010100 -10.432600 -6.567300
20
Fragment
H -26.728500 -2.795100 -4.877000
H -26.332500 -5.096500 -5.399500
C -25.832500 -3.211100 -4.682400
C -25.614700 -4.535300 -4.989800
H -25.010100 -1.452000 -3.892500
C -24.836400 -2.395800 -4.110600
C -24.373300 -5.164000 -4.748300
H -24.233200 -6.069400 -4.952700
C -23.628500 -3.012900 -3.882700
C -23.410900 -4.373400 -4.195400
C -22.227500 -2.886600 -3.377600
C -22.009800 -4.247100 -3.690300
H -21.405200 -1.190600 -2.620300
C -21.265100 -2.096000 -2.824700
C -20.802000 -4.864200 -3.462400
H -20.628300 -5.808000 -3.680500
C -20.023700 -2.724700 -2.583100
C -19.805900 -4.048900 -2.890600
H -19.305900 -2.163500 -2.173500
H -18.909900 -4.464900 -2.696000
36
Fragment
N -26.621700 -11.347400 -8.578700
C -25.532600 -11.243000 -8.316700
H -24.368100 -9.140300 -7.247400
C -24.144400 -11.052600 -7.948600
N -23.952600 -14.341400 -9.160300
C -23.738700 -9.854700 -7.387500
C -23.636500 -13.344600 -8.708900
C -23.221000 -12.091500 -8.137200
C -22.410800 -9.688500 -7.008800
C -21.995300 -8.435400 -6.437000
C -21.893100 -11.925300 -7.758500
N -21.679200 -7.438600 -5.985700
C -21.487300 -10.727400 -7.197400
H -21.263700 -12.639700 -7.898600
C -20.099100 -10.537000 -6.829300
N -19.010100 -10.432600 -6.567300
H -26.728500 -2.795100 -4.877000
H -26.332500 -5.096500 -5.399500
C -25.832500 -3.211100 -4.682400
C -25.614700 -4.535300 -4.989800
H -25.010100 -1.452000 -3.892500
C -24.836400 -2.395800 -4.110600
C -24.373300 -5.164000 -4.748300
H -24.233200 -6.069400 -4.952700
C -23.628500 -3.012900 -3.882700
C -23.410900 -4.373400 -4.195400
C -22.227500 -2.886600 -3.377600
C -22.009800 -4.247100 -3.690300
H -21.405200 -1.190600 -2.620300
C -21.265100 -2.096000 -2.824700
C -20.802000 -4.864200 -3.462400
H -20.628300 -5.808000 -3.680500
C -20.023700 -2.724700 -2.583100
C -19.805900 -4.048900 -2.890600
H -19.305900 -2.163500 -2.173500
H -18.909900 -4.464900 -2.696000
