16
Fragment
N -26.621700 -11.347400 -8.578700
C -25.532600 -11.243000 -8.316700
H -24.368100 -9.140300 -7.247400
C -24.144400 -11.052600 -7.948600
N -23.952600 -14.341400 -9.160300
C -23.738700 -9.854700 -7.387500
C -23.636500 -13.344600 -8.708900
C -23.221000 -12.091500 -8.137200
C -22.410800 -9.688500 -7.008800
C -21.995300 -8.435400 -6.437000
C -21.893100 -11.925300 -7.758500
N -21.679200 -7.438600 -5.985700
C -21.487300 -10.727400 -7.197400
H -21.263700 -12.639700 -7.898600
C -20.099100 -10.537000 -6.829300
N -19.010100 -10.432600 -6.567300
20
Fragment
H -26.721900 -10.055100 -12.450000
H -26.325800 -12.356500 -12.972500
C -25.825900 -10.471100 -12.255400
C -25.608100 -11.795300 -12.562800
H -25.003500 -8.712000 -11.465500
C -24.829800 -9.655800 -11.683600
C -24.366700 -12.424000 -12.321300
H -24.226600 -13.329400 -12.525700
C -23.621900 -10.272900 -11.455700
C -23.404200 -11.633400 -11.768400
C -22.220900 -10.146600 -10.950600
C -22.003200 -11.507100 -11.263300
H -21.398600 -8.450600 -10.193300
C -21.258500 -9.356000 -10.397700
C -20.795400 -12.124200 -11.035400
H -20.621700 -13.068000 -11.253500
C -20.017100 -9.984700 -10.156100
C -19.799300 -11.308900 -10.463600
H -19.299300 -9.423500 -9.746400
H -18.903300 -11.724900 -10.269000
36
Fragment
N -26.621700 -11.347400 -8.578700
C -25.532600 -11.243000 -8.316700
H -24.368100 -9.140300 -7.247400
C -24.144400 -11.052600 -7.948600
N -23.952600 -14.341400 -9.160300
C -23.738700 -9.854700 -7.387500
C -23.636500 -13.344600 -8.708900
C -23.221000 -12.091500 -8.137200
C -22.410800 -9.688500 -7.008800
C -21.995300 -8.435400 -6.437000
C -21.893100 -11.925300 -7.758500
N -21.679200 -7.438600 -5.985700
C -21.487300 -10.727400 -7.197400
H -21.263700 -12.639700 -7.898600
C -20.099100 -10.537000 -6.829300
N -19.010100 -10.432600 -6.567300
H -26.721900 -10.055100 -12.450000
H -26.325800 -12.356500 -12.972500
C -25.825900 -10.471100 -12.255400
C -25.608100 -11.795300 -12.562800
H -25.003500 -8.712000 -11.465500
C -24.829800 -9.655800 -11.683600
C -24.366700 -12.424000 -12.321300
H -24.226600 -13.329400 -12.525700
C -23.621900 -10.272900 -11.455700
C -23.404200 -11.633400 -11.768400
C -22.220900 -10.146600 -10.950600
C -22.003200 -11.507100 -11.263300
H -21.398600 -8.450600 -10.193300
C -21.258500 -9.356000 -10.397700
C -20.795400 -12.124200 -11.035400
H -20.621700 -13.068000 -11.253500
C -20.017100 -9.984700 -10.156100
C -19.799300 -11.308900 -10.463600
H -19.299300 -9.423500 -9.746400
H -18.903300 -11.724900 -10.269000
