16
Fragment
N -26.621700 -11.347400 -8.578700
C -25.532600 -11.243000 -8.316700
H -24.368100 -9.140300 -7.247400
C -24.144400 -11.052600 -7.948600
N -23.952600 -14.341400 -9.160300
C -23.738700 -9.854700 -7.387500
C -23.636500 -13.344600 -8.708900
C -23.221000 -12.091500 -8.137200
C -22.410800 -9.688500 -7.008800
C -21.995300 -8.435400 -6.437000
C -21.893100 -11.925300 -7.758500
N -21.679200 -7.438600 -5.985700
C -21.487300 -10.727400 -7.197400
H -21.263700 -12.639700 -7.898600
C -20.099100 -10.537000 -6.829300
N -19.010100 -10.432600 -6.567300
20
Fragment
H -34.329400 -8.094900 -12.450000
H -33.933300 -5.793500 -12.972500
C -33.433400 -7.678900 -12.255400
C -33.215600 -6.354700 -12.562800
H -32.611000 -9.438000 -11.465500
C -32.437300 -8.494200 -11.683600
C -31.974200 -5.726000 -12.321300
H -31.834100 -4.820600 -12.525700
C -31.229400 -7.877100 -11.455700
C -31.011700 -6.516600 -11.768400
C -29.828400 -8.003400 -10.950600
C -29.610700 -6.642900 -11.263300
H -29.006100 -9.699400 -10.193300
C -28.866000 -8.794000 -10.397700
C -28.402900 -6.025800 -11.035400
H -28.229200 -5.082000 -11.253500
C -27.624600 -8.165300 -10.156100
C -27.406800 -6.841100 -10.463600
H -26.906800 -8.726500 -9.746400
H -26.510800 -6.425100 -10.269000
36
Fragment
N -26.621700 -11.347400 -8.578700
C -25.532600 -11.243000 -8.316700
H -24.368100 -9.140300 -7.247400
C -24.144400 -11.052600 -7.948600
N -23.952600 -14.341400 -9.160300
C -23.738700 -9.854700 -7.387500
C -23.636500 -13.344600 -8.708900
C -23.221000 -12.091500 -8.137200
C -22.410800 -9.688500 -7.008800
C -21.995300 -8.435400 -6.437000
C -21.893100 -11.925300 -7.758500
N -21.679200 -7.438600 -5.985700
C -21.487300 -10.727400 -7.197400
H -21.263700 -12.639700 -7.898600
C -20.099100 -10.537000 -6.829300
N -19.010100 -10.432600 -6.567300
H -34.329400 -8.094900 -12.450000
H -33.933300 -5.793500 -12.972500
C -33.433400 -7.678900 -12.255400
C -33.215600 -6.354700 -12.562800
H -32.611000 -9.438000 -11.465500
C -32.437300 -8.494200 -11.683600
C -31.974200 -5.726000 -12.321300
H -31.834100 -4.820600 -12.525700
C -31.229400 -7.877100 -11.455700
C -31.011700 -6.516600 -11.768400
C -29.828400 -8.003400 -10.950600
C -29.610700 -6.642900 -11.263300
H -29.006100 -9.699400 -10.193300
C -28.866000 -8.794000 -10.397700
C -28.402900 -6.025800 -11.035400
H -28.229200 -5.082000 -11.253500
C -27.624600 -8.165300 -10.156100
C -27.406800 -6.841100 -10.463600
H -26.906800 -8.726500 -9.746400
H -26.510800 -6.425100 -10.269000
