16
Fragment
N -26.621700 -11.347400 -8.578700
C -25.532600 -11.243000 -8.316700
H -24.368100 -9.140300 -7.247400
C -24.144400 -11.052600 -7.948600
N -23.952600 -14.341400 -9.160300
C -23.738700 -9.854700 -7.387500
C -23.636500 -13.344600 -8.708900
C -23.221000 -12.091500 -8.137200
C -22.410800 -9.688500 -7.008800
C -21.995300 -8.435400 -6.437000
C -21.893100 -11.925300 -7.758500
N -21.679200 -7.438600 -5.985700
C -21.487300 -10.727400 -7.197400
H -21.263700 -12.639700 -7.898600
C -20.099100 -10.537000 -6.829300
N -19.010100 -10.432600 -6.567300
20
Fragment
H -34.329400 -15.354900 -12.450000
H -33.933300 -13.053500 -12.972500
C -33.433400 -14.938900 -12.255400
C -33.215600 -13.614700 -12.562800
H -32.611000 -16.698000 -11.465500
C -32.437300 -15.754200 -11.683600
C -31.974200 -12.986000 -12.321300
H -31.834100 -12.080600 -12.525700
C -31.229400 -15.137100 -11.455700
C -31.011700 -13.776600 -11.768400
C -29.828400 -15.263400 -10.950600
C -29.610700 -13.902900 -11.263300
H -29.006100 -16.959400 -10.193300
C -28.866000 -16.054000 -10.397700
C -28.402900 -13.285800 -11.035400
H -28.229200 -12.342000 -11.253500
C -27.624600 -15.425300 -10.156100
C -27.406800 -14.101100 -10.463600
H -26.906800 -15.986500 -9.746400
H -26.510800 -13.685100 -10.269000
36
Fragment
N -26.621700 -11.347400 -8.578700
C -25.532600 -11.243000 -8.316700
H -24.368100 -9.140300 -7.247400
C -24.144400 -11.052600 -7.948600
N -23.952600 -14.341400 -9.160300
C -23.738700 -9.854700 -7.387500
C -23.636500 -13.344600 -8.708900
C -23.221000 -12.091500 -8.137200
C -22.410800 -9.688500 -7.008800
C -21.995300 -8.435400 -6.437000
C -21.893100 -11.925300 -7.758500
N -21.679200 -7.438600 -5.985700
C -21.487300 -10.727400 -7.197400
H -21.263700 -12.639700 -7.898600
C -20.099100 -10.537000 -6.829300
N -19.010100 -10.432600 -6.567300
H -34.329400 -15.354900 -12.450000
H -33.933300 -13.053500 -12.972500
C -33.433400 -14.938900 -12.255400
C -33.215600 -13.614700 -12.562800
H -32.611000 -16.698000 -11.465500
C -32.437300 -15.754200 -11.683600
C -31.974200 -12.986000 -12.321300
H -31.834100 -12.080600 -12.525700
C -31.229400 -15.137100 -11.455700
C -31.011700 -13.776600 -11.768400
C -29.828400 -15.263400 -10.950600
C -29.610700 -13.902900 -11.263300
H -29.006100 -16.959400 -10.193300
C -28.866000 -16.054000 -10.397700
C -28.402900 -13.285800 -11.035400
H -28.229200 -12.342000 -11.253500
C -27.624600 -15.425300 -10.156100
C -27.406800 -14.101100 -10.463600
H -26.906800 -15.986500 -9.746400
H -26.510800 -13.685100 -10.269000
