24
Fragment
H -7.553300 -20.843300 -25.798500
H -7.309200 -22.867900 -24.743700
C -6.780800 -21.343900 -25.934200
C -6.640200 -22.554300 -25.309400
H -5.891600 -20.040100 -27.196000
C -5.789900 -20.857600 -26.763000
C -5.509800 -23.306800 -25.518300
H -5.426500 -24.138500 -25.111400
C -4.647500 -21.605600 -26.936000
C -4.498100 -22.835300 -26.327100
H -4.251000 -22.790300 -29.702500
H -3.727300 -23.338400 -26.460500
N -3.575000 -21.068900 -27.722100
C -3.327100 -22.858400 -29.450300
H -3.210800 -23.604600 -28.856700
N -3.038300 -19.872000 -27.356600
C -2.908100 -21.609400 -28.762800
H -2.790200 -22.986700 -30.234800
N -2.038600 -19.650100 -28.158300
C -1.922300 -20.698800 -29.024500
C -0.811600 -20.791800 -29.988400
O -0.623800 -21.750900 -30.684400
O -0.041200 -19.733600 -29.967800
H 0.579400 -19.837400 -30.492200
24
Fragment
H -14.295200 -20.843300 -25.798500
H -14.051100 -22.867900 -24.743700
C -13.522700 -21.343900 -25.934200
C -13.382100 -22.554300 -25.309400
H -12.633500 -20.040100 -27.196000
C -12.531800 -20.857600 -26.763000
C -12.251700 -23.306800 -25.518300
H -12.168400 -24.138500 -25.111400
C -11.389400 -21.605600 -26.936000
C -11.240000 -22.835300 -26.327100
H -10.992900 -22.790300 -29.702500
H -10.469200 -23.338400 -26.460500
N -10.316900 -21.068900 -27.722100
C -10.069000 -22.858400 -29.450300
H -9.952700 -23.604600 -28.856700
N -9.780200 -19.872000 -27.356600
C -9.650000 -21.609400 -28.762800
H -9.532100 -22.986700 -30.234800
N -8.780500 -19.650100 -28.158300
C -8.664200 -20.698800 -29.024500
C -7.553500 -20.791800 -29.988400
O -7.365700 -21.750900 -30.684400
O -6.783100 -19.733600 -29.967800
H -6.162500 -19.837400 -30.492200
48
Fragment
H -7.553300 -20.843300 -25.798500
H -7.309200 -22.867900 -24.743700
C -6.780800 -21.343900 -25.934200
C -6.640200 -22.554300 -25.309400
H -5.891600 -20.040100 -27.196000
C -5.789900 -20.857600 -26.763000
C -5.509800 -23.306800 -25.518300
H -5.426500 -24.138500 -25.111400
C -4.647500 -21.605600 -26.936000
C -4.498100 -22.835300 -26.327100
H -4.251000 -22.790300 -29.702500
H -3.727300 -23.338400 -26.460500
N -3.575000 -21.068900 -27.722100
C -3.327100 -22.858400 -29.450300
H -3.210800 -23.604600 -28.856700
N -3.038300 -19.872000 -27.356600
C -2.908100 -21.609400 -28.762800
H -2.790200 -22.986700 -30.234800
N -2.038600 -19.650100 -28.158300
C -1.922300 -20.698800 -29.024500
C -0.811600 -20.791800 -29.988400
O -0.623800 -21.750900 -30.684400
O -0.041200 -19.733600 -29.967800
H 0.579400 -19.837400 -30.492200
H -14.295200 -20.843300 -25.798500
H -14.051100 -22.867900 -24.743700
C -13.522700 -21.343900 -25.934200
C -13.382100 -22.554300 -25.309400
H -12.633500 -20.040100 -27.196000
C -12.531800 -20.857600 -26.763000
C -12.251700 -23.306800 -25.518300
H -12.168400 -24.138500 -25.111400
C -11.389400 -21.605600 -26.936000
C -11.240000 -22.835300 -26.327100
H -10.992900 -22.790300 -29.702500
H -10.469200 -23.338400 -26.460500
N -10.316900 -21.068900 -27.722100
C -10.069000 -22.858400 -29.450300
H -9.952700 -23.604600 -28.856700
N -9.780200 -19.872000 -27.356600
C -9.650000 -21.609400 -28.762800
H -9.532100 -22.986700 -30.234800
N -8.780500 -19.650100 -28.158300
C -8.664200 -20.698800 -29.024500
C -7.553500 -20.791800 -29.988400
O -7.365700 -21.750900 -30.684400
O -6.783100 -19.733600 -29.967800
H -6.162500 -19.837400 -30.492200
