24
Fragment
H -7.553300 -20.843300 -25.798500
H -7.309200 -22.867900 -24.743700
C -6.780800 -21.343900 -25.934200
C -6.640200 -22.554300 -25.309400
H -5.891600 -20.040100 -27.196000
C -5.789900 -20.857600 -26.763000
C -5.509800 -23.306800 -25.518300
H -5.426500 -24.138500 -25.111400
C -4.647500 -21.605600 -26.936000
C -4.498100 -22.835300 -26.327100
H -4.251000 -22.790300 -29.702500
H -3.727300 -23.338400 -26.460500
N -3.575000 -21.068900 -27.722100
C -3.327100 -22.858400 -29.450300
H -3.210800 -23.604600 -28.856700
N -3.038300 -19.872000 -27.356600
C -2.908100 -21.609400 -28.762800
H -2.790200 -22.986700 -30.234800
N -2.038600 -19.650100 -28.158300
C -1.922300 -20.698800 -29.024500
C -0.811600 -20.791800 -29.988400
O -0.623800 -21.750900 -30.684400
O -0.041200 -19.733600 -29.967800
H 0.579400 -19.837400 -30.492200
24
Fragment
H -10.754600 -27.688600 -27.573400
O -10.133900 -27.792400 -28.097700
O -9.551400 -25.775100 -27.381200
C -9.363500 -26.734200 -28.077200
C -8.252800 -26.827200 -29.041100
N -8.136600 -27.875900 -29.907300
H -7.384900 -24.539300 -27.830800
C -7.267000 -25.916600 -29.302800
N -7.136900 -27.654000 -30.709000
H -6.964400 -23.921400 -29.208900
C -6.848000 -24.667600 -28.615300
N -6.600100 -26.457100 -30.343500
H -6.447800 -24.187600 -31.605100
H -5.924200 -24.735700 -28.363100
C -5.677100 -24.690700 -31.738500
C -5.527600 -25.920400 -31.129500
H -4.748600 -23.387500 -32.954200
C -4.665300 -24.219200 -32.547300
C -4.385200 -26.668400 -31.302600
H -4.283600 -27.485900 -30.869600
C -3.535000 -24.971700 -32.756200
C -3.394300 -26.182100 -32.131400
H -2.866000 -24.658100 -33.321900
H -2.621800 -26.682700 -32.267100
48
Fragment
H -7.553300 -20.843300 -25.798500
H -7.309200 -22.867900 -24.743700
C -6.780800 -21.343900 -25.934200
C -6.640200 -22.554300 -25.309400
H -5.891600 -20.040100 -27.196000
C -5.789900 -20.857600 -26.763000
C -5.509800 -23.306800 -25.518300
H -5.426500 -24.138500 -25.111400
C -4.647500 -21.605600 -26.936000
C -4.498100 -22.835300 -26.327100
H -4.251000 -22.790300 -29.702500
H -3.727300 -23.338400 -26.460500
N -3.575000 -21.068900 -27.722100
C -3.327100 -22.858400 -29.450300
H -3.210800 -23.604600 -28.856700
N -3.038300 -19.872000 -27.356600
C -2.908100 -21.609400 -28.762800
H -2.790200 -22.986700 -30.234800
N -2.038600 -19.650100 -28.158300
C -1.922300 -20.698800 -29.024500
C -0.811600 -20.791800 -29.988400
O -0.623800 -21.750900 -30.684400
O -0.041200 -19.733600 -29.967800
H 0.579400 -19.837400 -30.492200
H -10.754600 -27.688600 -27.573400
O -10.133900 -27.792400 -28.097700
O -9.551400 -25.775100 -27.381200
C -9.363500 -26.734200 -28.077200
C -8.252800 -26.827200 -29.041100
N -8.136600 -27.875900 -29.907300
H -7.384900 -24.539300 -27.830800
C -7.267000 -25.916600 -29.302800
N -7.136900 -27.654000 -30.709000
H -6.964400 -23.921400 -29.208900
C -6.848000 -24.667600 -28.615300
N -6.600100 -26.457100 -30.343500
H -6.447800 -24.187600 -31.605100
H -5.924200 -24.735700 -28.363100
C -5.677100 -24.690700 -31.738500
C -5.527600 -25.920400 -31.129500
H -4.748600 -23.387500 -32.954200
C -4.665300 -24.219200 -32.547300
C -4.385200 -26.668400 -31.302600
H -4.283600 -27.485900 -30.869600
C -3.535000 -24.971700 -32.756200
C -3.394300 -26.182100 -32.131400
H -2.866000 -24.658100 -33.321900
H -2.621800 -26.682700 -32.267100
