17
Fragment
O -8.291800 -8.752600 -25.953700
H -8.185800 -7.844300 -23.723900
H -7.947600 -7.201500 -28.355300
C -7.689900 -7.727600 -25.644400
N -7.668700 -7.289300 -24.327900
O -7.164300 -5.881500 -22.619400
C -7.069600 -6.162200 -23.804800
N -7.011900 -6.986800 -26.572300
C -7.001600 -7.415000 -27.976300
H -6.823800 -8.463600 -28.047600
H -6.428800 -6.835800 -28.501000
C -6.362100 -5.425000 -24.823400
C -6.358200 -5.854900 -26.148100
N -5.635800 -5.010900 -26.881600
N -5.627700 -4.301400 -24.731100
N -5.235300 -4.111500 -25.966700
H -4.700900 -3.361900 -26.250100
17
Fragment
H -11.725100 -6.310900 -30.428100
N -11.190600 -7.060500 -30.711500
N -10.798200 -7.250400 -31.947000
N -10.790100 -7.959900 -29.796500
C -10.067700 -8.803900 -30.530100
C -10.063800 -8.374000 -31.854700
H -9.997100 -9.784800 -28.177100
H -9.602100 -11.412600 -28.630600
C -9.424400 -10.364000 -28.701800
N -9.414000 -9.935800 -30.105800
C -9.356300 -9.111200 -32.873300
O -9.261700 -8.830500 -34.058700
N -8.757200 -10.238300 -32.350300
C -8.736000 -10.676600 -31.033700
H -8.478300 -10.150500 -28.322900
H -8.240200 -10.793300 -32.954300
O -8.134100 -11.701600 -30.724400
34
Fragment
O -8.291800 -8.752600 -25.953700
H -8.185800 -7.844300 -23.723900
H -7.947600 -7.201500 -28.355300
C -7.689900 -7.727600 -25.644400
N -7.668700 -7.289300 -24.327900
O -7.164300 -5.881500 -22.619400
C -7.069600 -6.162200 -23.804800
N -7.011900 -6.986800 -26.572300
C -7.001600 -7.415000 -27.976300
H -6.823800 -8.463600 -28.047600
H -6.428800 -6.835800 -28.501000
C -6.362100 -5.425000 -24.823400
C -6.358200 -5.854900 -26.148100
N -5.635800 -5.010900 -26.881600
N -5.627700 -4.301400 -24.731100
N -5.235300 -4.111500 -25.966700
H -4.700900 -3.361900 -26.250100
H -11.725100 -6.310900 -30.428100
N -11.190600 -7.060500 -30.711500
N -10.798200 -7.250400 -31.947000
N -10.790100 -7.959900 -29.796500
C -10.067700 -8.803900 -30.530100
C -10.063800 -8.374000 -31.854700
H -9.997100 -9.784800 -28.177100
H -9.602100 -11.412600 -28.630600
C -9.424400 -10.364000 -28.701800
N -9.414000 -9.935800 -30.105800
C -9.356300 -9.111200 -32.873300
O -9.261700 -8.830500 -34.058700
N -8.757200 -10.238300 -32.350300
C -8.736000 -10.676600 -31.033700
H -8.478300 -10.150500 -28.322900
H -8.240200 -10.793300 -32.954300
O -8.134100 -11.701600 -30.724400
