17
Fragment
O -8.291800 -8.752600 -25.953700
H -8.185800 -7.844300 -23.723900
H -7.947600 -7.201500 -28.355300
C -7.689900 -7.727600 -25.644400
N -7.668700 -7.289300 -24.327900
O -7.164300 -5.881500 -22.619400
C -7.069600 -6.162200 -23.804800
N -7.011900 -6.986800 -26.572300
C -7.001600 -7.415000 -27.976300
H -6.823800 -8.463600 -28.047600
H -6.428800 -6.835800 -28.501000
C -6.362100 -5.425000 -24.823400
C -6.358200 -5.854900 -26.148100
N -5.635800 -5.010900 -26.881600
N -5.627700 -4.301400 -24.731100
N -5.235300 -4.111500 -25.966700
H -4.700900 -3.361900 -26.250100
17
Fragment
O -7.220100 -5.992400 -34.050600
H -7.114000 -6.900700 -31.820700
H -6.875900 -7.543500 -36.452200
C -6.618200 -7.017400 -33.741300
N -6.597000 -7.455700 -32.424800
O -6.092500 -8.863500 -30.716300
C -5.997800 -8.582800 -31.901700
N -5.940200 -7.758200 -34.669200
C -5.929800 -7.330000 -36.073200
H -5.752100 -6.281400 -36.144500
H -5.357100 -7.909200 -36.597900
C -5.290300 -9.320000 -32.920300
C -5.286500 -8.890100 -34.244900
N -4.564100 -9.734100 -34.978500
N -4.556000 -10.443600 -32.828000
N -4.163600 -10.633500 -34.063600
H -3.629100 -11.383100 -34.347000
34
Fragment
O -8.291800 -8.752600 -25.953700
H -8.185800 -7.844300 -23.723900
H -7.947600 -7.201500 -28.355300
C -7.689900 -7.727600 -25.644400
N -7.668700 -7.289300 -24.327900
O -7.164300 -5.881500 -22.619400
C -7.069600 -6.162200 -23.804800
N -7.011900 -6.986800 -26.572300
C -7.001600 -7.415000 -27.976300
H -6.823800 -8.463600 -28.047600
H -6.428800 -6.835800 -28.501000
C -6.362100 -5.425000 -24.823400
C -6.358200 -5.854900 -26.148100
N -5.635800 -5.010900 -26.881600
N -5.627700 -4.301400 -24.731100
N -5.235300 -4.111500 -25.966700
H -4.700900 -3.361900 -26.250100
O -7.220100 -5.992400 -34.050600
H -7.114000 -6.900700 -31.820700
H -6.875900 -7.543500 -36.452200
C -6.618200 -7.017400 -33.741300
N -6.597000 -7.455700 -32.424800
O -6.092500 -8.863500 -30.716300
C -5.997800 -8.582800 -31.901700
N -5.940200 -7.758200 -34.669200
C -5.929800 -7.330000 -36.073200
H -5.752100 -6.281400 -36.144500
H -5.357100 -7.909200 -36.597900
C -5.290300 -9.320000 -32.920300
C -5.286500 -8.890100 -34.244900
N -4.564100 -9.734100 -34.978500
N -4.556000 -10.443600 -32.828000
N -4.163600 -10.633500 -34.063600
H -3.629100 -11.383100 -34.347000
