17
Fragment
O -8.291800 -8.752600 -25.953700
H -8.185800 -7.844300 -23.723900
H -7.947600 -7.201500 -28.355300
C -7.689900 -7.727600 -25.644400
N -7.668700 -7.289300 -24.327900
O -7.164300 -5.881500 -22.619400
C -7.069600 -6.162200 -23.804800
N -7.011900 -6.986800 -26.572300
C -7.001600 -7.415000 -27.976300
H -6.823800 -8.463600 -28.047600
H -6.428800 -6.835800 -28.501000
C -6.362100 -5.425000 -24.823400
C -6.358200 -5.854900 -26.148100
N -5.635800 -5.010900 -26.881600
N -5.627700 -4.301400 -24.731100
N -5.235300 -4.111500 -25.966700
H -4.700900 -3.361900 -26.250100
3
Fragment
O -3.807800 -8.028900 -27.061400
H -3.461300 -8.003600 -27.901800
H -3.288300 -7.272200 -26.557800
20
Fragment
O -8.291800 -8.752600 -25.953700
H -8.185800 -7.844300 -23.723900
H -7.947600 -7.201500 -28.355300
C -7.689900 -7.727600 -25.644400
N -7.668700 -7.289300 -24.327900
O -7.164300 -5.881500 -22.619400
C -7.069600 -6.162200 -23.804800
N -7.011900 -6.986800 -26.572300
C -7.001600 -7.415000 -27.976300
H -6.823800 -8.463600 -28.047600
H -6.428800 -6.835800 -28.501000
C -6.362100 -5.425000 -24.823400
C -6.358200 -5.854900 -26.148100
N -5.635800 -5.010900 -26.881600
N -5.627700 -4.301400 -24.731100
N -5.235300 -4.111500 -25.966700
H -4.700900 -3.361900 -26.250100
O -3.807800 -8.028900 -27.061400
H -3.461300 -8.003600 -27.901800
H -3.288300 -7.272200 -26.557800
