21
Fragment
H -7.359100 -12.930300 -12.388400
H -6.817500 -13.679100 -11.202900
C -6.613800 -13.425100 -12.102600
H -6.555500 -15.800000 -17.000100
O -6.480000 -15.965600 -11.043900
N -6.426000 -14.633800 -12.924200
C -6.348000 -15.865300 -12.259800
O -6.341100 -13.286000 -14.758600
C -6.274200 -14.413600 -14.294500
C -6.111600 -16.935300 -13.165900
N -6.050000 -15.510200 -15.089400
H -5.972200 -18.729400 -12.149500
C -5.956000 -16.753500 -14.507700
N -5.940100 -18.287500 -12.959200
H -5.894400 -12.845700 -12.223000
H -5.880800 -14.407300 -16.745500
C -5.856800 -15.342000 -16.526800
N -5.695900 -17.923800 -15.149200
C -5.686100 -18.818600 -14.160300
H -5.521100 -19.728100 -14.254100
H -5.006100 -15.707700 -16.780500
21
Fragment
H -6.131500 -21.626700 -12.388400
H -5.589900 -22.375500 -11.202900
C -5.386200 -22.121500 -12.102600
H -5.327900 -24.496400 -17.000100
O -5.252400 -24.662000 -11.043900
N -5.198400 -23.330200 -12.924200
C -5.120400 -24.561700 -12.259800
O -5.113500 -21.982400 -14.758600
C -5.046500 -23.110000 -14.294500
C -4.884000 -25.631700 -13.165900
N -4.822400 -24.206600 -15.089400
H -4.744600 -27.425800 -12.149500
C -4.728400 -25.449900 -14.507700
N -4.712500 -26.983800 -12.959200
H -4.666800 -21.542100 -12.223000
H -4.653200 -23.103700 -16.745500
C -4.629200 -24.038400 -16.526800
N -4.468300 -26.620200 -15.149200
C -4.458500 -27.515000 -14.160300
H -4.293500 -28.424500 -14.254100
H -3.778500 -24.404100 -16.780500
42
Fragment
H -7.359100 -12.930300 -12.388400
H -6.817500 -13.679100 -11.202900
C -6.613800 -13.425100 -12.102600
H -6.555500 -15.800000 -17.000100
O -6.480000 -15.965600 -11.043900
N -6.426000 -14.633800 -12.924200
C -6.348000 -15.865300 -12.259800
O -6.341100 -13.286000 -14.758600
C -6.274200 -14.413600 -14.294500
C -6.111600 -16.935300 -13.165900
N -6.050000 -15.510200 -15.089400
H -5.972200 -18.729400 -12.149500
C -5.956000 -16.753500 -14.507700
N -5.940100 -18.287500 -12.959200
H -5.894400 -12.845700 -12.223000
H -5.880800 -14.407300 -16.745500
C -5.856800 -15.342000 -16.526800
N -5.695900 -17.923800 -15.149200
C -5.686100 -18.818600 -14.160300
H -5.521100 -19.728100 -14.254100
H -5.006100 -15.707700 -16.780500
H -6.131500 -21.626700 -12.388400
H -5.589900 -22.375500 -11.202900
C -5.386200 -22.121500 -12.102600
H -5.327900 -24.496400 -17.000100
O -5.252400 -24.662000 -11.043900
N -5.198400 -23.330200 -12.924200
C -5.120400 -24.561700 -12.259800
O -5.113500 -21.982400 -14.758600
C -5.046500 -23.110000 -14.294500
C -4.884000 -25.631700 -13.165900
N -4.822400 -24.206600 -15.089400
H -4.744600 -27.425800 -12.149500
C -4.728400 -25.449900 -14.507700
N -4.712500 -26.983800 -12.959200
H -4.666800 -21.542100 -12.223000
H -4.653200 -23.103700 -16.745500
C -4.629200 -24.038400 -16.526800
N -4.468300 -26.620200 -15.149200
C -4.458500 -27.515000 -14.160300
H -4.293500 -28.424500 -14.254100
H -3.778500 -24.404100 -16.780500
