21
Fragment
H -7.359100 -12.930300 -12.388400
H -6.817500 -13.679100 -11.202900
C -6.613800 -13.425100 -12.102600
H -6.555500 -15.800000 -17.000100
O -6.480000 -15.965600 -11.043900
N -6.426000 -14.633800 -12.924200
C -6.348000 -15.865300 -12.259800
O -6.341100 -13.286000 -14.758600
C -6.274200 -14.413600 -14.294500
C -6.111600 -16.935300 -13.165900
N -6.050000 -15.510200 -15.089400
H -5.972200 -18.729400 -12.149500
C -5.956000 -16.753500 -14.507700
N -5.940100 -18.287500 -12.959200
H -5.894400 -12.845700 -12.223000
H -5.880800 -14.407300 -16.745500
C -5.856800 -15.342000 -16.526800
N -5.695900 -17.923800 -15.149200
C -5.686100 -18.818600 -14.160300
H -5.521100 -19.728100 -14.254100
H -5.006100 -15.707700 -16.780500
16
Fragment
O -11.565500 -13.973200 -7.788700
H -11.420500 -15.501200 -9.052400
C -11.201800 -14.504200 -8.836400
H -10.885600 -11.994800 -9.208600
N -10.489300 -13.897500 -9.756400
H -10.312500 -14.299100 -10.513600
C -10.085900 -12.498600 -9.633200
H -9.913900 -12.105800 -10.541200
H -9.018500 -12.755800 -7.839300
C -8.846600 -12.363000 -8.747300
H -8.620000 -10.562500 -7.866800
N -8.443200 -10.964200 -8.624100
H -8.046900 -12.866900 -9.171900
C -7.730700 -10.357500 -9.544100
H -7.512000 -9.360500 -9.328100
O -7.366900 -10.888400 -10.591700
37
Fragment
H -7.359100 -12.930300 -12.388400
H -6.817500 -13.679100 -11.202900
C -6.613800 -13.425100 -12.102600
H -6.555500 -15.800000 -17.000100
O -6.480000 -15.965600 -11.043900
N -6.426000 -14.633800 -12.924200
C -6.348000 -15.865300 -12.259800
O -6.341100 -13.286000 -14.758600
C -6.274200 -14.413600 -14.294500
C -6.111600 -16.935300 -13.165900
N -6.050000 -15.510200 -15.089400
H -5.972200 -18.729400 -12.149500
C -5.956000 -16.753500 -14.507700
N -5.940100 -18.287500 -12.959200
H -5.894400 -12.845700 -12.223000
H -5.880800 -14.407300 -16.745500
C -5.856800 -15.342000 -16.526800
N -5.695900 -17.923800 -15.149200
C -5.686100 -18.818600 -14.160300
H -5.521100 -19.728100 -14.254100
H -5.006100 -15.707700 -16.780500
O -11.565500 -13.973200 -7.788700
H -11.420500 -15.501200 -9.052400
C -11.201800 -14.504200 -8.836400
H -10.885600 -11.994800 -9.208600
N -10.489300 -13.897500 -9.756400
H -10.312500 -14.299100 -10.513600
C -10.085900 -12.498600 -9.633200
H -9.913900 -12.105800 -10.541200
H -9.018500 -12.755800 -7.839300
C -8.846600 -12.363000 -8.747300
H -8.620000 -10.562500 -7.866800
N -8.443200 -10.964200 -8.624100
H -8.046900 -12.866900 -9.171900
C -7.730700 -10.357500 -9.544100
H -7.512000 -9.360500 -9.328100
O -7.366900 -10.888400 -10.591700
