21
Fragment
H -7.359100 -12.930300 -12.388400
H -6.817500 -13.679100 -11.202900
C -6.613800 -13.425100 -12.102600
H -6.555500 -15.800000 -17.000100
O -6.480000 -15.965600 -11.043900
N -6.426000 -14.633800 -12.924200
C -6.348000 -15.865300 -12.259800
O -6.341100 -13.286000 -14.758600
C -6.274200 -14.413600 -14.294500
C -6.111600 -16.935300 -13.165900
N -6.050000 -15.510200 -15.089400
H -5.972200 -18.729400 -12.149500
C -5.956000 -16.753500 -14.507700
N -5.940100 -18.287500 -12.959200
H -5.894400 -12.845700 -12.223000
H -5.880800 -14.407300 -16.745500
C -5.856800 -15.342000 -16.526800
N -5.695900 -17.923800 -15.149200
C -5.686100 -18.818600 -14.160300
H -5.521100 -19.728100 -14.254100
H -5.006100 -15.707700 -16.780500
21
Fragment
H -10.518200 -17.236600 -10.790300
H -10.003200 -13.216200 -13.316700
C -9.838200 -14.125700 -13.410400
N -9.828400 -15.020500 -12.421500
C -9.667500 -17.602300 -11.043900
H -9.643500 -18.536900 -10.825200
H -9.629900 -20.098600 -15.347700
N -9.584200 -14.656800 -14.611600
C -9.568300 -16.190800 -13.063000
H -9.552100 -14.214900 -15.421200
N -9.474300 -17.434100 -12.481300
C -9.412700 -16.009000 -14.404800
C -9.250100 -18.530700 -13.276200
O -9.183200 -19.658300 -12.812100
C -9.176300 -17.079000 -15.310900
N -9.098300 -18.310400 -14.646500
O -9.044300 -16.978700 -16.526800
H -8.968800 -17.144300 -10.570600
C -8.910500 -19.519200 -15.468100
H -8.706800 -19.265100 -16.367800
H -8.165200 -20.013900 -15.182300
42
Fragment
H -7.359100 -12.930300 -12.388400
H -6.817500 -13.679100 -11.202900
C -6.613800 -13.425100 -12.102600
H -6.555500 -15.800000 -17.000100
O -6.480000 -15.965600 -11.043900
N -6.426000 -14.633800 -12.924200
C -6.348000 -15.865300 -12.259800
O -6.341100 -13.286000 -14.758600
C -6.274200 -14.413600 -14.294500
C -6.111600 -16.935300 -13.165900
N -6.050000 -15.510200 -15.089400
H -5.972200 -18.729400 -12.149500
C -5.956000 -16.753500 -14.507700
N -5.940100 -18.287500 -12.959200
H -5.894400 -12.845700 -12.223000
H -5.880800 -14.407300 -16.745500
C -5.856800 -15.342000 -16.526800
N -5.695900 -17.923800 -15.149200
C -5.686100 -18.818600 -14.160300
H -5.521100 -19.728100 -14.254100
H -5.006100 -15.707700 -16.780500
H -10.518200 -17.236600 -10.790300
H -10.003200 -13.216200 -13.316700
C -9.838200 -14.125700 -13.410400
N -9.828400 -15.020500 -12.421500
C -9.667500 -17.602300 -11.043900
H -9.643500 -18.536900 -10.825200
H -9.629900 -20.098600 -15.347700
N -9.584200 -14.656800 -14.611600
C -9.568300 -16.190800 -13.063000
H -9.552100 -14.214900 -15.421200
N -9.474300 -17.434100 -12.481300
C -9.412700 -16.009000 -14.404800
C -9.250100 -18.530700 -13.276200
O -9.183200 -19.658300 -12.812100
C -9.176300 -17.079000 -15.310900
N -9.098300 -18.310400 -14.646500
O -9.044300 -16.978700 -16.526800
H -8.968800 -17.144300 -10.570600
C -8.910500 -19.519200 -15.468100
H -8.706800 -19.265100 -16.367800
H -8.165200 -20.013900 -15.182300
