21
Fragment
H -7.359100 -12.930300 -12.388400
H -6.817500 -13.679100 -11.202900
C -6.613800 -13.425100 -12.102600
H -6.555500 -15.800000 -17.000100
O -6.480000 -15.965600 -11.043900
N -6.426000 -14.633800 -12.924200
C -6.348000 -15.865300 -12.259800
O -6.341100 -13.286000 -14.758600
C -6.274200 -14.413600 -14.294500
C -6.111600 -16.935300 -13.165900
N -6.050000 -15.510200 -15.089400
H -5.972200 -18.729400 -12.149500
C -5.956000 -16.753500 -14.507700
N -5.940100 -18.287500 -12.959200
H -5.894400 -12.845700 -12.223000
H -5.880800 -14.407300 -16.745500
C -5.856800 -15.342000 -16.526800
N -5.695900 -17.923800 -15.149200
C -5.686100 -18.818600 -14.160300
H -5.521100 -19.728100 -14.254100
H -5.006100 -15.707700 -16.780500
21
Fragment
H -8.586700 -4.234000 -12.388400
H -8.045100 -4.982800 -11.202900
C -7.841500 -4.728700 -12.102600
H -7.783100 -7.103600 -17.000100
O -7.707600 -7.269200 -11.043900
N -7.653600 -5.937500 -12.924200
C -7.575600 -7.168900 -12.259800
O -7.568700 -4.589600 -14.758600
C -7.501800 -5.717200 -14.294500
C -7.339200 -8.238900 -13.165900
N -7.277700 -6.813800 -15.089400
H -7.199800 -10.033000 -12.149500
C -7.183600 -8.057100 -14.507700
N -7.167700 -9.591100 -12.959200
H -7.122000 -4.149400 -12.223000
H -7.108400 -5.711000 -16.745500
C -7.084400 -6.645600 -16.526800
N -6.923600 -9.227400 -15.149200
C -6.913700 -10.122200 -14.160300
H -6.748700 -11.031700 -14.254100
H -6.233700 -7.011400 -16.780500
42
Fragment
H -7.359100 -12.930300 -12.388400
H -6.817500 -13.679100 -11.202900
C -6.613800 -13.425100 -12.102600
H -6.555500 -15.800000 -17.000100
O -6.480000 -15.965600 -11.043900
N -6.426000 -14.633800 -12.924200
C -6.348000 -15.865300 -12.259800
O -6.341100 -13.286000 -14.758600
C -6.274200 -14.413600 -14.294500
C -6.111600 -16.935300 -13.165900
N -6.050000 -15.510200 -15.089400
H -5.972200 -18.729400 -12.149500
C -5.956000 -16.753500 -14.507700
N -5.940100 -18.287500 -12.959200
H -5.894400 -12.845700 -12.223000
H -5.880800 -14.407300 -16.745500
C -5.856800 -15.342000 -16.526800
N -5.695900 -17.923800 -15.149200
C -5.686100 -18.818600 -14.160300
H -5.521100 -19.728100 -14.254100
H -5.006100 -15.707700 -16.780500
H -8.586700 -4.234000 -12.388400
H -8.045100 -4.982800 -11.202900
C -7.841500 -4.728700 -12.102600
H -7.783100 -7.103600 -17.000100
O -7.707600 -7.269200 -11.043900
N -7.653600 -5.937500 -12.924200
C -7.575600 -7.168900 -12.259800
O -7.568700 -4.589600 -14.758600
C -7.501800 -5.717200 -14.294500
C -7.339200 -8.238900 -13.165900
N -7.277700 -6.813800 -15.089400
H -7.199800 -10.033000 -12.149500
C -7.183600 -8.057100 -14.507700
N -7.167700 -9.591100 -12.959200
H -7.122000 -4.149400 -12.223000
H -7.108400 -5.711000 -16.745500
C -7.084400 -6.645600 -16.526800
N -6.923600 -9.227400 -15.149200
C -6.913700 -10.122200 -14.160300
H -6.748700 -11.031700 -14.254100
H -6.233700 -7.011400 -16.780500
