21
Fragment
O -23.020200 -12.878400 -25.541200
H -22.897800 -13.079300 -23.255900
H -22.329000 -11.867200 -22.441500
C -22.099000 -12.616400 -22.995100
H -21.966200 -12.316600 -28.318000
C -21.900700 -12.388300 -25.436500
H -21.527100 -13.213000 -22.505300
N -21.318000 -12.200300 -24.159000
N -21.180500 -11.997900 -27.838900
C -21.037400 -11.962400 -26.462100
C -20.052400 -11.512300 -28.348100
C -20.046400 -11.661000 -23.910600
H -19.889100 -11.459400 -29.396800
C -19.800100 -11.450300 -26.265100
O -19.639600 -11.547000 -22.744900
N -19.292800 -11.279700 -24.973400
N -19.156300 -11.152800 -27.416600
C -17.926400 -10.763100 -24.788900
H -17.859600 -9.883300 -25.168600
H -17.734500 -10.720800 -23.848500
H -17.294400 -11.344600 -25.218300
21
Fragment
O -14.873200 -9.102400 -25.541200
H -14.750800 -9.303300 -23.255900
H -14.182000 -8.091200 -22.441500
C -13.952000 -8.840400 -22.995100
H -13.819200 -8.540600 -28.318000
C -13.753700 -8.612300 -25.436500
H -13.380100 -9.437000 -22.505300
N -13.171000 -8.424300 -24.159000
N -13.033500 -8.221900 -27.838900
C -12.890400 -8.186400 -26.462100
C -11.905400 -7.736300 -28.348100
C -11.899400 -7.885000 -23.910600
H -11.742100 -7.683400 -29.396800
C -11.653100 -7.674300 -26.265100
O -11.492600 -7.771000 -22.744900
N -11.145800 -7.503700 -24.973400
N -11.009300 -7.376800 -27.416600
C -9.779400 -6.987100 -24.788900
H -9.712600 -6.107300 -25.168600
H -9.587500 -6.944800 -23.848500
H -9.147400 -7.568600 -25.218300
42
Fragment
O -23.020200 -12.878400 -25.541200
H -22.897800 -13.079300 -23.255900
H -22.329000 -11.867200 -22.441500
C -22.099000 -12.616400 -22.995100
H -21.966200 -12.316600 -28.318000
C -21.900700 -12.388300 -25.436500
H -21.527100 -13.213000 -22.505300
N -21.318000 -12.200300 -24.159000
N -21.180500 -11.997900 -27.838900
C -21.037400 -11.962400 -26.462100
C -20.052400 -11.512300 -28.348100
C -20.046400 -11.661000 -23.910600
H -19.889100 -11.459400 -29.396800
C -19.800100 -11.450300 -26.265100
O -19.639600 -11.547000 -22.744900
N -19.292800 -11.279700 -24.973400
N -19.156300 -11.152800 -27.416600
C -17.926400 -10.763100 -24.788900
H -17.859600 -9.883300 -25.168600
H -17.734500 -10.720800 -23.848500
H -17.294400 -11.344600 -25.218300
O -14.873200 -9.102400 -25.541200
H -14.750800 -9.303300 -23.255900
H -14.182000 -8.091200 -22.441500
C -13.952000 -8.840400 -22.995100
H -13.819200 -8.540600 -28.318000
C -13.753700 -8.612300 -25.436500
H -13.380100 -9.437000 -22.505300
N -13.171000 -8.424300 -24.159000
N -13.033500 -8.221900 -27.838900
C -12.890400 -8.186400 -26.462100
C -11.905400 -7.736300 -28.348100
C -11.899400 -7.885000 -23.910600
H -11.742100 -7.683400 -29.396800
C -11.653100 -7.674300 -26.265100
O -11.492600 -7.771000 -22.744900
N -11.145800 -7.503700 -24.973400
N -11.009300 -7.376800 -27.416600
C -9.779400 -6.987100 -24.788900
H -9.712600 -6.107300 -25.168600
H -9.587500 -6.944800 -23.848500
H -9.147400 -7.568600 -25.218300
