21
Fragment
O -23.020200 -12.878400 -25.541200
H -22.897800 -13.079300 -23.255900
H -22.329000 -11.867200 -22.441500
C -22.099000 -12.616400 -22.995100
H -21.966200 -12.316600 -28.318000
C -21.900700 -12.388300 -25.436500
H -21.527100 -13.213000 -22.505300
N -21.318000 -12.200300 -24.159000
N -21.180500 -11.997900 -27.838900
C -21.037400 -11.962400 -26.462100
C -20.052400 -11.512300 -28.348100
C -20.046400 -11.661000 -23.910600
H -19.889100 -11.459400 -29.396800
C -19.800100 -11.450300 -26.265100
O -19.639600 -11.547000 -22.744900
N -19.292800 -11.279700 -24.973400
N -19.156300 -11.152800 -27.416600
C -17.926400 -10.763100 -24.788900
H -17.859600 -9.883300 -25.168600
H -17.734500 -10.720800 -23.848500
H -17.294400 -11.344600 -25.218300
21
Fragment
H -21.851500 -15.087400 -28.011000
H -21.411400 -15.711200 -29.380800
H -21.286300 -16.548700 -28.060700
C -21.219500 -15.668900 -28.440400
N -19.989600 -15.279200 -25.812700
N -19.853100 -15.152300 -28.255900
O -19.506300 -14.885000 -30.484400
C -19.345800 -14.981700 -26.964200
H -19.256800 -14.972600 -23.832500
C -19.099500 -14.771000 -29.318700
C -19.093500 -14.919700 -24.881100
C -18.108400 -14.469600 -26.767200
N -17.965400 -14.434100 -25.390400
N -17.827900 -14.231700 -29.070300
H -17.618800 -13.219000 -30.723900
C -17.245200 -14.043700 -27.792800
H -17.179700 -14.115400 -24.911300
C -17.046900 -13.815600 -30.234200
H -16.816900 -14.564800 -30.787800
H -16.248100 -13.352700 -29.973400
O -16.125700 -13.553600 -27.688100
42
Fragment
O -23.020200 -12.878400 -25.541200
H -22.897800 -13.079300 -23.255900
H -22.329000 -11.867200 -22.441500
C -22.099000 -12.616400 -22.995100
H -21.966200 -12.316600 -28.318000
C -21.900700 -12.388300 -25.436500
H -21.527100 -13.213000 -22.505300
N -21.318000 -12.200300 -24.159000
N -21.180500 -11.997900 -27.838900
C -21.037400 -11.962400 -26.462100
C -20.052400 -11.512300 -28.348100
C -20.046400 -11.661000 -23.910600
H -19.889100 -11.459400 -29.396800
C -19.800100 -11.450300 -26.265100
O -19.639600 -11.547000 -22.744900
N -19.292800 -11.279700 -24.973400
N -19.156300 -11.152800 -27.416600
C -17.926400 -10.763100 -24.788900
H -17.859600 -9.883300 -25.168600
H -17.734500 -10.720800 -23.848500
H -17.294400 -11.344600 -25.218300
H -21.851500 -15.087400 -28.011000
H -21.411400 -15.711200 -29.380800
H -21.286300 -16.548700 -28.060700
C -21.219500 -15.668900 -28.440400
N -19.989600 -15.279200 -25.812700
N -19.853100 -15.152300 -28.255900
O -19.506300 -14.885000 -30.484400
C -19.345800 -14.981700 -26.964200
H -19.256800 -14.972600 -23.832500
C -19.099500 -14.771000 -29.318700
C -19.093500 -14.919700 -24.881100
C -18.108400 -14.469600 -26.767200
N -17.965400 -14.434100 -25.390400
N -17.827900 -14.231700 -29.070300
H -17.618800 -13.219000 -30.723900
C -17.245200 -14.043700 -27.792800
H -17.179700 -14.115400 -24.911300
C -17.046900 -13.815600 -30.234200
H -16.816900 -14.564800 -30.787800
H -16.248100 -13.352700 -29.973400
O -16.125700 -13.553600 -27.688100
