21
Fragment
O -23.020200 -12.878400 -25.541200
H -22.897800 -13.079300 -23.255900
H -22.329000 -11.867200 -22.441500
C -22.099000 -12.616400 -22.995100
H -21.966200 -12.316600 -28.318000
C -21.900700 -12.388300 -25.436500
H -21.527100 -13.213000 -22.505300
N -21.318000 -12.200300 -24.159000
N -21.180500 -11.997900 -27.838900
C -21.037400 -11.962400 -26.462100
C -20.052400 -11.512300 -28.348100
C -20.046400 -11.661000 -23.910600
H -19.889100 -11.459400 -29.396800
C -19.800100 -11.450300 -26.265100
O -19.639600 -11.547000 -22.744900
N -19.292800 -11.279700 -24.973400
N -19.156300 -11.152800 -27.416600
C -17.926400 -10.763100 -24.788900
H -17.859600 -9.883300 -25.168600
H -17.734500 -10.720800 -23.848500
H -17.294400 -11.344600 -25.218300
8
Fragment
H -17.656100 -10.266200 -29.911300
H -17.304600 -10.305500 -27.769700
N -16.910200 -9.939900 -30.172100
H -16.599900 -9.711100 -31.068200
N -16.500200 -9.856100 -27.913400
C -16.083800 -9.609200 -29.146600
H -16.021300 -9.633300 -27.310200
O -14.982700 -9.092600 -29.405600
29
Fragment
O -23.020200 -12.878400 -25.541200
H -22.897800 -13.079300 -23.255900
H -22.329000 -11.867200 -22.441500
C -22.099000 -12.616400 -22.995100
H -21.966200 -12.316600 -28.318000
C -21.900700 -12.388300 -25.436500
H -21.527100 -13.213000 -22.505300
N -21.318000 -12.200300 -24.159000
N -21.180500 -11.997900 -27.838900
C -21.037400 -11.962400 -26.462100
C -20.052400 -11.512300 -28.348100
C -20.046400 -11.661000 -23.910600
H -19.889100 -11.459400 -29.396800
C -19.800100 -11.450300 -26.265100
O -19.639600 -11.547000 -22.744900
N -19.292800 -11.279700 -24.973400
N -19.156300 -11.152800 -27.416600
C -17.926400 -10.763100 -24.788900
H -17.859600 -9.883300 -25.168600
H -17.734500 -10.720800 -23.848500
H -17.294400 -11.344600 -25.218300
H -17.656100 -10.266200 -29.911300
H -17.304600 -10.305500 -27.769700
N -16.910200 -9.939900 -30.172100
H -16.599900 -9.711100 -31.068200
N -16.500200 -9.856100 -27.913400
C -16.083800 -9.609200 -29.146600
H -16.021300 -9.633300 -27.310200
O -14.982700 -9.092600 -29.405600
