25
Fragment
H -6.671800 -9.489600 -19.476800
H -6.068200 -7.876200 -19.850400
C -5.919000 -8.844200 -19.334300
H -5.845900 -8.881200 -18.285800
H -4.721900 -9.566600 -20.889700
C -4.651600 -9.450000 -19.890100
H -4.514900 -10.435700 -19.383400
H -4.000700 -7.887800 -17.795300
O -3.996400 -6.316100 -19.829400
C -3.433800 -7.285900 -20.319800
C -3.307500 -8.614700 -19.606400
C -3.103100 -8.443200 -18.102400
H -3.094800 -6.429700 -22.115700
H -3.089200 -9.424300 -17.678600
N -2.950200 -7.208000 -21.599600
C -2.240500 -9.514600 -20.205400
C -2.139100 -8.138300 -22.202100
H -1.878000 -7.294500 -16.954600
O -1.849700 -10.519100 -19.623900
C -1.788500 -7.755300 -17.772000
N -1.781700 -9.226200 -21.447800
O -1.744500 -7.992600 -23.347600
H -1.705900 -6.973100 -18.250700
H -1.182300 -9.793700 -21.847200
H -1.008300 -8.312500 -17.795300
25
Fragment
H -5.094000 -9.442500 -28.911600
H -4.920100 -7.961200 -24.859800
H -4.396500 -10.781800 -28.456200
O -4.357900 -9.762400 -23.359300
N -4.320600 -8.528800 -25.259100
C -4.313900 -9.999700 -28.934900
O -4.252700 -7.235900 -27.083000
H -4.224300 -10.460500 -29.752300
C -3.963300 -9.616700 -24.504800
C -3.861900 -8.240300 -26.501500
N -3.152100 -10.547000 -25.107300
H -3.013200 -8.330700 -29.028300
H -3.007600 -11.325300 -24.591200
C -2.999300 -9.311800 -28.604500
C -2.794800 -9.140300 -27.100500
C -2.668600 -10.469100 -26.387100
O -2.105900 -11.438900 -26.877500
H -2.101700 -9.867200 -28.911600
H -1.587500 -7.319300 -27.323500
C -1.450800 -8.305000 -26.816800
H -1.380400 -8.188300 -25.817200
H -0.256400 -8.873800 -28.421200
C -0.183300 -8.910800 -27.372600
H -0.034100 -9.878800 -26.856500
H 0.569500 -8.265300 -27.230100
50
Fragment
H -6.671800 -9.489600 -19.476800
H -6.068200 -7.876200 -19.850400
C -5.919000 -8.844200 -19.334300
H -5.845900 -8.881200 -18.285800
H -4.721900 -9.566600 -20.889700
C -4.651600 -9.450000 -19.890100
H -4.514900 -10.435700 -19.383400
H -4.000700 -7.887800 -17.795300
O -3.996400 -6.316100 -19.829400
C -3.433800 -7.285900 -20.319800
C -3.307500 -8.614700 -19.606400
C -3.103100 -8.443200 -18.102400
H -3.094800 -6.429700 -22.115700
H -3.089200 -9.424300 -17.678600
N -2.950200 -7.208000 -21.599600
C -2.240500 -9.514600 -20.205400
C -2.139100 -8.138300 -22.202100
H -1.878000 -7.294500 -16.954600
O -1.849700 -10.519100 -19.623900
C -1.788500 -7.755300 -17.772000
N -1.781700 -9.226200 -21.447800
O -1.744500 -7.992600 -23.347600
H -1.705900 -6.973100 -18.250700
H -1.182300 -9.793700 -21.847200
H -1.008300 -8.312500 -17.795300
H -5.094000 -9.442500 -28.911600
H -4.920100 -7.961200 -24.859800
H -4.396500 -10.781800 -28.456200
O -4.357900 -9.762400 -23.359300
N -4.320600 -8.528800 -25.259100
C -4.313900 -9.999700 -28.934900
O -4.252700 -7.235900 -27.083000
H -4.224300 -10.460500 -29.752300
C -3.963300 -9.616700 -24.504800
C -3.861900 -8.240300 -26.501500
N -3.152100 -10.547000 -25.107300
H -3.013200 -8.330700 -29.028300
H -3.007600 -11.325300 -24.591200
C -2.999300 -9.311800 -28.604500
C -2.794800 -9.140300 -27.100500
C -2.668600 -10.469100 -26.387100
O -2.105900 -11.438900 -26.877500
H -2.101700 -9.867200 -28.911600
H -1.587500 -7.319300 -27.323500
C -1.450800 -8.305000 -26.816800
H -1.380400 -8.188300 -25.817200
H -0.256400 -8.873800 -28.421200
C -0.183300 -8.910800 -27.372600
H -0.034100 -9.878800 -26.856500
H 0.569500 -8.265300 -27.230100
