25
Fragment
H -6.671800 -9.489600 -19.476800
H -6.068200 -7.876200 -19.850400
C -5.919000 -8.844200 -19.334300
H -5.845900 -8.881200 -18.285800
H -4.721900 -9.566600 -20.889700
C -4.651600 -9.450000 -19.890100
H -4.514900 -10.435700 -19.383400
H -4.000700 -7.887800 -17.795300
O -3.996400 -6.316100 -19.829400
C -3.433800 -7.285900 -20.319800
C -3.307500 -8.614700 -19.606400
C -3.103100 -8.443200 -18.102400
H -3.094800 -6.429700 -22.115700
H -3.089200 -9.424300 -17.678600
N -2.950200 -7.208000 -21.599600
C -2.240500 -9.514600 -20.205400
C -2.139100 -8.138300 -22.202100
H -1.878000 -7.294500 -16.954600
O -1.849700 -10.519100 -19.623900
C -1.788500 -7.755300 -17.772000
N -1.781700 -9.226200 -21.447800
O -1.744500 -7.992600 -23.347600
H -1.705900 -6.973100 -18.250700
H -1.182300 -9.793700 -21.847200
H -1.008300 -8.312500 -17.795300
25
Fragment
H 0.848200 -9.489600 -19.476800
H 1.451800 -7.876200 -19.850400
C 1.601000 -8.844200 -19.334300
H 1.674100 -8.881200 -18.285800
H 2.798100 -9.566600 -20.889700
C 2.868400 -9.450000 -19.890100
H 3.005100 -10.435700 -19.383400
H 3.519300 -7.887800 -17.795300
O 3.523600 -6.316100 -19.829400
C 4.086200 -7.285900 -20.319800
C 4.212500 -8.614700 -19.606400
C 4.416900 -8.443200 -18.102400
H 4.425200 -6.429700 -22.115700
H 4.430800 -9.424300 -17.678600
N 4.569800 -7.208000 -21.599600
C 5.279500 -9.514600 -20.205400
C 5.380900 -8.138300 -22.202100
H 5.642000 -7.294500 -16.954600
O 5.670300 -10.519100 -19.623900
C 5.731500 -7.755300 -17.772000
N 5.738300 -9.226200 -21.447800
O 5.775500 -7.992600 -23.347600
H 5.814100 -6.973100 -18.250700
H 6.337700 -9.793700 -21.847200
H 6.511700 -8.312500 -17.795300
50
Fragment
H -6.671800 -9.489600 -19.476800
H -6.068200 -7.876200 -19.850400
C -5.919000 -8.844200 -19.334300
H -5.845900 -8.881200 -18.285800
H -4.721900 -9.566600 -20.889700
C -4.651600 -9.450000 -19.890100
H -4.514900 -10.435700 -19.383400
H -4.000700 -7.887800 -17.795300
O -3.996400 -6.316100 -19.829400
C -3.433800 -7.285900 -20.319800
C -3.307500 -8.614700 -19.606400
C -3.103100 -8.443200 -18.102400
H -3.094800 -6.429700 -22.115700
H -3.089200 -9.424300 -17.678600
N -2.950200 -7.208000 -21.599600
C -2.240500 -9.514600 -20.205400
C -2.139100 -8.138300 -22.202100
H -1.878000 -7.294500 -16.954600
O -1.849700 -10.519100 -19.623900
C -1.788500 -7.755300 -17.772000
N -1.781700 -9.226200 -21.447800
O -1.744500 -7.992600 -23.347600
H -1.705900 -6.973100 -18.250700
H -1.182300 -9.793700 -21.847200
H -1.008300 -8.312500 -17.795300
H 0.848200 -9.489600 -19.476800
H 1.451800 -7.876200 -19.850400
C 1.601000 -8.844200 -19.334300
H 1.674100 -8.881200 -18.285800
H 2.798100 -9.566600 -20.889700
C 2.868400 -9.450000 -19.890100
H 3.005100 -10.435700 -19.383400
H 3.519300 -7.887800 -17.795300
O 3.523600 -6.316100 -19.829400
C 4.086200 -7.285900 -20.319800
C 4.212500 -8.614700 -19.606400
C 4.416900 -8.443200 -18.102400
H 4.425200 -6.429700 -22.115700
H 4.430800 -9.424300 -17.678600
N 4.569800 -7.208000 -21.599600
C 5.279500 -9.514600 -20.205400
C 5.380900 -8.138300 -22.202100
H 5.642000 -7.294500 -16.954600
O 5.670300 -10.519100 -19.623900
C 5.731500 -7.755300 -17.772000
N 5.738300 -9.226200 -21.447800
O 5.775500 -7.992600 -23.347600
H 5.814100 -6.973100 -18.250700
H 6.337700 -9.793700 -21.847200
H 6.511700 -8.312500 -17.795300
