21
Fragment
H -33.511900 -9.318800 -26.240000
H -33.041400 -9.617800 -27.559300
N -32.913100 -9.561500 -26.723700
N -31.903600 -8.742100 -23.928700
C -31.627800 -9.486800 -26.357200
C -31.215000 -9.121600 -25.065600
H -31.138000 -8.172600 -22.102800
C -30.962700 -8.446700 -23.062200
N -30.686800 -9.770800 -27.274300
C -29.859100 -9.041100 -24.839200
N -29.705200 -8.586200 -23.557300
C -29.401500 -9.670400 -26.904500
N -28.883900 -9.300300 -25.722000
H -28.785600 -9.874100 -27.608200
H -28.678600 -9.874100 -21.451300
H -28.614500 -7.645800 -22.200500
C -28.441200 -8.369800 -22.830900
C -27.987900 -9.586400 -22.111000
H -27.844600 -10.230000 -22.738000
H -27.780400 -7.951900 -23.519900
H -27.138800 -9.432700 -21.695600
10
Fragment
H -37.511000 -8.386200 -23.210400
O -36.974300 -7.337600 -20.902400
N -36.683400 -8.252300 -23.005200
C -36.298500 -7.762600 -21.778700
O -35.637600 -9.041100 -24.910900
C -35.612000 -8.625400 -23.787000
C -34.760800 -7.930600 -21.791700
N -34.484900 -8.419600 -23.023100
O -34.014400 -7.650100 -20.900800
H -33.618800 -8.621100 -23.373300
31
Fragment
H -33.511900 -9.318800 -26.240000
H -33.041400 -9.617800 -27.559300
N -32.913100 -9.561500 -26.723700
N -31.903600 -8.742100 -23.928700
C -31.627800 -9.486800 -26.357200
C -31.215000 -9.121600 -25.065600
H -31.138000 -8.172600 -22.102800
C -30.962700 -8.446700 -23.062200
N -30.686800 -9.770800 -27.274300
C -29.859100 -9.041100 -24.839200
N -29.705200 -8.586200 -23.557300
C -29.401500 -9.670400 -26.904500
N -28.883900 -9.300300 -25.722000
H -28.785600 -9.874100 -27.608200
H -28.678600 -9.874100 -21.451300
H -28.614500 -7.645800 -22.200500
C -28.441200 -8.369800 -22.830900
C -27.987900 -9.586400 -22.111000
H -27.844600 -10.230000 -22.738000
H -27.780400 -7.951900 -23.519900
H -27.138800 -9.432700 -21.695600
H -37.511000 -8.386200 -23.210400
O -36.974300 -7.337600 -20.902400
N -36.683400 -8.252300 -23.005200
C -36.298500 -7.762600 -21.778700
O -35.637600 -9.041100 -24.910900
C -35.612000 -8.625400 -23.787000
C -34.760800 -7.930600 -21.791700
N -34.484900 -8.419600 -23.023100
O -34.014400 -7.650100 -20.900800
H -33.618800 -8.621100 -23.373300
