21
Fragment
H -33.511900 -9.318800 -26.240000
H -33.041400 -9.617800 -27.559300
N -32.913100 -9.561500 -26.723700
N -31.903600 -8.742100 -23.928700
C -31.627800 -9.486800 -26.357200
C -31.215000 -9.121600 -25.065600
H -31.138000 -8.172600 -22.102800
C -30.962700 -8.446700 -23.062200
N -30.686800 -9.770800 -27.274300
C -29.859100 -9.041100 -24.839200
N -29.705200 -8.586200 -23.557300
C -29.401500 -9.670400 -26.904500
N -28.883900 -9.300300 -25.722000
H -28.785600 -9.874100 -27.608200
H -28.678600 -9.874100 -21.451300
H -28.614500 -7.645800 -22.200500
C -28.441200 -8.369800 -22.830900
C -27.987900 -9.586400 -22.111000
H -27.844600 -10.230000 -22.738000
H -27.780400 -7.951900 -23.519900
H -27.138800 -9.432700 -21.695600
10
Fragment
H -26.818000 -11.945700 -17.509600
O -26.281300 -10.897100 -19.817600
N -25.990400 -11.811800 -17.714800
C -25.605500 -11.322100 -18.941300
O -24.944600 -12.600600 -15.809100
C -24.919000 -12.184900 -16.933000
C -24.067800 -11.490100 -18.928300
N -23.791900 -11.979100 -17.696900
O -23.321400 -11.209600 -19.819200
H -22.925800 -12.180600 -17.346700
31
Fragment
H -33.511900 -9.318800 -26.240000
H -33.041400 -9.617800 -27.559300
N -32.913100 -9.561500 -26.723700
N -31.903600 -8.742100 -23.928700
C -31.627800 -9.486800 -26.357200
C -31.215000 -9.121600 -25.065600
H -31.138000 -8.172600 -22.102800
C -30.962700 -8.446700 -23.062200
N -30.686800 -9.770800 -27.274300
C -29.859100 -9.041100 -24.839200
N -29.705200 -8.586200 -23.557300
C -29.401500 -9.670400 -26.904500
N -28.883900 -9.300300 -25.722000
H -28.785600 -9.874100 -27.608200
H -28.678600 -9.874100 -21.451300
H -28.614500 -7.645800 -22.200500
C -28.441200 -8.369800 -22.830900
C -27.987900 -9.586400 -22.111000
H -27.844600 -10.230000 -22.738000
H -27.780400 -7.951900 -23.519900
H -27.138800 -9.432700 -21.695600
H -26.818000 -11.945700 -17.509600
O -26.281300 -10.897100 -19.817600
N -25.990400 -11.811800 -17.714800
C -25.605500 -11.322100 -18.941300
O -24.944600 -12.600600 -15.809100
C -24.919000 -12.184900 -16.933000
C -24.067800 -11.490100 -18.928300
N -23.791900 -11.979100 -17.696900
O -23.321400 -11.209600 -19.819200
H -22.925800 -12.180600 -17.346700
