21
Fragment
H -33.511900 -9.318800 -26.240000
H -33.041400 -9.617800 -27.559300
N -32.913100 -9.561500 -26.723700
N -31.903600 -8.742100 -23.928700
C -31.627800 -9.486800 -26.357200
C -31.215000 -9.121600 -25.065600
H -31.138000 -8.172600 -22.102800
C -30.962700 -8.446700 -23.062200
N -30.686800 -9.770800 -27.274300
C -29.859100 -9.041100 -24.839200
N -29.705200 -8.586200 -23.557300
C -29.401500 -9.670400 -26.904500
N -28.883900 -9.300300 -25.722000
H -28.785600 -9.874100 -27.608200
H -28.678600 -9.874100 -21.451300
H -28.614500 -7.645800 -22.200500
C -28.441200 -8.369800 -22.830900
C -27.987900 -9.586400 -22.111000
H -27.844600 -10.230000 -22.738000
H -27.780400 -7.951900 -23.519900
H -27.138800 -9.432700 -21.695600
21
Fragment
H -26.326200 -5.873200 -21.695600
H -25.684600 -4.392400 -23.519900
H -25.620400 -6.670500 -22.738000
C -25.477100 -6.026900 -22.111000
C -25.023800 -4.810300 -22.830900
H -24.850500 -4.086300 -22.200500
H -24.786400 -6.314600 -21.451300
H -24.679400 -6.314600 -27.608200
N -24.581100 -5.740800 -25.722000
C -24.063500 -6.110900 -26.904500
N -23.759800 -5.026700 -23.557300
C -23.605900 -5.481600 -24.839200
N -22.778200 -6.211300 -27.274300
C -22.502300 -4.887200 -23.062200
H -22.327000 -4.613100 -22.102800
C -22.250000 -5.562100 -25.065600
C -21.837200 -5.927300 -26.357200
N -21.561400 -5.182600 -23.928700
N -20.551900 -6.002000 -26.723700
H -20.423600 -6.058300 -27.559300
H -19.953100 -5.759300 -26.240000
42
Fragment
H -33.511900 -9.318800 -26.240000
H -33.041400 -9.617800 -27.559300
N -32.913100 -9.561500 -26.723700
N -31.903600 -8.742100 -23.928700
C -31.627800 -9.486800 -26.357200
C -31.215000 -9.121600 -25.065600
H -31.138000 -8.172600 -22.102800
C -30.962700 -8.446700 -23.062200
N -30.686800 -9.770800 -27.274300
C -29.859100 -9.041100 -24.839200
N -29.705200 -8.586200 -23.557300
C -29.401500 -9.670400 -26.904500
N -28.883900 -9.300300 -25.722000
H -28.785600 -9.874100 -27.608200
H -28.678600 -9.874100 -21.451300
H -28.614500 -7.645800 -22.200500
C -28.441200 -8.369800 -22.830900
C -27.987900 -9.586400 -22.111000
H -27.844600 -10.230000 -22.738000
H -27.780400 -7.951900 -23.519900
H -27.138800 -9.432700 -21.695600
H -26.326200 -5.873200 -21.695600
H -25.684600 -4.392400 -23.519900
H -25.620400 -6.670500 -22.738000
C -25.477100 -6.026900 -22.111000
C -25.023800 -4.810300 -22.830900
H -24.850500 -4.086300 -22.200500
H -24.786400 -6.314600 -21.451300
H -24.679400 -6.314600 -27.608200
N -24.581100 -5.740800 -25.722000
C -24.063500 -6.110900 -26.904500
N -23.759800 -5.026700 -23.557300
C -23.605900 -5.481600 -24.839200
N -22.778200 -6.211300 -27.274300
C -22.502300 -4.887200 -23.062200
H -22.327000 -4.613100 -22.102800
C -22.250000 -5.562100 -25.065600
C -21.837200 -5.927300 -26.357200
N -21.561400 -5.182600 -23.928700
N -20.551900 -6.002000 -26.723700
H -20.423600 -6.058300 -27.559300
H -19.953100 -5.759300 -26.240000
