21
Fragment
H -33.511900 -9.318800 -26.240000
H -33.041400 -9.617800 -27.559300
N -32.913100 -9.561500 -26.723700
N -31.903600 -8.742100 -23.928700
C -31.627800 -9.486800 -26.357200
C -31.215000 -9.121600 -25.065600
H -31.138000 -8.172600 -22.102800
C -30.962700 -8.446700 -23.062200
N -30.686800 -9.770800 -27.274300
C -29.859100 -9.041100 -24.839200
N -29.705200 -8.586200 -23.557300
C -29.401500 -9.670400 -26.904500
N -28.883900 -9.300300 -25.722000
H -28.785600 -9.874100 -27.608200
H -28.678600 -9.874100 -21.451300
H -28.614500 -7.645800 -22.200500
C -28.441200 -8.369800 -22.830900
C -27.987900 -9.586400 -22.111000
H -27.844600 -10.230000 -22.738000
H -27.780400 -7.951900 -23.519900
H -27.138800 -9.432700 -21.695600
21
Fragment
H -37.019200 -4.805300 -27.168400
H -36.377600 -6.286100 -25.344100
H -36.313400 -4.008000 -26.126000
C -36.170100 -4.651600 -26.753000
C -35.716800 -5.868200 -26.033100
H -35.543500 -6.592200 -26.663500
H -35.479400 -4.363900 -27.412700
H -35.372400 -4.363900 -21.255800
N -35.274100 -4.937700 -23.142000
C -34.756500 -4.567600 -21.959500
N -34.452800 -5.651800 -25.306700
C -34.298900 -5.196900 -24.024800
N -33.471200 -4.467200 -21.589700
C -33.195300 -5.791300 -25.801800
H -33.020000 -6.065400 -26.761200
C -32.943000 -5.116400 -23.798400
C -32.530200 -4.751200 -22.506800
N -32.254400 -5.495900 -24.935300
N -31.244900 -4.676500 -22.140300
H -31.116600 -4.620200 -21.304700
H -30.646100 -4.919200 -22.624000
42
Fragment
H -33.511900 -9.318800 -26.240000
H -33.041400 -9.617800 -27.559300
N -32.913100 -9.561500 -26.723700
N -31.903600 -8.742100 -23.928700
C -31.627800 -9.486800 -26.357200
C -31.215000 -9.121600 -25.065600
H -31.138000 -8.172600 -22.102800
C -30.962700 -8.446700 -23.062200
N -30.686800 -9.770800 -27.274300
C -29.859100 -9.041100 -24.839200
N -29.705200 -8.586200 -23.557300
C -29.401500 -9.670400 -26.904500
N -28.883900 -9.300300 -25.722000
H -28.785600 -9.874100 -27.608200
H -28.678600 -9.874100 -21.451300
H -28.614500 -7.645800 -22.200500
C -28.441200 -8.369800 -22.830900
C -27.987900 -9.586400 -22.111000
H -27.844600 -10.230000 -22.738000
H -27.780400 -7.951900 -23.519900
H -27.138800 -9.432700 -21.695600
H -37.019200 -4.805300 -27.168400
H -36.377600 -6.286100 -25.344100
H -36.313400 -4.008000 -26.126000
C -36.170100 -4.651600 -26.753000
C -35.716800 -5.868200 -26.033100
H -35.543500 -6.592200 -26.663500
H -35.479400 -4.363900 -27.412700
H -35.372400 -4.363900 -21.255800
N -35.274100 -4.937700 -23.142000
C -34.756500 -4.567600 -21.959500
N -34.452800 -5.651800 -25.306700
C -34.298900 -5.196900 -24.024800
N -33.471200 -4.467200 -21.589700
C -33.195300 -5.791300 -25.801800
H -33.020000 -6.065400 -26.761200
C -32.943000 -5.116400 -23.798400
C -32.530200 -4.751200 -22.506800
N -32.254400 -5.495900 -24.935300
N -31.244900 -4.676500 -22.140300
H -31.116600 -4.620200 -21.304700
H -30.646100 -4.919200 -22.624000
