21
Fragment
H -33.511900 -9.318800 -26.240000
H -33.041400 -9.617800 -27.559300
N -32.913100 -9.561500 -26.723700
N -31.903600 -8.742100 -23.928700
C -31.627800 -9.486800 -26.357200
C -31.215000 -9.121600 -25.065600
H -31.138000 -8.172600 -22.102800
C -30.962700 -8.446700 -23.062200
N -30.686800 -9.770800 -27.274300
C -29.859100 -9.041100 -24.839200
N -29.705200 -8.586200 -23.557300
C -29.401500 -9.670400 -26.904500
N -28.883900 -9.300300 -25.722000
H -28.785600 -9.874100 -27.608200
H -28.678600 -9.874100 -21.451300
H -28.614500 -7.645800 -22.200500
C -28.441200 -8.369800 -22.830900
C -27.987900 -9.586400 -22.111000
H -27.844600 -10.230000 -22.738000
H -27.780400 -7.951900 -23.519900
H -27.138800 -9.432700 -21.695600
21
Fragment
H -33.511900 -12.038200 -18.096000
H -33.041400 -11.739200 -19.415300
N -32.913100 -11.795500 -18.579700
N -31.903600 -12.614900 -15.784700
C -31.627800 -11.870200 -18.213200
C -31.215000 -12.235400 -16.921600
H -31.138000 -13.184400 -13.958800
C -30.962700 -12.910300 -14.918200
N -30.686800 -11.586200 -19.130300
C -29.859100 -12.315900 -16.695200
N -29.705200 -12.770800 -15.413300
C -29.401500 -11.686600 -18.760500
N -28.883900 -12.056700 -17.578000
H -28.785600 -11.482900 -19.464200
H -28.678600 -11.482900 -13.307300
H -28.614500 -13.711200 -14.056500
C -28.441200 -12.987200 -14.686900
C -27.987900 -11.770600 -13.967000
H -27.844600 -11.127000 -14.594000
H -27.780400 -13.405100 -15.375900
H -27.138800 -11.924300 -13.551600
42
Fragment
H -33.511900 -9.318800 -26.240000
H -33.041400 -9.617800 -27.559300
N -32.913100 -9.561500 -26.723700
N -31.903600 -8.742100 -23.928700
C -31.627800 -9.486800 -26.357200
C -31.215000 -9.121600 -25.065600
H -31.138000 -8.172600 -22.102800
C -30.962700 -8.446700 -23.062200
N -30.686800 -9.770800 -27.274300
C -29.859100 -9.041100 -24.839200
N -29.705200 -8.586200 -23.557300
C -29.401500 -9.670400 -26.904500
N -28.883900 -9.300300 -25.722000
H -28.785600 -9.874100 -27.608200
H -28.678600 -9.874100 -21.451300
H -28.614500 -7.645800 -22.200500
C -28.441200 -8.369800 -22.830900
C -27.987900 -9.586400 -22.111000
H -27.844600 -10.230000 -22.738000
H -27.780400 -7.951900 -23.519900
H -27.138800 -9.432700 -21.695600
H -33.511900 -12.038200 -18.096000
H -33.041400 -11.739200 -19.415300
N -32.913100 -11.795500 -18.579700
N -31.903600 -12.614900 -15.784700
C -31.627800 -11.870200 -18.213200
C -31.215000 -12.235400 -16.921600
H -31.138000 -13.184400 -13.958800
C -30.962700 -12.910300 -14.918200
N -30.686800 -11.586200 -19.130300
C -29.859100 -12.315900 -16.695200
N -29.705200 -12.770800 -15.413300
C -29.401500 -11.686600 -18.760500
N -28.883900 -12.056700 -17.578000
H -28.785600 -11.482900 -19.464200
H -28.678600 -11.482900 -13.307300
H -28.614500 -13.711200 -14.056500
C -28.441200 -12.987200 -14.686900
C -27.987900 -11.770600 -13.967000
H -27.844600 -11.127000 -14.594000
H -27.780400 -13.405100 -15.375900
H -27.138800 -11.924300 -13.551600
