34
Fragment
H -25.590900 -11.717300 -44.743300
H -25.381800 -12.821700 -45.831600
H -25.381600 -10.160300 -46.289500
H -25.180800 -11.264700 -47.374400
H -25.117200 -13.885100 -43.704700
C -25.020800 -12.014500 -45.457600
C -24.879900 -10.944000 -46.521100
C -24.193300 -13.950500 -43.454200
H -23.921100 -14.586900 -42.789000
N -23.665800 -12.221800 -44.987800
N -23.646900 -9.019000 -48.167800
N -23.456200 -10.661800 -46.542600
C -23.288800 -13.155300 -44.028600
C -22.917100 -9.749700 -47.416600
H -22.914700 -7.315200 -48.957100
C -22.770900 -11.414100 -45.618200
H -22.735400 -8.541900 -49.902800
C -22.701300 -8.250700 -48.988700
C -21.848700 -13.134900 -43.752200
H -21.812400 -14.634400 -42.357600
N -21.572900 -9.665300 -47.572200
N -21.509700 -11.350600 -45.411200
C -21.318400 -8.500000 -48.400000
C -21.262900 -13.999000 -42.824100
H -21.081100 -9.899100 -46.843600
C -21.027100 -12.226300 -44.430700
H -21.017600 -7.754200 -47.875500
H -20.673200 -8.687800 -49.086500
C -19.916000 -13.957000 -42.565300
C -19.668400 -12.179300 -44.136100
H -19.529500 -14.565400 -41.929600
C -19.117700 -13.037400 -43.218700
H -19.108600 -11.538000 -44.580700
H -18.177500 -12.999000 -43.031200
34
Fragment
H -25.590900 -6.722300 -44.743300
H -25.381800 -7.826700 -45.831600
H -25.381600 -5.165300 -46.289500
H -25.180800 -6.269700 -47.374400
H -25.117200 -8.890100 -43.704700
C -25.020800 -7.019500 -45.457600
C -24.879900 -5.949000 -46.521100
C -24.193300 -8.955500 -43.454200
H -23.921100 -9.591900 -42.789000
N -23.665800 -7.226800 -44.987800
N -23.646900 -4.024000 -48.167800
N -23.456200 -5.666800 -46.542600
C -23.288800 -8.160300 -44.028600
C -22.917100 -4.754700 -47.416600
H -22.914700 -2.320200 -48.957100
C -22.770900 -6.419100 -45.618200
H -22.735400 -3.546900 -49.902800
C -22.701300 -3.255700 -48.988700
C -21.848700 -8.139900 -43.752200
H -21.812400 -9.639400 -42.357600
N -21.572900 -4.670300 -47.572200
N -21.509700 -6.355600 -45.411200
C -21.318400 -3.505000 -48.400000
C -21.262900 -9.004000 -42.824100
H -21.081100 -4.904100 -46.843600
C -21.027100 -7.231300 -44.430700
H -21.017600 -2.759200 -47.875500
H -20.673200 -3.692800 -49.086500
C -19.916000 -8.962000 -42.565300
C -19.668400 -7.184300 -44.136100
H -19.529500 -9.570400 -41.929600
C -19.117700 -8.042400 -43.218700
H -19.108600 -6.543000 -44.580700
H -18.177500 -8.004000 -43.031200
68
Fragment
H -25.590900 -11.717300 -44.743300
H -25.381800 -12.821700 -45.831600
H -25.381600 -10.160300 -46.289500
H -25.180800 -11.264700 -47.374400
H -25.117200 -13.885100 -43.704700
C -25.020800 -12.014500 -45.457600
C -24.879900 -10.944000 -46.521100
C -24.193300 -13.950500 -43.454200
H -23.921100 -14.586900 -42.789000
N -23.665800 -12.221800 -44.987800
N -23.646900 -9.019000 -48.167800
N -23.456200 -10.661800 -46.542600
C -23.288800 -13.155300 -44.028600
C -22.917100 -9.749700 -47.416600
H -22.914700 -7.315200 -48.957100
C -22.770900 -11.414100 -45.618200
H -22.735400 -8.541900 -49.902800
C -22.701300 -8.250700 -48.988700
C -21.848700 -13.134900 -43.752200
H -21.812400 -14.634400 -42.357600
N -21.572900 -9.665300 -47.572200
N -21.509700 -11.350600 -45.411200
C -21.318400 -8.500000 -48.400000
C -21.262900 -13.999000 -42.824100
H -21.081100 -9.899100 -46.843600
C -21.027100 -12.226300 -44.430700
H -21.017600 -7.754200 -47.875500
H -20.673200 -8.687800 -49.086500
C -19.916000 -13.957000 -42.565300
C -19.668400 -12.179300 -44.136100
H -19.529500 -14.565400 -41.929600
C -19.117700 -13.037400 -43.218700
H -19.108600 -11.538000 -44.580700
H -18.177500 -12.999000 -43.031200
H -25.590900 -6.722300 -44.743300
H -25.381800 -7.826700 -45.831600
H -25.381600 -5.165300 -46.289500
H -25.180800 -6.269700 -47.374400
H -25.117200 -8.890100 -43.704700
C -25.020800 -7.019500 -45.457600
C -24.879900 -5.949000 -46.521100
C -24.193300 -8.955500 -43.454200
H -23.921100 -9.591900 -42.789000
N -23.665800 -7.226800 -44.987800
N -23.646900 -4.024000 -48.167800
N -23.456200 -5.666800 -46.542600
C -23.288800 -8.160300 -44.028600
C -22.917100 -4.754700 -47.416600
H -22.914700 -2.320200 -48.957100
C -22.770900 -6.419100 -45.618200
H -22.735400 -3.546900 -49.902800
C -22.701300 -3.255700 -48.988700
C -21.848700 -8.139900 -43.752200
H -21.812400 -9.639400 -42.357600
N -21.572900 -4.670300 -47.572200
N -21.509700 -6.355600 -45.411200
C -21.318400 -3.505000 -48.400000
C -21.262900 -9.004000 -42.824100
H -21.081100 -4.904100 -46.843600
C -21.027100 -7.231300 -44.430700
H -21.017600 -2.759200 -47.875500
H -20.673200 -3.692800 -49.086500
C -19.916000 -8.962000 -42.565300
C -19.668400 -7.184300 -44.136100
H -19.529500 -9.570400 -41.929600
C -19.117700 -8.042400 -43.218700
H -19.108600 -6.543000 -44.580700
H -18.177500 -8.004000 -43.031200
