34
Fragment
H -25.590900 -11.717300 -44.743300
H -25.381800 -12.821700 -45.831600
H -25.381600 -10.160300 -46.289500
H -25.180800 -11.264700 -47.374400
H -25.117200 -13.885100 -43.704700
C -25.020800 -12.014500 -45.457600
C -24.879900 -10.944000 -46.521100
C -24.193300 -13.950500 -43.454200
H -23.921100 -14.586900 -42.789000
N -23.665800 -12.221800 -44.987800
N -23.646900 -9.019000 -48.167800
N -23.456200 -10.661800 -46.542600
C -23.288800 -13.155300 -44.028600
C -22.917100 -9.749700 -47.416600
H -22.914700 -7.315200 -48.957100
C -22.770900 -11.414100 -45.618200
H -22.735400 -8.541900 -49.902800
C -22.701300 -8.250700 -48.988700
C -21.848700 -13.134900 -43.752200
H -21.812400 -14.634400 -42.357600
N -21.572900 -9.665300 -47.572200
N -21.509700 -11.350600 -45.411200
C -21.318400 -8.500000 -48.400000
C -21.262900 -13.999000 -42.824100
H -21.081100 -9.899100 -46.843600
C -21.027100 -12.226300 -44.430700
H -21.017600 -7.754200 -47.875500
H -20.673200 -8.687800 -49.086500
C -19.916000 -13.957000 -42.565300
C -19.668400 -12.179300 -44.136100
H -19.529500 -14.565400 -41.929600
C -19.117700 -13.037400 -43.218700
H -19.108600 -11.538000 -44.580700
H -18.177500 -12.999000 -43.031200
34
Fragment
H -25.590900 -16.712300 -44.743300
H -25.381800 -17.816700 -45.831600
H -25.381600 -15.155300 -46.289500
H -25.180800 -16.259700 -47.374400
H -25.117200 -18.880100 -43.704700
C -25.020800 -17.009500 -45.457600
C -24.879900 -15.939000 -46.521100
C -24.193300 -18.945500 -43.454200
H -23.921100 -19.581900 -42.789000
N -23.665800 -17.216800 -44.987800
N -23.646900 -14.014000 -48.167800
N -23.456200 -15.656800 -46.542600
C -23.288800 -18.150300 -44.028600
C -22.917100 -14.744700 -47.416600
H -22.914700 -12.310200 -48.957100
C -22.770900 -16.409100 -45.618200
H -22.735400 -13.536900 -49.902800
C -22.701300 -13.245700 -48.988700
C -21.848700 -18.129900 -43.752200
H -21.812400 -19.629400 -42.357600
N -21.572900 -14.660300 -47.572200
N -21.509700 -16.345600 -45.411200
C -21.318400 -13.495000 -48.400000
C -21.262900 -18.994000 -42.824100
H -21.081100 -14.894100 -46.843600
C -21.027100 -17.221300 -44.430700
H -21.017600 -12.749200 -47.875500
H -20.673200 -13.682800 -49.086500
C -19.916000 -18.952000 -42.565300
C -19.668400 -17.174300 -44.136100
H -19.529500 -19.560400 -41.929600
C -19.117700 -18.032400 -43.218700
H -19.108600 -16.533000 -44.580700
H -18.177500 -17.994000 -43.031200
68
Fragment
H -25.590900 -11.717300 -44.743300
H -25.381800 -12.821700 -45.831600
H -25.381600 -10.160300 -46.289500
H -25.180800 -11.264700 -47.374400
H -25.117200 -13.885100 -43.704700
C -25.020800 -12.014500 -45.457600
C -24.879900 -10.944000 -46.521100
C -24.193300 -13.950500 -43.454200
H -23.921100 -14.586900 -42.789000
N -23.665800 -12.221800 -44.987800
N -23.646900 -9.019000 -48.167800
N -23.456200 -10.661800 -46.542600
C -23.288800 -13.155300 -44.028600
C -22.917100 -9.749700 -47.416600
H -22.914700 -7.315200 -48.957100
C -22.770900 -11.414100 -45.618200
H -22.735400 -8.541900 -49.902800
C -22.701300 -8.250700 -48.988700
C -21.848700 -13.134900 -43.752200
H -21.812400 -14.634400 -42.357600
N -21.572900 -9.665300 -47.572200
N -21.509700 -11.350600 -45.411200
C -21.318400 -8.500000 -48.400000
C -21.262900 -13.999000 -42.824100
H -21.081100 -9.899100 -46.843600
C -21.027100 -12.226300 -44.430700
H -21.017600 -7.754200 -47.875500
H -20.673200 -8.687800 -49.086500
C -19.916000 -13.957000 -42.565300
C -19.668400 -12.179300 -44.136100
H -19.529500 -14.565400 -41.929600
C -19.117700 -13.037400 -43.218700
H -19.108600 -11.538000 -44.580700
H -18.177500 -12.999000 -43.031200
H -25.590900 -16.712300 -44.743300
H -25.381800 -17.816700 -45.831600
H -25.381600 -15.155300 -46.289500
H -25.180800 -16.259700 -47.374400
H -25.117200 -18.880100 -43.704700
C -25.020800 -17.009500 -45.457600
C -24.879900 -15.939000 -46.521100
C -24.193300 -18.945500 -43.454200
H -23.921100 -19.581900 -42.789000
N -23.665800 -17.216800 -44.987800
N -23.646900 -14.014000 -48.167800
N -23.456200 -15.656800 -46.542600
C -23.288800 -18.150300 -44.028600
C -22.917100 -14.744700 -47.416600
H -22.914700 -12.310200 -48.957100
C -22.770900 -16.409100 -45.618200
H -22.735400 -13.536900 -49.902800
C -22.701300 -13.245700 -48.988700
C -21.848700 -18.129900 -43.752200
H -21.812400 -19.629400 -42.357600
N -21.572900 -14.660300 -47.572200
N -21.509700 -16.345600 -45.411200
C -21.318400 -13.495000 -48.400000
C -21.262900 -18.994000 -42.824100
H -21.081100 -14.894100 -46.843600
C -21.027100 -17.221300 -44.430700
H -21.017600 -12.749200 -47.875500
H -20.673200 -13.682800 -49.086500
C -19.916000 -18.952000 -42.565300
C -19.668400 -17.174300 -44.136100
H -19.529500 -19.560400 -41.929600
C -19.117700 -18.032400 -43.218700
H -19.108600 -16.533000 -44.580700
H -18.177500 -17.994000 -43.031200
