34
Fragment
H -25.590900 -11.717300 -44.743300
H -25.381800 -12.821700 -45.831600
H -25.381600 -10.160300 -46.289500
H -25.180800 -11.264700 -47.374400
H -25.117200 -13.885100 -43.704700
C -25.020800 -12.014500 -45.457600
C -24.879900 -10.944000 -46.521100
C -24.193300 -13.950500 -43.454200
H -23.921100 -14.586900 -42.789000
N -23.665800 -12.221800 -44.987800
N -23.646900 -9.019000 -48.167800
N -23.456200 -10.661800 -46.542600
C -23.288800 -13.155300 -44.028600
C -22.917100 -9.749700 -47.416600
H -22.914700 -7.315200 -48.957100
C -22.770900 -11.414100 -45.618200
H -22.735400 -8.541900 -49.902800
C -22.701300 -8.250700 -48.988700
C -21.848700 -13.134900 -43.752200
H -21.812400 -14.634400 -42.357600
N -21.572900 -9.665300 -47.572200
N -21.509700 -11.350600 -45.411200
C -21.318400 -8.500000 -48.400000
C -21.262900 -13.999000 -42.824100
H -21.081100 -9.899100 -46.843600
C -21.027100 -12.226300 -44.430700
H -21.017600 -7.754200 -47.875500
H -20.673200 -8.687800 -49.086500
C -19.916000 -13.957000 -42.565300
C -19.668400 -12.179300 -44.136100
H -19.529500 -14.565400 -41.929600
C -19.117700 -13.037400 -43.218700
H -19.108600 -11.538000 -44.580700
H -18.177500 -12.999000 -43.031200
34
Fragment
H -30.899200 -11.412600 -37.367400
H -30.602600 -10.633900 -38.807400
H -30.462800 -13.585400 -36.345400
C -30.347000 -11.276700 -38.142800
H -29.720500 -12.431100 -35.595500
C -29.600900 -13.219800 -36.131100
H -29.251900 -15.029500 -35.210600
C -29.227200 -11.985000 -38.294100
H -29.201900 -10.385600 -40.426600
N -28.850700 -12.921600 -37.338500
C -28.749600 -14.235300 -35.409400
C -28.447200 -10.978000 -40.442500
H -28.400900 -13.873600 -34.590200
C -28.280400 -11.898600 -39.410200
C -27.748000 -13.698300 -37.467600
H -27.679500 -10.254200 -42.181800
N -27.675900 -14.514000 -36.361300
C -27.554800 -10.900600 -41.483000
C -27.176500 -12.759200 -39.443100
N -26.905600 -13.691300 -38.440700
N -26.705900 -16.136800 -35.021200
C -26.681500 -15.417600 -36.076300
C -26.477300 -11.760700 -41.514200
C -26.289300 -12.684300 -40.512200
H -25.852400 -11.713300 -42.241500
H -25.665400 -17.863100 -34.965100
H -25.660200 -15.238200 -37.752200
N -25.626000 -15.556400 -36.884300
H -25.541000 -13.283700 -40.552600
C -25.469100 -16.927100 -35.052000
H -24.885200 -16.669300 -34.334700
H -24.869700 -17.397600 -36.982500
C -24.820600 -16.636300 -36.400200
H -23.903100 -16.373600 -36.299000
68
Fragment
H -25.590900 -11.717300 -44.743300
H -25.381800 -12.821700 -45.831600
H -25.381600 -10.160300 -46.289500
H -25.180800 -11.264700 -47.374400
H -25.117200 -13.885100 -43.704700
C -25.020800 -12.014500 -45.457600
C -24.879900 -10.944000 -46.521100
C -24.193300 -13.950500 -43.454200
H -23.921100 -14.586900 -42.789000
N -23.665800 -12.221800 -44.987800
N -23.646900 -9.019000 -48.167800
N -23.456200 -10.661800 -46.542600
C -23.288800 -13.155300 -44.028600
C -22.917100 -9.749700 -47.416600
H -22.914700 -7.315200 -48.957100
C -22.770900 -11.414100 -45.618200
H -22.735400 -8.541900 -49.902800
C -22.701300 -8.250700 -48.988700
C -21.848700 -13.134900 -43.752200
H -21.812400 -14.634400 -42.357600
N -21.572900 -9.665300 -47.572200
N -21.509700 -11.350600 -45.411200
C -21.318400 -8.500000 -48.400000
C -21.262900 -13.999000 -42.824100
H -21.081100 -9.899100 -46.843600
C -21.027100 -12.226300 -44.430700
H -21.017600 -7.754200 -47.875500
H -20.673200 -8.687800 -49.086500
C -19.916000 -13.957000 -42.565300
C -19.668400 -12.179300 -44.136100
H -19.529500 -14.565400 -41.929600
C -19.117700 -13.037400 -43.218700
H -19.108600 -11.538000 -44.580700
H -18.177500 -12.999000 -43.031200
H -30.899200 -11.412600 -37.367400
H -30.602600 -10.633900 -38.807400
H -30.462800 -13.585400 -36.345400
C -30.347000 -11.276700 -38.142800
H -29.720500 -12.431100 -35.595500
C -29.600900 -13.219800 -36.131100
H -29.251900 -15.029500 -35.210600
C -29.227200 -11.985000 -38.294100
H -29.201900 -10.385600 -40.426600
N -28.850700 -12.921600 -37.338500
C -28.749600 -14.235300 -35.409400
C -28.447200 -10.978000 -40.442500
H -28.400900 -13.873600 -34.590200
C -28.280400 -11.898600 -39.410200
C -27.748000 -13.698300 -37.467600
H -27.679500 -10.254200 -42.181800
N -27.675900 -14.514000 -36.361300
C -27.554800 -10.900600 -41.483000
C -27.176500 -12.759200 -39.443100
N -26.905600 -13.691300 -38.440700
N -26.705900 -16.136800 -35.021200
C -26.681500 -15.417600 -36.076300
C -26.477300 -11.760700 -41.514200
C -26.289300 -12.684300 -40.512200
H -25.852400 -11.713300 -42.241500
H -25.665400 -17.863100 -34.965100
H -25.660200 -15.238200 -37.752200
N -25.626000 -15.556400 -36.884300
H -25.541000 -13.283700 -40.552600
C -25.469100 -16.927100 -35.052000
H -24.885200 -16.669300 -34.334700
H -24.869700 -17.397600 -36.982500
C -24.820600 -16.636300 -36.400200
H -23.903100 -16.373600 -36.299000
