34
Fragment
H -25.590900 -11.717300 -44.743300
H -25.381800 -12.821700 -45.831600
H -25.381600 -10.160300 -46.289500
H -25.180800 -11.264700 -47.374400
H -25.117200 -13.885100 -43.704700
C -25.020800 -12.014500 -45.457600
C -24.879900 -10.944000 -46.521100
C -24.193300 -13.950500 -43.454200
H -23.921100 -14.586900 -42.789000
N -23.665800 -12.221800 -44.987800
N -23.646900 -9.019000 -48.167800
N -23.456200 -10.661800 -46.542600
C -23.288800 -13.155300 -44.028600
C -22.917100 -9.749700 -47.416600
H -22.914700 -7.315200 -48.957100
C -22.770900 -11.414100 -45.618200
H -22.735400 -8.541900 -49.902800
C -22.701300 -8.250700 -48.988700
C -21.848700 -13.134900 -43.752200
H -21.812400 -14.634400 -42.357600
N -21.572900 -9.665300 -47.572200
N -21.509700 -11.350600 -45.411200
C -21.318400 -8.500000 -48.400000
C -21.262900 -13.999000 -42.824100
H -21.081100 -9.899100 -46.843600
C -21.027100 -12.226300 -44.430700
H -21.017600 -7.754200 -47.875500
H -20.673200 -8.687800 -49.086500
C -19.916000 -13.957000 -42.565300
C -19.668400 -12.179300 -44.136100
H -19.529500 -14.565400 -41.929600
C -19.117700 -13.037400 -43.218700
H -19.108600 -11.538000 -44.580700
H -18.177500 -12.999000 -43.031200
34
Fragment
H -18.719600 -18.871100 -46.651100
C -17.802000 -19.133800 -46.549900
H -17.753000 -19.895100 -45.967600
H -17.737500 -19.166800 -48.615400
C -17.153600 -19.424600 -47.898000
H -17.081700 -15.781200 -42.397400
N -16.996700 -18.053900 -46.065800
H -16.962500 -17.735700 -45.197800
H -16.957300 -20.360600 -47.985000
H -16.770300 -14.210800 -40.708600
C -16.333400 -15.181800 -42.437900
C -16.145400 -14.258200 -41.435900
C -15.941200 -17.915100 -46.873800
N -15.916800 -18.634300 -47.928900
N -15.717100 -16.188800 -44.509400
C -15.446200 -15.256700 -43.507000
C -15.067900 -13.398100 -41.467100
N -14.946700 -17.011500 -46.588700
H -14.943200 -12.751700 -40.768300
C -14.874700 -16.195800 -45.482500
C -14.342300 -14.396100 -43.539800
H -14.221800 -16.371100 -48.359900
C -14.175500 -13.475500 -42.507600
C -13.873100 -16.732800 -47.540700
N -13.772000 -15.419100 -45.611600
H -13.420700 -12.883100 -42.523500
C -13.395500 -14.482500 -44.656000
H -13.370800 -17.527000 -47.739400
C -13.021800 -15.717300 -46.819000
H -12.902200 -14.928600 -47.354500
C -12.275700 -13.774200 -44.807300
H -12.159900 -16.082900 -46.604700
H -12.020100 -13.131400 -44.142700
H -11.723500 -13.910100 -45.582700
68
Fragment
H -25.590900 -11.717300 -44.743300
H -25.381800 -12.821700 -45.831600
H -25.381600 -10.160300 -46.289500
H -25.180800 -11.264700 -47.374400
H -25.117200 -13.885100 -43.704700
C -25.020800 -12.014500 -45.457600
C -24.879900 -10.944000 -46.521100
C -24.193300 -13.950500 -43.454200
H -23.921100 -14.586900 -42.789000
N -23.665800 -12.221800 -44.987800
N -23.646900 -9.019000 -48.167800
N -23.456200 -10.661800 -46.542600
C -23.288800 -13.155300 -44.028600
C -22.917100 -9.749700 -47.416600
H -22.914700 -7.315200 -48.957100
C -22.770900 -11.414100 -45.618200
H -22.735400 -8.541900 -49.902800
C -22.701300 -8.250700 -48.988700
C -21.848700 -13.134900 -43.752200
H -21.812400 -14.634400 -42.357600
N -21.572900 -9.665300 -47.572200
N -21.509700 -11.350600 -45.411200
C -21.318400 -8.500000 -48.400000
C -21.262900 -13.999000 -42.824100
H -21.081100 -9.899100 -46.843600
C -21.027100 -12.226300 -44.430700
H -21.017600 -7.754200 -47.875500
H -20.673200 -8.687800 -49.086500
C -19.916000 -13.957000 -42.565300
C -19.668400 -12.179300 -44.136100
H -19.529500 -14.565400 -41.929600
C -19.117700 -13.037400 -43.218700
H -19.108600 -11.538000 -44.580700
H -18.177500 -12.999000 -43.031200
H -18.719600 -18.871100 -46.651100
C -17.802000 -19.133800 -46.549900
H -17.753000 -19.895100 -45.967600
H -17.737500 -19.166800 -48.615400
C -17.153600 -19.424600 -47.898000
H -17.081700 -15.781200 -42.397400
N -16.996700 -18.053900 -46.065800
H -16.962500 -17.735700 -45.197800
H -16.957300 -20.360600 -47.985000
H -16.770300 -14.210800 -40.708600
C -16.333400 -15.181800 -42.437900
C -16.145400 -14.258200 -41.435900
C -15.941200 -17.915100 -46.873800
N -15.916800 -18.634300 -47.928900
N -15.717100 -16.188800 -44.509400
C -15.446200 -15.256700 -43.507000
C -15.067900 -13.398100 -41.467100
N -14.946700 -17.011500 -46.588700
H -14.943200 -12.751700 -40.768300
C -14.874700 -16.195800 -45.482500
C -14.342300 -14.396100 -43.539800
H -14.221800 -16.371100 -48.359900
C -14.175500 -13.475500 -42.507600
C -13.873100 -16.732800 -47.540700
N -13.772000 -15.419100 -45.611600
H -13.420700 -12.883100 -42.523500
C -13.395500 -14.482500 -44.656000
H -13.370800 -17.527000 -47.739400
C -13.021800 -15.717300 -46.819000
H -12.902200 -14.928600 -47.354500
C -12.275700 -13.774200 -44.807300
H -12.159900 -16.082900 -46.604700
H -12.020100 -13.131400 -44.142700
H -11.723500 -13.910100 -45.582700
