34
Fragment
H -25.590900 -11.717300 -44.743300
H -25.381800 -12.821700 -45.831600
H -25.381600 -10.160300 -46.289500
H -25.180800 -11.264700 -47.374400
H -25.117200 -13.885100 -43.704700
C -25.020800 -12.014500 -45.457600
C -24.879900 -10.944000 -46.521100
C -24.193300 -13.950500 -43.454200
H -23.921100 -14.586900 -42.789000
N -23.665800 -12.221800 -44.987800
N -23.646900 -9.019000 -48.167800
N -23.456200 -10.661800 -46.542600
C -23.288800 -13.155300 -44.028600
C -22.917100 -9.749700 -47.416600
H -22.914700 -7.315200 -48.957100
C -22.770900 -11.414100 -45.618200
H -22.735400 -8.541900 -49.902800
C -22.701300 -8.250700 -48.988700
C -21.848700 -13.134900 -43.752200
H -21.812400 -14.634400 -42.357600
N -21.572900 -9.665300 -47.572200
N -21.509700 -11.350600 -45.411200
C -21.318400 -8.500000 -48.400000
C -21.262900 -13.999000 -42.824100
H -21.081100 -9.899100 -46.843600
C -21.027100 -12.226300 -44.430700
H -21.017600 -7.754200 -47.875500
H -20.673200 -8.687800 -49.086500
C -19.916000 -13.957000 -42.565300
C -19.668400 -12.179300 -44.136100
H -19.529500 -14.565400 -41.929600
C -19.117700 -13.037400 -43.218700
H -19.108600 -11.538000 -44.580700
H -18.177500 -12.999000 -43.031200
34
Fragment
H -23.398500 -1.986000 -56.508900
H -22.467400 -3.447000 -54.959400
C -22.458300 -1.947600 -56.321400
H -22.046500 -0.419600 -57.610500
C -21.907600 -2.805700 -55.404000
C -21.660000 -1.028000 -56.974800
H -20.902800 -6.297200 -50.453600
H -20.558400 -7.230800 -51.664600
C -20.548900 -2.758700 -55.109400
H -20.494900 -5.085900 -52.696500
C -20.313100 -0.986000 -56.716000
C -20.257600 -6.485000 -51.140100
N -20.066400 -3.634400 -54.128900
N -20.003100 -5.319700 -51.967900
H -19.763600 -0.350600 -57.182500
C -19.727400 -1.850100 -55.787900
C -18.874700 -6.734300 -50.551400
H -18.840700 -6.443100 -49.637300
C -18.805200 -3.570900 -53.921900
H -18.661400 -7.669800 -50.583000
C -18.658900 -5.235300 -52.123500
C -18.287300 -1.829700 -55.511500
N -18.119800 -4.323200 -52.997500
N -17.929100 -5.966000 -51.372300
N -17.910200 -2.763200 -54.552300
H -17.654900 -0.398100 -56.751100
C -17.382800 -1.034500 -56.085900
C -16.696200 -4.041000 -53.019000
C -16.555200 -2.970500 -54.082500
H -16.458800 -1.099900 -55.835400
H -16.395200 -3.720300 -52.165600
H -16.194400 -4.824700 -53.250600
H -16.194200 -2.163300 -53.708500
H -15.985200 -3.267700 -54.796800
68
Fragment
H -25.590900 -11.717300 -44.743300
H -25.381800 -12.821700 -45.831600
H -25.381600 -10.160300 -46.289500
H -25.180800 -11.264700 -47.374400
H -25.117200 -13.885100 -43.704700
C -25.020800 -12.014500 -45.457600
C -24.879900 -10.944000 -46.521100
C -24.193300 -13.950500 -43.454200
H -23.921100 -14.586900 -42.789000
N -23.665800 -12.221800 -44.987800
N -23.646900 -9.019000 -48.167800
N -23.456200 -10.661800 -46.542600
C -23.288800 -13.155300 -44.028600
C -22.917100 -9.749700 -47.416600
H -22.914700 -7.315200 -48.957100
C -22.770900 -11.414100 -45.618200
H -22.735400 -8.541900 -49.902800
C -22.701300 -8.250700 -48.988700
C -21.848700 -13.134900 -43.752200
H -21.812400 -14.634400 -42.357600
N -21.572900 -9.665300 -47.572200
N -21.509700 -11.350600 -45.411200
C -21.318400 -8.500000 -48.400000
C -21.262900 -13.999000 -42.824100
H -21.081100 -9.899100 -46.843600
C -21.027100 -12.226300 -44.430700
H -21.017600 -7.754200 -47.875500
H -20.673200 -8.687800 -49.086500
C -19.916000 -13.957000 -42.565300
C -19.668400 -12.179300 -44.136100
H -19.529500 -14.565400 -41.929600
C -19.117700 -13.037400 -43.218700
H -19.108600 -11.538000 -44.580700
H -18.177500 -12.999000 -43.031200
H -23.398500 -1.986000 -56.508900
H -22.467400 -3.447000 -54.959400
C -22.458300 -1.947600 -56.321400
H -22.046500 -0.419600 -57.610500
C -21.907600 -2.805700 -55.404000
C -21.660000 -1.028000 -56.974800
H -20.902800 -6.297200 -50.453600
H -20.558400 -7.230800 -51.664600
C -20.548900 -2.758700 -55.109400
H -20.494900 -5.085900 -52.696500
C -20.313100 -0.986000 -56.716000
C -20.257600 -6.485000 -51.140100
N -20.066400 -3.634400 -54.128900
N -20.003100 -5.319700 -51.967900
H -19.763600 -0.350600 -57.182500
C -19.727400 -1.850100 -55.787900
C -18.874700 -6.734300 -50.551400
H -18.840700 -6.443100 -49.637300
C -18.805200 -3.570900 -53.921900
H -18.661400 -7.669800 -50.583000
C -18.658900 -5.235300 -52.123500
C -18.287300 -1.829700 -55.511500
N -18.119800 -4.323200 -52.997500
N -17.929100 -5.966000 -51.372300
N -17.910200 -2.763200 -54.552300
H -17.654900 -0.398100 -56.751100
C -17.382800 -1.034500 -56.085900
C -16.696200 -4.041000 -53.019000
C -16.555200 -2.970500 -54.082500
H -16.458800 -1.099900 -55.835400
H -16.395200 -3.720300 -52.165600
H -16.194400 -4.824700 -53.250600
H -16.194200 -2.163300 -53.708500
H -15.985200 -3.267700 -54.796800
