22
Fragment
H -24.932400 -10.867500 -20.630700
H -24.222100 -11.836000 -21.688300
C -24.077800 -11.256400 -20.911400
H -23.701300 -11.783200 -20.176000
O -23.166800 -10.205400 -21.261900
H -22.123000 -12.626700 -21.661700
C -21.911400 -10.584800 -21.672800
C -21.517700 -11.917300 -21.843600
O -21.443600 -8.247100 -21.749000
C -21.027800 -9.545200 -21.929100
H -20.801300 -7.725100 -21.892100
C -20.230700 -12.184800 -22.283000
O -19.881600 -13.514800 -22.433200
C -19.743800 -9.848000 -22.387300
C -19.332900 -11.167500 -22.571800
H -19.069900 -13.569500 -22.642000
O -18.970100 -8.754800 -22.661500
H -18.459100 -11.365100 -22.887900
C -17.587000 -9.003100 -22.965200
H -17.522400 -9.520200 -23.795000
H -17.177200 -9.508500 -22.232400
H -17.118400 -8.149300 -23.075100
22
Fragment
H -24.932400 -18.534300 -20.630700
H -24.222100 -19.502800 -21.688300
C -24.077800 -18.923200 -20.911400
H -23.701300 -19.450000 -20.176000
O -23.166800 -17.872200 -21.261900
H -22.123000 -20.293500 -21.661700
C -21.911400 -18.251600 -21.672800
C -21.517700 -19.584100 -21.843600
O -21.443600 -15.913900 -21.749000
C -21.027800 -17.212000 -21.929100
H -20.801300 -15.391900 -21.892100
C -20.230700 -19.851600 -22.283000
O -19.881600 -21.181600 -22.433200
C -19.743800 -17.514800 -22.387300
C -19.332900 -18.834300 -22.571800
H -19.069900 -21.236300 -22.642000
O -18.970100 -16.421600 -22.661500
H -18.459100 -19.031900 -22.887900
C -17.587000 -16.669900 -22.965200
H -17.522400 -17.187000 -23.795000
H -17.177200 -17.175300 -22.232400
H -17.118400 -15.816100 -23.075100
44
Fragment
H -24.932400 -10.867500 -20.630700
H -24.222100 -11.836000 -21.688300
C -24.077800 -11.256400 -20.911400
H -23.701300 -11.783200 -20.176000
O -23.166800 -10.205400 -21.261900
H -22.123000 -12.626700 -21.661700
C -21.911400 -10.584800 -21.672800
C -21.517700 -11.917300 -21.843600
O -21.443600 -8.247100 -21.749000
C -21.027800 -9.545200 -21.929100
H -20.801300 -7.725100 -21.892100
C -20.230700 -12.184800 -22.283000
O -19.881600 -13.514800 -22.433200
C -19.743800 -9.848000 -22.387300
C -19.332900 -11.167500 -22.571800
H -19.069900 -13.569500 -22.642000
O -18.970100 -8.754800 -22.661500
H -18.459100 -11.365100 -22.887900
C -17.587000 -9.003100 -22.965200
H -17.522400 -9.520200 -23.795000
H -17.177200 -9.508500 -22.232400
H -17.118400 -8.149300 -23.075100
H -24.932400 -18.534300 -20.630700
H -24.222100 -19.502800 -21.688300
C -24.077800 -18.923200 -20.911400
H -23.701300 -19.450000 -20.176000
O -23.166800 -17.872200 -21.261900
H -22.123000 -20.293500 -21.661700
C -21.911400 -18.251600 -21.672800
C -21.517700 -19.584100 -21.843600
O -21.443600 -15.913900 -21.749000
C -21.027800 -17.212000 -21.929100
H -20.801300 -15.391900 -21.892100
C -20.230700 -19.851600 -22.283000
O -19.881600 -21.181600 -22.433200
C -19.743800 -17.514800 -22.387300
C -19.332900 -18.834300 -22.571800
H -19.069900 -21.236300 -22.642000
O -18.970100 -16.421600 -22.661500
H -18.459100 -19.031900 -22.887900
C -17.587000 -16.669900 -22.965200
H -17.522400 -17.187000 -23.795000
H -17.177200 -17.175300 -22.232400
H -17.118400 -15.816100 -23.075100
