16
Fragment
N -15.814000 -10.107500 -23.856900
H -15.704700 -12.407300 -21.299800
C -15.548400 -10.223300 -22.747500
C -15.355200 -11.685700 -20.789200
C -15.203500 -10.425300 -21.354900
N -15.191300 -14.226000 -18.389300
C -15.114200 -13.192900 -18.855800
C -14.980600 -11.872100 -19.445500
C -14.707800 -9.360000 -20.602900
C -14.574300 -8.039200 -21.192700
N -14.497100 -7.006200 -21.659200
C -14.485000 -10.806800 -18.693600
C -14.333300 -9.546400 -19.259300
C -14.140100 -11.008900 -17.300900
H -13.983700 -8.824800 -18.748700
N -13.874500 -11.124700 -16.191600
18
Fragment
H -15.419200 -14.771500 -15.609000
H -15.069300 -16.248200 -16.116900
C -14.729800 -15.467600 -15.631900
O -14.389800 -15.848800 -14.288300
H -14.267400 -16.964900 -12.387100
H -13.932100 -15.122600 -16.084700
C -13.911000 -14.859900 -13.478300
O -13.889100 -16.550100 -11.762200
H -13.835600 -13.282000 -14.774700
C -13.661700 -13.551800 -13.880800
C -13.634200 -15.277500 -12.152700
C -13.155900 -12.646100 -12.958700
C -13.123600 -14.369900 -11.283700
H -13.097100 -11.208600 -14.113000
H -12.941900 -14.638100 -10.390600
O -12.938600 -11.319600 -13.295100
C -12.855000 -13.044600 -11.666100
H -12.473100 -12.431600 -11.048600
34
Fragment
N -15.814000 -10.107500 -23.856900
H -15.704700 -12.407300 -21.299800
C -15.548400 -10.223300 -22.747500
C -15.355200 -11.685700 -20.789200
C -15.203500 -10.425300 -21.354900
N -15.191300 -14.226000 -18.389300
C -15.114200 -13.192900 -18.855800
C -14.980600 -11.872100 -19.445500
C -14.707800 -9.360000 -20.602900
C -14.574300 -8.039200 -21.192700
N -14.497100 -7.006200 -21.659200
C -14.485000 -10.806800 -18.693600
C -14.333300 -9.546400 -19.259300
C -14.140100 -11.008900 -17.300900
H -13.983700 -8.824800 -18.748700
N -13.874500 -11.124700 -16.191600
H -15.419200 -14.771500 -15.609000
H -15.069300 -16.248200 -16.116900
C -14.729800 -15.467600 -15.631900
O -14.389800 -15.848800 -14.288300
H -14.267400 -16.964900 -12.387100
H -13.932100 -15.122600 -16.084700
C -13.911000 -14.859900 -13.478300
O -13.889100 -16.550100 -11.762200
H -13.835600 -13.282000 -14.774700
C -13.661700 -13.551800 -13.880800
C -13.634200 -15.277500 -12.152700
C -13.155900 -12.646100 -12.958700
C -13.123600 -14.369900 -11.283700
H -13.097100 -11.208600 -14.113000
H -12.941900 -14.638100 -10.390600
O -12.938600 -11.319600 -13.295100
C -12.855000 -13.044600 -11.666100
H -12.473100 -12.431600 -11.048600
