22
Fragment
H -24.932400 -10.867500 -20.630700
H -24.222100 -11.836000 -21.688300
C -24.077800 -11.256400 -20.911400
H -23.701300 -11.783200 -20.176000
O -23.166800 -10.205400 -21.261900
H -22.123000 -12.626700 -21.661700
C -21.911400 -10.584800 -21.672800
C -21.517700 -11.917300 -21.843600
O -21.443600 -8.247100 -21.749000
C -21.027800 -9.545200 -21.929100
H -20.801300 -7.725100 -21.892100
C -20.230700 -12.184800 -22.283000
O -19.881600 -13.514800 -22.433200
C -19.743800 -9.848000 -22.387300
C -19.332900 -11.167500 -22.571800
H -19.069900 -13.569500 -22.642000
O -18.970100 -8.754800 -22.661500
H -18.459100 -11.365100 -22.887900
C -17.587000 -9.003100 -22.965200
H -17.522400 -9.520200 -23.795000
H -17.177200 -9.508500 -22.232400
H -17.118400 -8.149300 -23.075100
22
Fragment
H -15.541900 -7.034100 -20.630700
H -14.831600 -8.002600 -21.688300
C -14.687300 -7.423000 -20.911400
H -14.310800 -7.949800 -20.176000
O -13.776300 -6.372000 -21.261900
H -12.732500 -8.793300 -21.661700
C -12.520900 -6.751400 -21.672800
C -12.127200 -8.083900 -21.843600
O -12.053100 -4.413700 -21.749000
C -11.637300 -5.711800 -21.929100
H -11.410800 -3.891700 -21.892100
C -10.840200 -8.351400 -22.283000
O -10.491100 -9.681400 -22.433200
C -10.353300 -6.014600 -22.387300
C -9.942400 -7.334100 -22.571800
H -9.679400 -9.736100 -22.642000
O -9.579600 -4.921400 -22.661500
H -9.068600 -7.531700 -22.887900
C -8.196500 -5.169700 -22.965200
H -8.131900 -5.686800 -23.795000
H -7.786700 -5.675100 -22.232400
H -7.727900 -4.315900 -23.075100
44
Fragment
H -24.932400 -10.867500 -20.630700
H -24.222100 -11.836000 -21.688300
C -24.077800 -11.256400 -20.911400
H -23.701300 -11.783200 -20.176000
O -23.166800 -10.205400 -21.261900
H -22.123000 -12.626700 -21.661700
C -21.911400 -10.584800 -21.672800
C -21.517700 -11.917300 -21.843600
O -21.443600 -8.247100 -21.749000
C -21.027800 -9.545200 -21.929100
H -20.801300 -7.725100 -21.892100
C -20.230700 -12.184800 -22.283000
O -19.881600 -13.514800 -22.433200
C -19.743800 -9.848000 -22.387300
C -19.332900 -11.167500 -22.571800
H -19.069900 -13.569500 -22.642000
O -18.970100 -8.754800 -22.661500
H -18.459100 -11.365100 -22.887900
C -17.587000 -9.003100 -22.965200
H -17.522400 -9.520200 -23.795000
H -17.177200 -9.508500 -22.232400
H -17.118400 -8.149300 -23.075100
H -15.541900 -7.034100 -20.630700
H -14.831600 -8.002600 -21.688300
C -14.687300 -7.423000 -20.911400
H -14.310800 -7.949800 -20.176000
O -13.776300 -6.372000 -21.261900
H -12.732500 -8.793300 -21.661700
C -12.520900 -6.751400 -21.672800
C -12.127200 -8.083900 -21.843600
O -12.053100 -4.413700 -21.749000
C -11.637300 -5.711800 -21.929100
H -11.410800 -3.891700 -21.892100
C -10.840200 -8.351400 -22.283000
O -10.491100 -9.681400 -22.433200
C -10.353300 -6.014600 -22.387300
C -9.942400 -7.334100 -22.571800
H -9.679400 -9.736100 -22.642000
O -9.579600 -4.921400 -22.661500
H -9.068600 -7.531700 -22.887900
C -8.196500 -5.169700 -22.965200
H -8.131900 -5.686800 -23.795000
H -7.786700 -5.675100 -22.232400
H -7.727900 -4.315900 -23.075100
