16
Fragment
N -15.814000 -10.107500 -23.856900
H -15.704700 -12.407300 -21.299800
C -15.548400 -10.223300 -22.747500
C -15.355200 -11.685700 -20.789200
C -15.203500 -10.425300 -21.354900
N -15.191300 -14.226000 -18.389300
C -15.114200 -13.192900 -18.855800
C -14.980600 -11.872100 -19.445500
C -14.707800 -9.360000 -20.602900
C -14.574300 -8.039200 -21.192700
N -14.497100 -7.006200 -21.659200
C -14.485000 -10.806800 -18.693600
C -14.333300 -9.546400 -19.259300
C -14.140100 -11.008900 -17.300900
H -13.983700 -8.824800 -18.748700
N -13.874500 -11.124700 -16.191600
18
Fragment
H -16.432400 -7.113500 -18.987800
C -16.050400 -6.500500 -18.370200
O -15.966800 -8.225600 -16.741300
H -15.963600 -4.907100 -19.645800
H -15.808300 -8.336500 -15.923400
C -15.781900 -5.175200 -18.752700
C -15.749500 -6.899000 -17.077700
C -15.271200 -4.267600 -17.883700
C -15.243700 -5.993400 -16.155600
H -15.069800 -6.263200 -15.261700
O -15.016300 -2.995100 -18.274100
C -14.994500 -4.685200 -16.558000
H -14.973300 -4.422500 -13.951700
H -14.638100 -2.580300 -17.649300
O -14.515600 -3.696300 -15.748100
C -14.175700 -4.077500 -14.404400
H -13.836200 -3.297000 -13.919500
H -13.486200 -4.773700 -14.427400
34
Fragment
N -15.814000 -10.107500 -23.856900
H -15.704700 -12.407300 -21.299800
C -15.548400 -10.223300 -22.747500
C -15.355200 -11.685700 -20.789200
C -15.203500 -10.425300 -21.354900
N -15.191300 -14.226000 -18.389300
C -15.114200 -13.192900 -18.855800
C -14.980600 -11.872100 -19.445500
C -14.707800 -9.360000 -20.602900
C -14.574300 -8.039200 -21.192700
N -14.497100 -7.006200 -21.659200
C -14.485000 -10.806800 -18.693600
C -14.333300 -9.546400 -19.259300
C -14.140100 -11.008900 -17.300900
H -13.983700 -8.824800 -18.748700
N -13.874500 -11.124700 -16.191600
H -16.432400 -7.113500 -18.987800
C -16.050400 -6.500500 -18.370200
O -15.966800 -8.225600 -16.741300
H -15.963600 -4.907100 -19.645800
H -15.808300 -8.336500 -15.923400
C -15.781900 -5.175200 -18.752700
C -15.749500 -6.899000 -17.077700
C -15.271200 -4.267600 -17.883700
C -15.243700 -5.993400 -16.155600
H -15.069800 -6.263200 -15.261700
O -15.016300 -2.995100 -18.274100
C -14.994500 -4.685200 -16.558000
H -14.973300 -4.422500 -13.951700
H -14.638100 -2.580300 -17.649300
O -14.515600 -3.696300 -15.748100
C -14.175700 -4.077500 -14.404400
H -13.836200 -3.297000 -13.919500
H -13.486200 -4.773700 -14.427400
