16
Fragment
N -15.814000 -10.107500 -23.856900
H -15.704700 -12.407300 -21.299800
C -15.548400 -10.223300 -22.747500
C -15.355200 -11.685700 -20.789200
C -15.203500 -10.425300 -21.354900
N -15.191300 -14.226000 -18.389300
C -15.114200 -13.192900 -18.855800
C -14.980600 -11.872100 -19.445500
C -14.707800 -9.360000 -20.602900
C -14.574300 -8.039200 -21.192700
N -14.497100 -7.006200 -21.659200
C -14.485000 -10.806800 -18.693600
C -14.333300 -9.546400 -19.259300
C -14.140100 -11.008900 -17.300900
H -13.983700 -8.824800 -18.748700
N -13.874500 -11.124700 -16.191600
16
Fragment
N -13.182400 -2.865400 -23.856900
H -13.073100 -5.165200 -21.299800
C -12.916700 -2.981200 -22.747500
C -12.723600 -4.443600 -20.789200
C -12.571900 -3.183200 -21.354900
N -12.559700 -6.983900 -18.389300
C -12.482500 -5.950800 -18.855800
C -12.349000 -4.630000 -19.445500
C -12.076200 -2.117900 -20.602900
C -11.942700 -0.797100 -21.192700
N -11.865500 0.235900 -21.659200
C -11.853400 -3.564700 -18.693600
C -11.701600 -2.304300 -19.259300
C -11.508500 -3.766800 -17.300900
H -11.352100 -1.582700 -18.748700
N -11.242900 -3.882600 -16.191600
32
Fragment
N -15.814000 -10.107500 -23.856900
H -15.704700 -12.407300 -21.299800
C -15.548400 -10.223300 -22.747500
C -15.355200 -11.685700 -20.789200
C -15.203500 -10.425300 -21.354900
N -15.191300 -14.226000 -18.389300
C -15.114200 -13.192900 -18.855800
C -14.980600 -11.872100 -19.445500
C -14.707800 -9.360000 -20.602900
C -14.574300 -8.039200 -21.192700
N -14.497100 -7.006200 -21.659200
C -14.485000 -10.806800 -18.693600
C -14.333300 -9.546400 -19.259300
C -14.140100 -11.008900 -17.300900
H -13.983700 -8.824800 -18.748700
N -13.874500 -11.124700 -16.191600
N -13.182400 -2.865400 -23.856900
H -13.073100 -5.165200 -21.299800
C -12.916700 -2.981200 -22.747500
C -12.723600 -4.443600 -20.789200
C -12.571900 -3.183200 -21.354900
N -12.559700 -6.983900 -18.389300
C -12.482500 -5.950800 -18.855800
C -12.349000 -4.630000 -19.445500
C -12.076200 -2.117900 -20.602900
C -11.942700 -0.797100 -21.192700
N -11.865500 0.235900 -21.659200
C -11.853400 -3.564700 -18.693600
C -11.701600 -2.304300 -19.259300
C -11.508500 -3.766800 -17.300900
H -11.352100 -1.582700 -18.748700
N -11.242900 -3.882600 -16.191600
