16
Fragment
N -15.814000 -10.107500 -23.856900
H -15.704700 -12.407300 -21.299800
C -15.548400 -10.223300 -22.747500
C -15.355200 -11.685700 -20.789200
C -15.203500 -10.425300 -21.354900
N -15.191300 -14.226000 -18.389300
C -15.114200 -13.192900 -18.855800
C -14.980600 -11.872100 -19.445500
C -14.707800 -9.360000 -20.602900
C -14.574300 -8.039200 -21.192700
N -14.497100 -7.006200 -21.659200
C -14.485000 -10.806800 -18.693600
C -14.333300 -9.546400 -19.259300
C -14.140100 -11.008900 -17.300900
H -13.983700 -8.824800 -18.748700
N -13.874500 -11.124700 -16.191600
18
Fragment
H -19.064000 -14.355600 -18.987800
C -18.682000 -13.742600 -18.370200
O -18.598400 -15.467700 -16.741300
H -18.595200 -12.149200 -19.645800
H -18.440000 -15.578600 -15.923400
C -18.413500 -12.417300 -18.752700
C -18.381200 -14.141100 -17.077700
C -17.902800 -11.509700 -17.883700
C -17.875300 -13.235500 -16.155600
H -17.701400 -13.505300 -15.261700
O -17.647900 -10.237200 -18.274100
C -17.626100 -11.927300 -16.558000
H -17.604900 -11.664600 -13.951700
H -17.269700 -9.822400 -17.649300
O -17.147200 -10.938400 -15.748100
C -16.807300 -11.319600 -14.404400
H -16.467800 -10.539100 -13.919500
H -16.117800 -12.015800 -14.427400
34
Fragment
N -15.814000 -10.107500 -23.856900
H -15.704700 -12.407300 -21.299800
C -15.548400 -10.223300 -22.747500
C -15.355200 -11.685700 -20.789200
C -15.203500 -10.425300 -21.354900
N -15.191300 -14.226000 -18.389300
C -15.114200 -13.192900 -18.855800
C -14.980600 -11.872100 -19.445500
C -14.707800 -9.360000 -20.602900
C -14.574300 -8.039200 -21.192700
N -14.497100 -7.006200 -21.659200
C -14.485000 -10.806800 -18.693600
C -14.333300 -9.546400 -19.259300
C -14.140100 -11.008900 -17.300900
H -13.983700 -8.824800 -18.748700
N -13.874500 -11.124700 -16.191600
H -19.064000 -14.355600 -18.987800
C -18.682000 -13.742600 -18.370200
O -18.598400 -15.467700 -16.741300
H -18.595200 -12.149200 -19.645800
H -18.440000 -15.578600 -15.923400
C -18.413500 -12.417300 -18.752700
C -18.381200 -14.141100 -17.077700
C -17.902800 -11.509700 -17.883700
C -17.875300 -13.235500 -16.155600
H -17.701400 -13.505300 -15.261700
O -17.647900 -10.237200 -18.274100
C -17.626100 -11.927300 -16.558000
H -17.604900 -11.664600 -13.951700
H -17.269700 -9.822400 -17.649300
O -17.147200 -10.938400 -15.748100
C -16.807300 -11.319600 -14.404400
H -16.467800 -10.539100 -13.919500
H -16.117800 -12.015800 -14.427400
