16
Fragment
N -15.814000 -10.107500 -23.856900
H -15.704700 -12.407300 -21.299800
C -15.548400 -10.223300 -22.747500
C -15.355200 -11.685700 -20.789200
C -15.203500 -10.425300 -21.354900
N -15.191300 -14.226000 -18.389300
C -15.114200 -13.192900 -18.855800
C -14.980600 -11.872100 -19.445500
C -14.707800 -9.360000 -20.602900
C -14.574300 -8.039200 -21.192700
N -14.497100 -7.006200 -21.659200
C -14.485000 -10.806800 -18.693600
C -14.333300 -9.546400 -19.259300
C -14.140100 -11.008900 -17.300900
H -13.983700 -8.824800 -18.748700
N -13.874500 -11.124700 -16.191600
16
Fragment
N -18.445600 -17.349500 -23.856900
H -18.336300 -19.649400 -21.299800
C -18.180000 -17.465300 -22.747500
C -17.986800 -18.927800 -20.789200
C -17.835100 -17.667400 -21.354900
N -17.822900 -21.468000 -18.389300
C -17.745800 -20.435000 -18.855800
C -17.612300 -19.114200 -19.445500
C -17.339400 -16.602100 -20.602900
C -17.205900 -15.281300 -21.192700
N -17.128700 -14.248300 -21.659200
C -17.116600 -18.048900 -18.693600
C -16.964900 -16.788500 -19.259300
C -16.771700 -18.251000 -17.300900
H -16.615300 -16.066900 -18.748700
N -16.506100 -18.366800 -16.191600
32
Fragment
N -15.814000 -10.107500 -23.856900
H -15.704700 -12.407300 -21.299800
C -15.548400 -10.223300 -22.747500
C -15.355200 -11.685700 -20.789200
C -15.203500 -10.425300 -21.354900
N -15.191300 -14.226000 -18.389300
C -15.114200 -13.192900 -18.855800
C -14.980600 -11.872100 -19.445500
C -14.707800 -9.360000 -20.602900
C -14.574300 -8.039200 -21.192700
N -14.497100 -7.006200 -21.659200
C -14.485000 -10.806800 -18.693600
C -14.333300 -9.546400 -19.259300
C -14.140100 -11.008900 -17.300900
H -13.983700 -8.824800 -18.748700
N -13.874500 -11.124700 -16.191600
N -18.445600 -17.349500 -23.856900
H -18.336300 -19.649400 -21.299800
C -18.180000 -17.465300 -22.747500
C -17.986800 -18.927800 -20.789200
C -17.835100 -17.667400 -21.354900
N -17.822900 -21.468000 -18.389300
C -17.745800 -20.435000 -18.855800
C -17.612300 -19.114200 -19.445500
C -17.339400 -16.602100 -20.602900
C -17.205900 -15.281300 -21.192700
N -17.128700 -14.248300 -21.659200
C -17.116600 -18.048900 -18.693600
C -16.964900 -16.788500 -19.259300
C -16.771700 -18.251000 -17.300900
H -16.615300 -16.066900 -18.748700
N -16.506100 -18.366800 -16.191600
