22
Fragment
H -24.932400 -10.867500 -20.630700
H -24.222100 -11.836000 -21.688300
C -24.077800 -11.256400 -20.911400
H -23.701300 -11.783200 -20.176000
O -23.166800 -10.205400 -21.261900
H -22.123000 -12.626700 -21.661700
C -21.911400 -10.584800 -21.672800
C -21.517700 -11.917300 -21.843600
O -21.443600 -8.247100 -21.749000
C -21.027800 -9.545200 -21.929100
H -20.801300 -7.725100 -21.892100
C -20.230700 -12.184800 -22.283000
O -19.881600 -13.514800 -22.433200
C -19.743800 -9.848000 -22.387300
C -19.332900 -11.167500 -22.571800
H -19.069900 -13.569500 -22.642000
O -18.970100 -8.754800 -22.661500
H -18.459100 -11.365100 -22.887900
C -17.587000 -9.003100 -22.965200
H -17.522400 -9.520200 -23.795000
H -17.177200 -9.508500 -22.232400
H -17.118400 -8.149300 -23.075100
16
Fragment
N -29.647700 -13.549500 -15.078600
C -28.586100 -13.530400 -15.503600
N -27.517500 -16.908400 -15.445100
C -27.240700 -13.473600 -16.031200
H -27.229100 -11.452800 -16.320700
C -27.045900 -15.913200 -15.761200
C -26.710500 -12.244600 -16.401900
C -26.482200 -14.645900 -16.151600
C -25.408900 -12.187900 -16.894500
C -25.180500 -14.589200 -16.644200
C -24.845100 -10.920600 -17.284900
H -24.661900 -15.381000 -16.725500
C -24.650400 -13.360200 -17.015000
N -24.373500 -9.925400 -17.601000
C -23.304900 -13.303400 -17.542500
N -22.243300 -13.284300 -17.967500
38
Fragment
H -24.932400 -10.867500 -20.630700
H -24.222100 -11.836000 -21.688300
C -24.077800 -11.256400 -20.911400
H -23.701300 -11.783200 -20.176000
O -23.166800 -10.205400 -21.261900
H -22.123000 -12.626700 -21.661700
C -21.911400 -10.584800 -21.672800
C -21.517700 -11.917300 -21.843600
O -21.443600 -8.247100 -21.749000
C -21.027800 -9.545200 -21.929100
H -20.801300 -7.725100 -21.892100
C -20.230700 -12.184800 -22.283000
O -19.881600 -13.514800 -22.433200
C -19.743800 -9.848000 -22.387300
C -19.332900 -11.167500 -22.571800
H -19.069900 -13.569500 -22.642000
O -18.970100 -8.754800 -22.661500
H -18.459100 -11.365100 -22.887900
C -17.587000 -9.003100 -22.965200
H -17.522400 -9.520200 -23.795000
H -17.177200 -9.508500 -22.232400
H -17.118400 -8.149300 -23.075100
N -29.647700 -13.549500 -15.078600
C -28.586100 -13.530400 -15.503600
N -27.517500 -16.908400 -15.445100
C -27.240700 -13.473600 -16.031200
H -27.229100 -11.452800 -16.320700
C -27.045900 -15.913200 -15.761200
C -26.710500 -12.244600 -16.401900
C -26.482200 -14.645900 -16.151600
C -25.408900 -12.187900 -16.894500
C -25.180500 -14.589200 -16.644200
C -24.845100 -10.920600 -17.284900
H -24.661900 -15.381000 -16.725500
C -24.650400 -13.360200 -17.015000
N -24.373500 -9.925400 -17.601000
C -23.304900 -13.303400 -17.542500
N -22.243300 -13.284300 -17.967500
