22
Fragment
H -24.932400 -10.867500 -20.630700
H -24.222100 -11.836000 -21.688300
C -24.077800 -11.256400 -20.911400
H -23.701300 -11.783200 -20.176000
O -23.166800 -10.205400 -21.261900
H -22.123000 -12.626700 -21.661700
C -21.911400 -10.584800 -21.672800
C -21.517700 -11.917300 -21.843600
O -21.443600 -8.247100 -21.749000
C -21.027800 -9.545200 -21.929100
H -20.801300 -7.725100 -21.892100
C -20.230700 -12.184800 -22.283000
O -19.881600 -13.514800 -22.433200
C -19.743800 -9.848000 -22.387300
C -19.332900 -11.167500 -22.571800
H -19.069900 -13.569500 -22.642000
O -18.970100 -8.754800 -22.661500
H -18.459100 -11.365100 -22.887900
C -17.587000 -9.003100 -22.965200
H -17.522400 -9.520200 -23.795000
H -17.177200 -9.508500 -22.232400
H -17.118400 -8.149300 -23.075100
22
Fragment
H -34.322900 -14.700900 -20.630700
H -33.612600 -15.669400 -21.688300
C -33.468300 -15.089800 -20.911400
H -33.091800 -15.616600 -20.176000
O -32.557300 -14.038800 -21.261900
H -31.513500 -16.460100 -21.661700
C -31.301900 -14.418200 -21.672800
C -30.908200 -15.750700 -21.843600
O -30.834100 -12.080500 -21.749000
C -30.418300 -13.378600 -21.929100
H -30.191800 -11.558500 -21.892100
C -29.621200 -16.018200 -22.283000
O -29.272100 -17.348200 -22.433200
C -29.134300 -13.681400 -22.387300
C -28.723400 -15.000900 -22.571800
H -28.460400 -17.402900 -22.642000
O -28.360600 -12.588200 -22.661500
H -27.849600 -15.198500 -22.887900
C -26.977500 -12.836500 -22.965200
H -26.912900 -13.353600 -23.795000
H -26.567700 -13.341900 -22.232400
H -26.508900 -11.982700 -23.075100
44
Fragment
H -24.932400 -10.867500 -20.630700
H -24.222100 -11.836000 -21.688300
C -24.077800 -11.256400 -20.911400
H -23.701300 -11.783200 -20.176000
O -23.166800 -10.205400 -21.261900
H -22.123000 -12.626700 -21.661700
C -21.911400 -10.584800 -21.672800
C -21.517700 -11.917300 -21.843600
O -21.443600 -8.247100 -21.749000
C -21.027800 -9.545200 -21.929100
H -20.801300 -7.725100 -21.892100
C -20.230700 -12.184800 -22.283000
O -19.881600 -13.514800 -22.433200
C -19.743800 -9.848000 -22.387300
C -19.332900 -11.167500 -22.571800
H -19.069900 -13.569500 -22.642000
O -18.970100 -8.754800 -22.661500
H -18.459100 -11.365100 -22.887900
C -17.587000 -9.003100 -22.965200
H -17.522400 -9.520200 -23.795000
H -17.177200 -9.508500 -22.232400
H -17.118400 -8.149300 -23.075100
H -34.322900 -14.700900 -20.630700
H -33.612600 -15.669400 -21.688300
C -33.468300 -15.089800 -20.911400
H -33.091800 -15.616600 -20.176000
O -32.557300 -14.038800 -21.261900
H -31.513500 -16.460100 -21.661700
C -31.301900 -14.418200 -21.672800
C -30.908200 -15.750700 -21.843600
O -30.834100 -12.080500 -21.749000
C -30.418300 -13.378600 -21.929100
H -30.191800 -11.558500 -21.892100
C -29.621200 -16.018200 -22.283000
O -29.272100 -17.348200 -22.433200
C -29.134300 -13.681400 -22.387300
C -28.723400 -15.000900 -22.571800
H -28.460400 -17.402900 -22.642000
O -28.360600 -12.588200 -22.661500
H -27.849600 -15.198500 -22.887900
C -26.977500 -12.836500 -22.965200
H -26.912900 -13.353600 -23.795000
H -26.567700 -13.341900 -22.232400
H -26.508900 -11.982700 -23.075100
