46
Fragment
H -18.916300 -6.029000 -35.330900
C -18.114100 -6.480700 -35.565600
N -17.840400 -6.559900 -36.877300
N -17.381000 -6.967100 -34.539700
H -17.013700 -7.000200 -39.184500
C -16.700100 -7.182700 -37.266800
H -16.429200 -10.085500 -32.203700
N -16.410500 -7.197700 -38.584000
C -16.292200 -7.589900 -34.979400
H -16.114400 -7.797800 -32.400000
O -16.050500 -9.120300 -30.017600
C -15.875600 -7.746300 -36.293200
H -15.779800 -8.945800 -29.301600
H -15.670900 -7.682100 -38.896300
C -15.489400 -9.774200 -32.214700
C -15.371800 -8.360100 -32.764300
N -15.332600 -8.232700 -34.214000
C -14.946500 -9.570600 -30.802400
H -14.936600 -10.413800 -32.730100
N -14.667800 -8.438300 -36.362900
H -14.549200 -10.411000 -30.433900
C -14.370200 -8.720100 -35.102700
O -14.125600 -7.877700 -32.272900
H -14.045400 -7.778400 -30.272400
C -13.893300 -8.475400 -30.972700
N -13.331500 -9.442200 -34.692500
H -13.036100 -9.346900 -33.884100
H -12.875900 -10.478400 -36.363700
C -12.454700 -8.902700 -30.914300
C -12.386500 -9.984800 -35.659000
H -12.233700 -9.192900 -29.994000
O -12.202800 -9.978800 -31.828300
H -11.938100 -10.652400 -31.401700
H -11.936400 -11.582400 -34.448900
H -11.887800 -9.245400 -36.088900
H -11.872900 -8.134200 -31.141500
H -11.794900 -12.877100 -36.879100
C -11.421100 -10.913400 -34.965000
N -10.939100 -12.617400 -36.761800
H -10.879900 -10.389100 -34.322300
C -10.500700 -11.628500 -35.899000
H -9.884800 -13.787100 -38.055000
C -9.854700 -13.093700 -37.406100
C -9.166600 -11.553300 -36.095100
N -8.753600 -12.488000 -37.032200
H -8.589500 -10.942400 -35.651300
46
Fragment
H -11.657900 -6.029000 -35.330900
C -10.855700 -6.480700 -35.565600
N -10.582000 -6.559900 -36.877300
N -10.122600 -6.967100 -34.539700
H -9.755300 -7.000200 -39.184500
C -9.441700 -7.182700 -37.266800
H -9.170800 -10.085500 -32.203700
N -9.152100 -7.197700 -38.584000
C -9.033800 -7.589900 -34.979400
H -8.856000 -7.797800 -32.400000
O -8.792100 -9.120300 -30.017600
C -8.617200 -7.746300 -36.293200
H -8.521400 -8.945800 -29.301600
H -8.412500 -7.682100 -38.896300
C -8.231000 -9.774200 -32.214700
C -8.113400 -8.360100 -32.764300
N -8.074200 -8.232700 -34.214000
C -7.688100 -9.570600 -30.802400
H -7.678200 -10.413800 -32.730100
N -7.409400 -8.438300 -36.362900
H -7.290800 -10.411000 -30.433900
C -7.111800 -8.720100 -35.102700
O -6.867200 -7.877700 -32.272900
H -6.787000 -7.778400 -30.272400
C -6.634900 -8.475400 -30.972700
N -6.073100 -9.442200 -34.692500
H -5.777700 -9.346900 -33.884100
H -5.617500 -10.478400 -36.363700
C -5.196300 -8.902700 -30.914300
C -5.128100 -9.984800 -35.659000
H -4.975300 -9.192900 -29.994000
O -4.944400 -9.978800 -31.828300
H -4.679700 -10.652400 -31.401700
H -4.678000 -11.582400 -34.448900
H -4.629400 -9.245400 -36.088900
H -4.614500 -8.134200 -31.141500
H -4.536500 -12.877100 -36.879100
C -4.162700 -10.913400 -34.965000
N -3.680700 -12.617400 -36.761800
H -3.621500 -10.389100 -34.322300
C -3.242300 -11.628500 -35.899000
H -2.626400 -13.787100 -38.055000
C -2.596300 -13.093700 -37.406100
C -1.908200 -11.553300 -36.095100
N -1.495200 -12.488000 -37.032200
H -1.331100 -10.942400 -35.651300
92
Fragment
H -18.916300 -6.029000 -35.330900
C -18.114100 -6.480700 -35.565600
N -17.840400 -6.559900 -36.877300
N -17.381000 -6.967100 -34.539700
H -17.013700 -7.000200 -39.184500
C -16.700100 -7.182700 -37.266800
H -16.429200 -10.085500 -32.203700
N -16.410500 -7.197700 -38.584000
C -16.292200 -7.589900 -34.979400
H -16.114400 -7.797800 -32.400000
O -16.050500 -9.120300 -30.017600
C -15.875600 -7.746300 -36.293200
H -15.779800 -8.945800 -29.301600
H -15.670900 -7.682100 -38.896300
C -15.489400 -9.774200 -32.214700
C -15.371800 -8.360100 -32.764300
N -15.332600 -8.232700 -34.214000
C -14.946500 -9.570600 -30.802400
H -14.936600 -10.413800 -32.730100
N -14.667800 -8.438300 -36.362900
H -14.549200 -10.411000 -30.433900
C -14.370200 -8.720100 -35.102700
O -14.125600 -7.877700 -32.272900
H -14.045400 -7.778400 -30.272400
C -13.893300 -8.475400 -30.972700
N -13.331500 -9.442200 -34.692500
H -13.036100 -9.346900 -33.884100
H -12.875900 -10.478400 -36.363700
C -12.454700 -8.902700 -30.914300
C -12.386500 -9.984800 -35.659000
H -12.233700 -9.192900 -29.994000
O -12.202800 -9.978800 -31.828300
H -11.938100 -10.652400 -31.401700
H -11.936400 -11.582400 -34.448900
H -11.887800 -9.245400 -36.088900
H -11.872900 -8.134200 -31.141500
H -11.794900 -12.877100 -36.879100
C -11.421100 -10.913400 -34.965000
N -10.939100 -12.617400 -36.761800
H -10.879900 -10.389100 -34.322300
C -10.500700 -11.628500 -35.899000
H -9.884800 -13.787100 -38.055000
C -9.854700 -13.093700 -37.406100
C -9.166600 -11.553300 -36.095100
N -8.753600 -12.488000 -37.032200
H -8.589500 -10.942400 -35.651300
H -11.657900 -6.029000 -35.330900
C -10.855700 -6.480700 -35.565600
N -10.582000 -6.559900 -36.877300
N -10.122600 -6.967100 -34.539700
H -9.755300 -7.000200 -39.184500
C -9.441700 -7.182700 -37.266800
H -9.170800 -10.085500 -32.203700
N -9.152100 -7.197700 -38.584000
C -9.033800 -7.589900 -34.979400
H -8.856000 -7.797800 -32.400000
O -8.792100 -9.120300 -30.017600
C -8.617200 -7.746300 -36.293200
H -8.521400 -8.945800 -29.301600
H -8.412500 -7.682100 -38.896300
C -8.231000 -9.774200 -32.214700
C -8.113400 -8.360100 -32.764300
N -8.074200 -8.232700 -34.214000
C -7.688100 -9.570600 -30.802400
H -7.678200 -10.413800 -32.730100
N -7.409400 -8.438300 -36.362900
H -7.290800 -10.411000 -30.433900
C -7.111800 -8.720100 -35.102700
O -6.867200 -7.877700 -32.272900
H -6.787000 -7.778400 -30.272400
C -6.634900 -8.475400 -30.972700
N -6.073100 -9.442200 -34.692500
H -5.777700 -9.346900 -33.884100
H -5.617500 -10.478400 -36.363700
C -5.196300 -8.902700 -30.914300
C -5.128100 -9.984800 -35.659000
H -4.975300 -9.192900 -29.994000
O -4.944400 -9.978800 -31.828300
H -4.679700 -10.652400 -31.401700
H -4.678000 -11.582400 -34.448900
H -4.629400 -9.245400 -36.088900
H -4.614500 -8.134200 -31.141500
H -4.536500 -12.877100 -36.879100
C -4.162700 -10.913400 -34.965000
N -3.680700 -12.617400 -36.761800
H -3.621500 -10.389100 -34.322300
C -3.242300 -11.628500 -35.899000
H -2.626400 -13.787100 -38.055000
C -2.596300 -13.093700 -37.406100
C -1.908200 -11.553300 -36.095100
N -1.495200 -12.488000 -37.032200
H -1.331100 -10.942400 -35.651300
