46
Fragment
H -18.916300 -6.029000 -35.330900
C -18.114100 -6.480700 -35.565600
N -17.840400 -6.559900 -36.877300
N -17.381000 -6.967100 -34.539700
H -17.013700 -7.000200 -39.184500
C -16.700100 -7.182700 -37.266800
H -16.429200 -10.085500 -32.203700
N -16.410500 -7.197700 -38.584000
C -16.292200 -7.589900 -34.979400
H -16.114400 -7.797800 -32.400000
O -16.050500 -9.120300 -30.017600
C -15.875600 -7.746300 -36.293200
H -15.779800 -8.945800 -29.301600
H -15.670900 -7.682100 -38.896300
C -15.489400 -9.774200 -32.214700
C -15.371800 -8.360100 -32.764300
N -15.332600 -8.232700 -34.214000
C -14.946500 -9.570600 -30.802400
H -14.936600 -10.413800 -32.730100
N -14.667800 -8.438300 -36.362900
H -14.549200 -10.411000 -30.433900
C -14.370200 -8.720100 -35.102700
O -14.125600 -7.877700 -32.272900
H -14.045400 -7.778400 -30.272400
C -13.893300 -8.475400 -30.972700
N -13.331500 -9.442200 -34.692500
H -13.036100 -9.346900 -33.884100
H -12.875900 -10.478400 -36.363700
C -12.454700 -8.902700 -30.914300
C -12.386500 -9.984800 -35.659000
H -12.233700 -9.192900 -29.994000
O -12.202800 -9.978800 -31.828300
H -11.938100 -10.652400 -31.401700
H -11.936400 -11.582400 -34.448900
H -11.887800 -9.245400 -36.088900
H -11.872900 -8.134200 -31.141500
H -11.794900 -12.877100 -36.879100
C -11.421100 -10.913400 -34.965000
N -10.939100 -12.617400 -36.761800
H -10.879900 -10.389100 -34.322300
C -10.500700 -11.628500 -35.899000
H -9.884800 -13.787100 -38.055000
C -9.854700 -13.093700 -37.406100
C -9.166600 -11.553300 -36.095100
N -8.753600 -12.488000 -37.032200
H -8.589500 -10.942400 -35.651300
46
Fragment
H -20.444100 -15.956900 -28.674200
N -20.280000 -17.502400 -27.293300
C -19.867000 -16.567700 -28.230400
C -19.178900 -18.108200 -26.919400
H -19.148800 -18.801600 -26.270500
C -18.532900 -16.643000 -28.426500
H -18.153700 -15.403600 -30.003200
N -18.094500 -17.631800 -27.563700
C -17.612500 -15.927900 -29.360500
H -17.238700 -17.891600 -27.446400
H -17.160700 -13.148700 -33.184000
H -17.145800 -14.259900 -28.236600
H -17.097200 -16.596800 -29.876600
H -17.095500 -15.666800 -32.923800
O -16.830800 -14.993200 -32.497200
H -16.799900 -14.207300 -34.331500
C -16.647100 -14.999200 -28.666500
C -16.578900 -13.917100 -33.411200
H -16.157700 -15.492800 -27.961800
H -15.997500 -14.361400 -30.441400
N -15.702100 -14.456700 -29.633000
C -15.140300 -13.489900 -33.352800
H -14.988200 -12.792900 -34.053100
O -14.908000 -12.892200 -32.052600
C -14.663400 -13.734600 -29.222800
H -14.484400 -15.425500 -33.891600
N -14.365800 -13.452800 -27.962600
H -14.097000 -15.428300 -31.595400
C -14.087100 -14.585000 -33.523100
N -13.701000 -13.247200 -30.111500
C -13.661800 -13.374500 -31.561200
C -13.544200 -14.788600 -32.110800
H -13.362700 -12.696600 -25.429200
H -13.253800 -13.960200 -35.023900
C -13.158000 -12.760800 -28.032300
O -12.983100 -14.134700 -34.307900
H -12.919200 -12.812200 -31.925500
C -12.741400 -12.604300 -29.346100
N -12.623100 -12.212200 -25.741500
H -12.604400 -15.099900 -32.121800
C -12.333500 -12.197100 -27.058700
H -12.019900 -12.014600 -25.141000
N -11.652600 -11.981500 -29.785800
N -11.193200 -11.574400 -27.448200
C -10.919500 -11.495100 -28.759900
H -10.117300 -11.043400 -28.994600
92
Fragment
H -18.916300 -6.029000 -35.330900
C -18.114100 -6.480700 -35.565600
N -17.840400 -6.559900 -36.877300
N -17.381000 -6.967100 -34.539700
H -17.013700 -7.000200 -39.184500
C -16.700100 -7.182700 -37.266800
H -16.429200 -10.085500 -32.203700
N -16.410500 -7.197700 -38.584000
C -16.292200 -7.589900 -34.979400
H -16.114400 -7.797800 -32.400000
O -16.050500 -9.120300 -30.017600
C -15.875600 -7.746300 -36.293200
H -15.779800 -8.945800 -29.301600
H -15.670900 -7.682100 -38.896300
C -15.489400 -9.774200 -32.214700
C -15.371800 -8.360100 -32.764300
N -15.332600 -8.232700 -34.214000
C -14.946500 -9.570600 -30.802400
H -14.936600 -10.413800 -32.730100
N -14.667800 -8.438300 -36.362900
H -14.549200 -10.411000 -30.433900
C -14.370200 -8.720100 -35.102700
O -14.125600 -7.877700 -32.272900
H -14.045400 -7.778400 -30.272400
C -13.893300 -8.475400 -30.972700
N -13.331500 -9.442200 -34.692500
H -13.036100 -9.346900 -33.884100
H -12.875900 -10.478400 -36.363700
C -12.454700 -8.902700 -30.914300
C -12.386500 -9.984800 -35.659000
H -12.233700 -9.192900 -29.994000
O -12.202800 -9.978800 -31.828300
H -11.938100 -10.652400 -31.401700
H -11.936400 -11.582400 -34.448900
H -11.887800 -9.245400 -36.088900
H -11.872900 -8.134200 -31.141500
H -11.794900 -12.877100 -36.879100
C -11.421100 -10.913400 -34.965000
N -10.939100 -12.617400 -36.761800
H -10.879900 -10.389100 -34.322300
C -10.500700 -11.628500 -35.899000
H -9.884800 -13.787100 -38.055000
C -9.854700 -13.093700 -37.406100
C -9.166600 -11.553300 -36.095100
N -8.753600 -12.488000 -37.032200
H -8.589500 -10.942400 -35.651300
H -20.444100 -15.956900 -28.674200
N -20.280000 -17.502400 -27.293300
C -19.867000 -16.567700 -28.230400
C -19.178900 -18.108200 -26.919400
H -19.148800 -18.801600 -26.270500
C -18.532900 -16.643000 -28.426500
H -18.153700 -15.403600 -30.003200
N -18.094500 -17.631800 -27.563700
C -17.612500 -15.927900 -29.360500
H -17.238700 -17.891600 -27.446400
H -17.160700 -13.148700 -33.184000
H -17.145800 -14.259900 -28.236600
H -17.097200 -16.596800 -29.876600
H -17.095500 -15.666800 -32.923800
O -16.830800 -14.993200 -32.497200
H -16.799900 -14.207300 -34.331500
C -16.647100 -14.999200 -28.666500
C -16.578900 -13.917100 -33.411200
H -16.157700 -15.492800 -27.961800
H -15.997500 -14.361400 -30.441400
N -15.702100 -14.456700 -29.633000
C -15.140300 -13.489900 -33.352800
H -14.988200 -12.792900 -34.053100
O -14.908000 -12.892200 -32.052600
C -14.663400 -13.734600 -29.222800
H -14.484400 -15.425500 -33.891600
N -14.365800 -13.452800 -27.962600
H -14.097000 -15.428300 -31.595400
C -14.087100 -14.585000 -33.523100
N -13.701000 -13.247200 -30.111500
C -13.661800 -13.374500 -31.561200
C -13.544200 -14.788600 -32.110800
H -13.362700 -12.696600 -25.429200
H -13.253800 -13.960200 -35.023900
C -13.158000 -12.760800 -28.032300
O -12.983100 -14.134700 -34.307900
H -12.919200 -12.812200 -31.925500
C -12.741400 -12.604300 -29.346100
N -12.623100 -12.212200 -25.741500
H -12.604400 -15.099900 -32.121800
C -12.333500 -12.197100 -27.058700
H -12.019900 -12.014600 -25.141000
N -11.652600 -11.981500 -29.785800
N -11.193200 -11.574400 -27.448200
C -10.919500 -11.495100 -28.759900
H -10.117300 -11.043400 -28.994600
