46
Fragment
H -18.916300 -6.029000 -35.330900
C -18.114100 -6.480700 -35.565600
N -17.840400 -6.559900 -36.877300
N -17.381000 -6.967100 -34.539700
H -17.013700 -7.000200 -39.184500
C -16.700100 -7.182700 -37.266800
H -16.429200 -10.085500 -32.203700
N -16.410500 -7.197700 -38.584000
C -16.292200 -7.589900 -34.979400
H -16.114400 -7.797800 -32.400000
O -16.050500 -9.120300 -30.017600
C -15.875600 -7.746300 -36.293200
H -15.779800 -8.945800 -29.301600
H -15.670900 -7.682100 -38.896300
C -15.489400 -9.774200 -32.214700
C -15.371800 -8.360100 -32.764300
N -15.332600 -8.232700 -34.214000
C -14.946500 -9.570600 -30.802400
H -14.936600 -10.413800 -32.730100
N -14.667800 -8.438300 -36.362900
H -14.549200 -10.411000 -30.433900
C -14.370200 -8.720100 -35.102700
O -14.125600 -7.877700 -32.272900
H -14.045400 -7.778400 -30.272400
C -13.893300 -8.475400 -30.972700
N -13.331500 -9.442200 -34.692500
H -13.036100 -9.346900 -33.884100
H -12.875900 -10.478400 -36.363700
C -12.454700 -8.902700 -30.914300
C -12.386500 -9.984800 -35.659000
H -12.233700 -9.192900 -29.994000
O -12.202800 -9.978800 -31.828300
H -11.938100 -10.652400 -31.401700
H -11.936400 -11.582400 -34.448900
H -11.887800 -9.245400 -36.088900
H -11.872900 -8.134200 -31.141500
H -11.794900 -12.877100 -36.879100
C -11.421100 -10.913400 -34.965000
N -10.939100 -12.617400 -36.761800
H -10.879900 -10.389100 -34.322300
C -10.500700 -11.628500 -35.899000
H -9.884800 -13.787100 -38.055000
C -9.854700 -13.093700 -37.406100
C -9.166600 -11.553300 -36.095100
N -8.753600 -12.488000 -37.032200
H -8.589500 -10.942400 -35.651300
46
Fragment
H -13.185700 -5.928000 -28.674200
N -13.021600 -7.473500 -27.293300
C -12.608600 -6.538800 -28.230400
C -11.920500 -8.079300 -26.919400
H -11.890400 -8.772700 -26.270500
C -11.274500 -6.614100 -28.426500
H -10.895300 -5.374700 -30.003200
N -10.836100 -7.602900 -27.563700
C -10.354100 -5.899000 -29.360500
H -9.980300 -7.862700 -27.446400
H -9.902300 -3.119800 -33.184000
H -9.887400 -4.231000 -28.236600
H -9.838800 -6.567900 -29.876600
H -9.837100 -5.637900 -32.923800
O -9.572400 -4.964300 -32.497200
H -9.541500 -4.178400 -34.331500
C -9.388700 -4.970300 -28.666500
C -9.320500 -3.888200 -33.411200
H -8.899300 -5.463900 -27.961800
H -8.739100 -4.332500 -30.441400
N -8.443700 -4.427800 -29.633000
C -7.881900 -3.461000 -33.352800
H -7.729800 -2.764000 -34.053100
O -7.649600 -2.863300 -32.052600
C -7.405000 -3.705700 -29.222800
H -7.226000 -5.396600 -33.891600
N -7.107400 -3.423900 -27.962600
H -6.838600 -5.399400 -31.595400
C -6.828700 -4.556100 -33.523100
N -6.442600 -3.218300 -30.111500
C -6.403400 -3.345600 -31.561200
C -6.285800 -4.759700 -32.110800
H -6.104300 -2.667700 -25.429200
H -5.995400 -3.931300 -35.023900
C -5.899600 -2.731900 -28.032300
O -5.724700 -4.105800 -34.307900
H -5.660800 -2.783300 -31.925500
C -5.483000 -2.575400 -29.346100
N -5.364700 -2.183300 -25.741500
H -5.346000 -5.071000 -32.121800
C -5.075100 -2.168200 -27.058700
H -4.761500 -1.985700 -25.141000
N -4.394200 -1.952600 -29.785800
N -3.934800 -1.545500 -27.448200
C -3.661100 -1.466200 -28.759900
H -2.858900 -1.014500 -28.994600
92
Fragment
H -18.916300 -6.029000 -35.330900
C -18.114100 -6.480700 -35.565600
N -17.840400 -6.559900 -36.877300
N -17.381000 -6.967100 -34.539700
H -17.013700 -7.000200 -39.184500
C -16.700100 -7.182700 -37.266800
H -16.429200 -10.085500 -32.203700
N -16.410500 -7.197700 -38.584000
C -16.292200 -7.589900 -34.979400
H -16.114400 -7.797800 -32.400000
O -16.050500 -9.120300 -30.017600
C -15.875600 -7.746300 -36.293200
H -15.779800 -8.945800 -29.301600
H -15.670900 -7.682100 -38.896300
C -15.489400 -9.774200 -32.214700
C -15.371800 -8.360100 -32.764300
N -15.332600 -8.232700 -34.214000
C -14.946500 -9.570600 -30.802400
H -14.936600 -10.413800 -32.730100
N -14.667800 -8.438300 -36.362900
H -14.549200 -10.411000 -30.433900
C -14.370200 -8.720100 -35.102700
O -14.125600 -7.877700 -32.272900
H -14.045400 -7.778400 -30.272400
C -13.893300 -8.475400 -30.972700
N -13.331500 -9.442200 -34.692500
H -13.036100 -9.346900 -33.884100
H -12.875900 -10.478400 -36.363700
C -12.454700 -8.902700 -30.914300
C -12.386500 -9.984800 -35.659000
H -12.233700 -9.192900 -29.994000
O -12.202800 -9.978800 -31.828300
H -11.938100 -10.652400 -31.401700
H -11.936400 -11.582400 -34.448900
H -11.887800 -9.245400 -36.088900
H -11.872900 -8.134200 -31.141500
H -11.794900 -12.877100 -36.879100
C -11.421100 -10.913400 -34.965000
N -10.939100 -12.617400 -36.761800
H -10.879900 -10.389100 -34.322300
C -10.500700 -11.628500 -35.899000
H -9.884800 -13.787100 -38.055000
C -9.854700 -13.093700 -37.406100
C -9.166600 -11.553300 -36.095100
N -8.753600 -12.488000 -37.032200
H -8.589500 -10.942400 -35.651300
H -13.185700 -5.928000 -28.674200
N -13.021600 -7.473500 -27.293300
C -12.608600 -6.538800 -28.230400
C -11.920500 -8.079300 -26.919400
H -11.890400 -8.772700 -26.270500
C -11.274500 -6.614100 -28.426500
H -10.895300 -5.374700 -30.003200
N -10.836100 -7.602900 -27.563700
C -10.354100 -5.899000 -29.360500
H -9.980300 -7.862700 -27.446400
H -9.902300 -3.119800 -33.184000
H -9.887400 -4.231000 -28.236600
H -9.838800 -6.567900 -29.876600
H -9.837100 -5.637900 -32.923800
O -9.572400 -4.964300 -32.497200
H -9.541500 -4.178400 -34.331500
C -9.388700 -4.970300 -28.666500
C -9.320500 -3.888200 -33.411200
H -8.899300 -5.463900 -27.961800
H -8.739100 -4.332500 -30.441400
N -8.443700 -4.427800 -29.633000
C -7.881900 -3.461000 -33.352800
H -7.729800 -2.764000 -34.053100
O -7.649600 -2.863300 -32.052600
C -7.405000 -3.705700 -29.222800
H -7.226000 -5.396600 -33.891600
N -7.107400 -3.423900 -27.962600
H -6.838600 -5.399400 -31.595400
C -6.828700 -4.556100 -33.523100
N -6.442600 -3.218300 -30.111500
C -6.403400 -3.345600 -31.561200
C -6.285800 -4.759700 -32.110800
H -6.104300 -2.667700 -25.429200
H -5.995400 -3.931300 -35.023900
C -5.899600 -2.731900 -28.032300
O -5.724700 -4.105800 -34.307900
H -5.660800 -2.783300 -31.925500
C -5.483000 -2.575400 -29.346100
N -5.364700 -2.183300 -25.741500
H -5.346000 -5.071000 -32.121800
C -5.075100 -2.168200 -27.058700
H -4.761500 -1.985700 -25.141000
N -4.394200 -1.952600 -29.785800
N -3.934800 -1.545500 -27.448200
C -3.661100 -1.466200 -28.759900
H -2.858900 -1.014500 -28.994600
