46
Fragment
H -18.916300 -6.029000 -35.330900
C -18.114100 -6.480700 -35.565600
N -17.840400 -6.559900 -36.877300
N -17.381000 -6.967100 -34.539700
H -17.013700 -7.000200 -39.184500
C -16.700100 -7.182700 -37.266800
H -16.429200 -10.085500 -32.203700
N -16.410500 -7.197700 -38.584000
C -16.292200 -7.589900 -34.979400
H -16.114400 -7.797800 -32.400000
O -16.050500 -9.120300 -30.017600
C -15.875600 -7.746300 -36.293200
H -15.779800 -8.945800 -29.301600
H -15.670900 -7.682100 -38.896300
C -15.489400 -9.774200 -32.214700
C -15.371800 -8.360100 -32.764300
N -15.332600 -8.232700 -34.214000
C -14.946500 -9.570600 -30.802400
H -14.936600 -10.413800 -32.730100
N -14.667800 -8.438300 -36.362900
H -14.549200 -10.411000 -30.433900
C -14.370200 -8.720100 -35.102700
O -14.125600 -7.877700 -32.272900
H -14.045400 -7.778400 -30.272400
C -13.893300 -8.475400 -30.972700
N -13.331500 -9.442200 -34.692500
H -13.036100 -9.346900 -33.884100
H -12.875900 -10.478400 -36.363700
C -12.454700 -8.902700 -30.914300
C -12.386500 -9.984800 -35.659000
H -12.233700 -9.192900 -29.994000
O -12.202800 -9.978800 -31.828300
H -11.938100 -10.652400 -31.401700
H -11.936400 -11.582400 -34.448900
H -11.887800 -9.245400 -36.088900
H -11.872900 -8.134200 -31.141500
H -11.794900 -12.877100 -36.879100
C -11.421100 -10.913400 -34.965000
N -10.939100 -12.617400 -36.761800
H -10.879900 -10.389100 -34.322300
C -10.500700 -11.628500 -35.899000
H -9.884800 -13.787100 -38.055000
C -9.854700 -13.093700 -37.406100
C -9.166600 -11.553300 -36.095100
N -8.753600 -12.488000 -37.032200
H -8.589500 -10.942400 -35.651300
46
Fragment
H -15.287100 -9.014400 -41.859700
C -14.484900 -8.562700 -41.625000
N -14.211200 -8.483400 -40.313300
N -13.751800 -8.076300 -42.650900
H -13.384500 -8.043200 -38.006100
C -13.070900 -7.860700 -39.923800
H -12.800000 -4.957900 -44.986900
N -12.781300 -7.845600 -38.606600
C -12.663000 -7.453500 -42.211200
H -12.485200 -7.245600 -44.790600
O -12.421300 -5.923100 -47.173000
C -12.246400 -7.297000 -40.897400
H -12.150600 -6.097600 -47.889000
H -12.041700 -7.361200 -38.294300
C -11.860200 -5.269200 -44.975900
C -11.742600 -6.683300 -44.426300
N -11.703400 -6.810600 -42.976600
C -11.317300 -5.472800 -46.388200
H -11.307400 -4.629500 -44.460500
N -11.038600 -6.605000 -40.827700
H -10.920000 -4.632300 -46.756700
C -10.741000 -6.323200 -42.087900
O -10.496400 -7.165600 -44.917700
H -10.416200 -7.264900 -46.918200
C -10.264100 -6.567900 -46.217900
N -9.702300 -5.601100 -42.498100
H -9.406900 -5.696400 -43.306500
H -9.246700 -4.565000 -40.826900
C -8.825500 -6.140700 -46.276300
C -8.757300 -5.058600 -41.531600
H -8.604500 -5.850500 -47.196600
O -8.573600 -5.064600 -45.362300
H -8.308900 -4.391000 -45.788900
H -8.307200 -3.461000 -42.741700
H -8.258600 -5.797900 -41.101700
H -8.243700 -6.909100 -46.049100
H -8.165700 -2.166200 -40.311500
C -7.791900 -4.129900 -42.225600
N -7.309900 -2.426000 -40.428800
H -7.250700 -4.654200 -42.868300
C -6.871500 -3.414800 -41.291600
H -6.255600 -1.256200 -39.135600
C -6.225500 -1.949600 -39.784500
C -5.537400 -3.490100 -41.095500
N -5.124400 -2.555400 -40.158400
H -4.960300 -4.100900 -41.539300
92
Fragment
H -18.916300 -6.029000 -35.330900
C -18.114100 -6.480700 -35.565600
N -17.840400 -6.559900 -36.877300
N -17.381000 -6.967100 -34.539700
H -17.013700 -7.000200 -39.184500
C -16.700100 -7.182700 -37.266800
H -16.429200 -10.085500 -32.203700
N -16.410500 -7.197700 -38.584000
C -16.292200 -7.589900 -34.979400
H -16.114400 -7.797800 -32.400000
O -16.050500 -9.120300 -30.017600
C -15.875600 -7.746300 -36.293200
H -15.779800 -8.945800 -29.301600
H -15.670900 -7.682100 -38.896300
C -15.489400 -9.774200 -32.214700
C -15.371800 -8.360100 -32.764300
N -15.332600 -8.232700 -34.214000
C -14.946500 -9.570600 -30.802400
H -14.936600 -10.413800 -32.730100
N -14.667800 -8.438300 -36.362900
H -14.549200 -10.411000 -30.433900
C -14.370200 -8.720100 -35.102700
O -14.125600 -7.877700 -32.272900
H -14.045400 -7.778400 -30.272400
C -13.893300 -8.475400 -30.972700
N -13.331500 -9.442200 -34.692500
H -13.036100 -9.346900 -33.884100
H -12.875900 -10.478400 -36.363700
C -12.454700 -8.902700 -30.914300
C -12.386500 -9.984800 -35.659000
H -12.233700 -9.192900 -29.994000
O -12.202800 -9.978800 -31.828300
H -11.938100 -10.652400 -31.401700
H -11.936400 -11.582400 -34.448900
H -11.887800 -9.245400 -36.088900
H -11.872900 -8.134200 -31.141500
H -11.794900 -12.877100 -36.879100
C -11.421100 -10.913400 -34.965000
N -10.939100 -12.617400 -36.761800
H -10.879900 -10.389100 -34.322300
C -10.500700 -11.628500 -35.899000
H -9.884800 -13.787100 -38.055000
C -9.854700 -13.093700 -37.406100
C -9.166600 -11.553300 -36.095100
N -8.753600 -12.488000 -37.032200
H -8.589500 -10.942400 -35.651300
H -15.287100 -9.014400 -41.859700
C -14.484900 -8.562700 -41.625000
N -14.211200 -8.483400 -40.313300
N -13.751800 -8.076300 -42.650900
H -13.384500 -8.043200 -38.006100
C -13.070900 -7.860700 -39.923800
H -12.800000 -4.957900 -44.986900
N -12.781300 -7.845600 -38.606600
C -12.663000 -7.453500 -42.211200
H -12.485200 -7.245600 -44.790600
O -12.421300 -5.923100 -47.173000
C -12.246400 -7.297000 -40.897400
H -12.150600 -6.097600 -47.889000
H -12.041700 -7.361200 -38.294300
C -11.860200 -5.269200 -44.975900
C -11.742600 -6.683300 -44.426300
N -11.703400 -6.810600 -42.976600
C -11.317300 -5.472800 -46.388200
H -11.307400 -4.629500 -44.460500
N -11.038600 -6.605000 -40.827700
H -10.920000 -4.632300 -46.756700
C -10.741000 -6.323200 -42.087900
O -10.496400 -7.165600 -44.917700
H -10.416200 -7.264900 -46.918200
C -10.264100 -6.567900 -46.217900
N -9.702300 -5.601100 -42.498100
H -9.406900 -5.696400 -43.306500
H -9.246700 -4.565000 -40.826900
C -8.825500 -6.140700 -46.276300
C -8.757300 -5.058600 -41.531600
H -8.604500 -5.850500 -47.196600
O -8.573600 -5.064600 -45.362300
H -8.308900 -4.391000 -45.788900
H -8.307200 -3.461000 -42.741700
H -8.258600 -5.797900 -41.101700
H -8.243700 -6.909100 -46.049100
H -8.165700 -2.166200 -40.311500
C -7.791900 -4.129900 -42.225600
N -7.309900 -2.426000 -40.428800
H -7.250700 -4.654200 -42.868300
C -6.871500 -3.414800 -41.291600
H -6.255600 -1.256200 -39.135600
C -6.225500 -1.949600 -39.784500
C -5.537400 -3.490100 -41.095500
N -5.124400 -2.555400 -40.158400
H -4.960300 -4.100900 -41.539300
