42
Fragment
H -17.475800 -5.243200 -20.447000
H -16.907100 -5.924300 -18.356800
H -16.900400 -5.036000 -22.790300
H -16.720900 -7.177400 -19.286800
C -16.536600 -5.423500 -20.285600
C -16.387600 -6.288200 -19.091000
H -16.085500 -4.578400 -20.137700
C -15.987600 -5.279100 -22.570500
O -15.972000 -6.081700 -21.412400
H -15.816300 -6.901100 -23.792200
H -15.494400 -5.549700 -24.528500
H -15.484600 -4.464500 -22.413300
C -15.379300 -6.039800 -23.700500
H -15.265000 -6.595000 -16.780000
H -15.165000 -7.950900 -17.567400
O -15.031200 -6.359500 -18.724400
C -14.807700 -7.051200 -17.503800
O -13.992200 -6.226100 -23.434900
H -13.717500 -7.871000 -24.469100
H -13.499700 -6.557300 -25.304400
C -13.351100 -7.111300 -17.217400
C -13.350700 -6.972700 -24.441000
H -13.202100 -7.526700 -16.354000
H -12.984300 -6.213100 -17.189300
O -12.709600 -7.857900 -18.223500
C -11.894100 -7.032800 -24.154600
O -11.670600 -7.724500 -22.934000
H -11.536800 -6.133100 -24.091100
H -11.436700 -7.489000 -24.878400
C -11.322400 -8.044200 -17.957900
H -11.217200 -9.619500 -19.245100
H -11.207400 -8.534400 -17.129900
H -10.885500 -7.182900 -17.866200
O -10.729700 -8.002300 -20.246000
C -10.714200 -8.805000 -19.087900
H -10.616200 -9.505600 -21.520700
C -10.314100 -7.795800 -22.567400
C -10.165200 -8.660600 -21.372800
H -9.980900 -6.906600 -22.371600
H -9.801400 -9.048000 -18.868100
H -9.794700 -8.159700 -23.301600
H -9.226000 -8.840800 -21.211400
21
Fragment
H -20.750700 -3.559900 -16.591500
H -20.682800 -2.580000 -17.816300
C -20.166000 -2.970300 -17.093500
Cl -19.575100 -1.674100 -16.022800
H -19.389800 -4.464400 -18.237000
C -19.027800 -3.767100 -17.667300
H -18.549100 -4.196900 -16.941400
H -18.363900 -2.649300 -19.183700
N -18.098800 -2.977800 -18.433800
O -16.839200 -1.821000 -20.857300
C -16.837000 -2.726100 -18.037000
N -16.300900 -3.172100 -16.924800
C -16.064400 -1.293000 -20.068900
H -15.955700 1.292100 -21.266600
C -15.877200 -1.948300 -18.742100
N -15.489000 0.499800 -21.498900
N -15.377500 -0.194700 -20.263700
O -14.992100 -2.663200 -16.934100
H -14.860600 0.106000 -19.646100
N -14.768800 -1.918700 -18.068300
H -14.606200 0.731400 -21.745700
63
Fragment
H -17.475800 -5.243200 -20.447000
H -16.907100 -5.924300 -18.356800
H -16.900400 -5.036000 -22.790300
H -16.720900 -7.177400 -19.286800
C -16.536600 -5.423500 -20.285600
C -16.387600 -6.288200 -19.091000
H -16.085500 -4.578400 -20.137700
C -15.987600 -5.279100 -22.570500
O -15.972000 -6.081700 -21.412400
H -15.816300 -6.901100 -23.792200
H -15.494400 -5.549700 -24.528500
H -15.484600 -4.464500 -22.413300
C -15.379300 -6.039800 -23.700500
H -15.265000 -6.595000 -16.780000
H -15.165000 -7.950900 -17.567400
O -15.031200 -6.359500 -18.724400
C -14.807700 -7.051200 -17.503800
O -13.992200 -6.226100 -23.434900
H -13.717500 -7.871000 -24.469100
H -13.499700 -6.557300 -25.304400
C -13.351100 -7.111300 -17.217400
C -13.350700 -6.972700 -24.441000
H -13.202100 -7.526700 -16.354000
H -12.984300 -6.213100 -17.189300
O -12.709600 -7.857900 -18.223500
C -11.894100 -7.032800 -24.154600
O -11.670600 -7.724500 -22.934000
H -11.536800 -6.133100 -24.091100
H -11.436700 -7.489000 -24.878400
C -11.322400 -8.044200 -17.957900
H -11.217200 -9.619500 -19.245100
H -11.207400 -8.534400 -17.129900
H -10.885500 -7.182900 -17.866200
O -10.729700 -8.002300 -20.246000
C -10.714200 -8.805000 -19.087900
H -10.616200 -9.505600 -21.520700
C -10.314100 -7.795800 -22.567400
C -10.165200 -8.660600 -21.372800
H -9.980900 -6.906600 -22.371600
H -9.801400 -9.048000 -18.868100
H -9.794700 -8.159700 -23.301600
H -9.226000 -8.840800 -21.211400
H -20.750700 -3.559900 -16.591500
H -20.682800 -2.580000 -17.816300
C -20.166000 -2.970300 -17.093500
Cl -19.575100 -1.674100 -16.022800
H -19.389800 -4.464400 -18.237000
C -19.027800 -3.767100 -17.667300
H -18.549100 -4.196900 -16.941400
H -18.363900 -2.649300 -19.183700
N -18.098800 -2.977800 -18.433800
O -16.839200 -1.821000 -20.857300
C -16.837000 -2.726100 -18.037000
N -16.300900 -3.172100 -16.924800
C -16.064400 -1.293000 -20.068900
H -15.955700 1.292100 -21.266600
C -15.877200 -1.948300 -18.742100
N -15.489000 0.499800 -21.498900
N -15.377500 -0.194700 -20.263700
O -14.992100 -2.663200 -16.934100
H -14.860600 0.106000 -19.646100
N -14.768800 -1.918700 -18.068300
H -14.606200 0.731400 -21.745700
