42
Fragment
H -17.475800 -5.243200 -20.447000
H -16.907100 -5.924300 -18.356800
H -16.900400 -5.036000 -22.790300
H -16.720900 -7.177400 -19.286800
C -16.536600 -5.423500 -20.285600
C -16.387600 -6.288200 -19.091000
H -16.085500 -4.578400 -20.137700
C -15.987600 -5.279100 -22.570500
O -15.972000 -6.081700 -21.412400
H -15.816300 -6.901100 -23.792200
H -15.494400 -5.549700 -24.528500
H -15.484600 -4.464500 -22.413300
C -15.379300 -6.039800 -23.700500
H -15.265000 -6.595000 -16.780000
H -15.165000 -7.950900 -17.567400
O -15.031200 -6.359500 -18.724400
C -14.807700 -7.051200 -17.503800
O -13.992200 -6.226100 -23.434900
H -13.717500 -7.871000 -24.469100
H -13.499700 -6.557300 -25.304400
C -13.351100 -7.111300 -17.217400
C -13.350700 -6.972700 -24.441000
H -13.202100 -7.526700 -16.354000
H -12.984300 -6.213100 -17.189300
O -12.709600 -7.857900 -18.223500
C -11.894100 -7.032800 -24.154600
O -11.670600 -7.724500 -22.934000
H -11.536800 -6.133100 -24.091100
H -11.436700 -7.489000 -24.878400
C -11.322400 -8.044200 -17.957900
H -11.217200 -9.619500 -19.245100
H -11.207400 -8.534400 -17.129900
H -10.885500 -7.182900 -17.866200
O -10.729700 -8.002300 -20.246000
C -10.714200 -8.805000 -19.087900
H -10.616200 -9.505600 -21.520700
C -10.314100 -7.795800 -22.567400
C -10.165200 -8.660600 -21.372800
H -9.980900 -6.906600 -22.371600
H -9.801400 -9.048000 -18.868100
H -9.794700 -8.159700 -23.301600
H -9.226000 -8.840800 -21.211400
42
Fragment
H -8.860800 -5.243200 -20.447000
H -8.292100 -5.924300 -18.356800
H -8.285400 -5.036000 -22.790300
H -8.105900 -7.177400 -19.286800
C -7.921600 -5.423500 -20.285600
C -7.772600 -6.288200 -19.091000
H -7.470500 -4.578400 -20.137700
C -7.372600 -5.279100 -22.570500
O -7.357000 -6.081700 -21.412400
H -7.201300 -6.901100 -23.792200
H -6.879400 -5.549700 -24.528500
H -6.869600 -4.464500 -22.413300
C -6.764300 -6.039800 -23.700500
H -6.650000 -6.595000 -16.780000
H -6.550000 -7.950900 -17.567400
O -6.416200 -6.359500 -18.724400
C -6.192700 -7.051200 -17.503800
O -5.377200 -6.226100 -23.434900
H -5.102500 -7.871000 -24.469100
H -4.884700 -6.557300 -25.304400
C -4.736100 -7.111300 -17.217400
C -4.735700 -6.972700 -24.441000
H -4.587100 -7.526700 -16.354000
H -4.369300 -6.213100 -17.189300
O -4.094600 -7.857900 -18.223500
C -3.279100 -7.032800 -24.154600
O -3.055600 -7.724500 -22.934000
H -2.921800 -6.133100 -24.091100
H -2.821700 -7.489000 -24.878400
C -2.707400 -8.044200 -17.957900
H -2.602200 -9.619500 -19.245100
H -2.592400 -8.534400 -17.129900
H -2.270500 -7.182900 -17.866200
O -2.114700 -8.002300 -20.246000
C -2.099200 -8.805000 -19.087900
H -2.001200 -9.505600 -21.520700
C -1.699100 -7.795800 -22.567400
C -1.550200 -8.660600 -21.372800
H -1.365900 -6.906600 -22.371600
H -1.186400 -9.048000 -18.868100
H -1.179700 -8.159700 -23.301600
H -0.611000 -8.840800 -21.211400
84
Fragment
H -17.475800 -5.243200 -20.447000
H -16.907100 -5.924300 -18.356800
H -16.900400 -5.036000 -22.790300
H -16.720900 -7.177400 -19.286800
C -16.536600 -5.423500 -20.285600
C -16.387600 -6.288200 -19.091000
H -16.085500 -4.578400 -20.137700
C -15.987600 -5.279100 -22.570500
O -15.972000 -6.081700 -21.412400
H -15.816300 -6.901100 -23.792200
H -15.494400 -5.549700 -24.528500
H -15.484600 -4.464500 -22.413300
C -15.379300 -6.039800 -23.700500
H -15.265000 -6.595000 -16.780000
H -15.165000 -7.950900 -17.567400
O -15.031200 -6.359500 -18.724400
C -14.807700 -7.051200 -17.503800
O -13.992200 -6.226100 -23.434900
H -13.717500 -7.871000 -24.469100
H -13.499700 -6.557300 -25.304400
C -13.351100 -7.111300 -17.217400
C -13.350700 -6.972700 -24.441000
H -13.202100 -7.526700 -16.354000
H -12.984300 -6.213100 -17.189300
O -12.709600 -7.857900 -18.223500
C -11.894100 -7.032800 -24.154600
O -11.670600 -7.724500 -22.934000
H -11.536800 -6.133100 -24.091100
H -11.436700 -7.489000 -24.878400
C -11.322400 -8.044200 -17.957900
H -11.217200 -9.619500 -19.245100
H -11.207400 -8.534400 -17.129900
H -10.885500 -7.182900 -17.866200
O -10.729700 -8.002300 -20.246000
C -10.714200 -8.805000 -19.087900
H -10.616200 -9.505600 -21.520700
C -10.314100 -7.795800 -22.567400
C -10.165200 -8.660600 -21.372800
H -9.980900 -6.906600 -22.371600
H -9.801400 -9.048000 -18.868100
H -9.794700 -8.159700 -23.301600
H -9.226000 -8.840800 -21.211400
H -8.860800 -5.243200 -20.447000
H -8.292100 -5.924300 -18.356800
H -8.285400 -5.036000 -22.790300
H -8.105900 -7.177400 -19.286800
C -7.921600 -5.423500 -20.285600
C -7.772600 -6.288200 -19.091000
H -7.470500 -4.578400 -20.137700
C -7.372600 -5.279100 -22.570500
O -7.357000 -6.081700 -21.412400
H -7.201300 -6.901100 -23.792200
H -6.879400 -5.549700 -24.528500
H -6.869600 -4.464500 -22.413300
C -6.764300 -6.039800 -23.700500
H -6.650000 -6.595000 -16.780000
H -6.550000 -7.950900 -17.567400
O -6.416200 -6.359500 -18.724400
C -6.192700 -7.051200 -17.503800
O -5.377200 -6.226100 -23.434900
H -5.102500 -7.871000 -24.469100
H -4.884700 -6.557300 -25.304400
C -4.736100 -7.111300 -17.217400
C -4.735700 -6.972700 -24.441000
H -4.587100 -7.526700 -16.354000
H -4.369300 -6.213100 -17.189300
O -4.094600 -7.857900 -18.223500
C -3.279100 -7.032800 -24.154600
O -3.055600 -7.724500 -22.934000
H -2.921800 -6.133100 -24.091100
H -2.821700 -7.489000 -24.878400
C -2.707400 -8.044200 -17.957900
H -2.602200 -9.619500 -19.245100
H -2.592400 -8.534400 -17.129900
H -2.270500 -7.182900 -17.866200
O -2.114700 -8.002300 -20.246000
C -2.099200 -8.805000 -19.087900
H -2.001200 -9.505600 -21.520700
C -1.699100 -7.795800 -22.567400
C -1.550200 -8.660600 -21.372800
H -1.365900 -6.906600 -22.371600
H -1.186400 -9.048000 -18.868100
H -1.179700 -8.159700 -23.301600
H -0.611000 -8.840800 -21.211400
