44
Fragment
H -20.366200 -8.119600 -15.485800
H -20.080100 -7.088100 -16.476300
H -19.826000 -6.376700 -15.144400
C -19.787900 -7.410500 -15.580700
O -18.885600 -9.353200 -17.164800
Cl -18.560500 -8.316500 -10.080800
H -18.512700 -11.071800 -10.483300
O -18.418300 -7.864200 -15.577000
C -18.108100 -8.922000 -16.343400
C -18.080900 -10.642000 -11.318200
C -17.934800 -9.277800 -11.389000
H -17.652500 -12.406400 -12.334700
C -17.594300 -11.420400 -12.343400
H -17.364500 -11.720900 -17.705200
C -17.301100 -8.668600 -12.485700
H -17.229000 -10.391400 -18.524700
Cl -17.152400 -6.951600 -12.507400
C -16.960800 -10.829200 -13.422600
C -16.800400 -9.459500 -13.522600
C -16.764100 -9.428300 -16.023900
C -16.756400 -11.036300 -17.993300
H -16.630200 -11.349800 -14.114300
H -16.174400 -7.958500 -14.776700
C -16.164800 -10.360000 -16.797800
C -16.090900 -8.901900 -14.757900
H -16.055400 -11.430800 -18.517300
N -14.880900 -10.763500 -16.535700
C -14.612700 -9.261200 -14.740000
H -14.514600 -11.329800 -17.028800
O -14.112900 -7.902000 -12.833600
C -14.083500 -10.180800 -15.578400
C -13.767300 -8.642900 -13.718500
C -12.664900 -10.680800 -15.610800
H -12.582000 -7.787800 -11.817000
O -12.479100 -9.019300 -13.879600
H -12.423900 -11.095400 -16.404700
H -12.417800 -11.309800 -14.924200
H -12.031600 -10.202300 -12.400600
H -12.012200 -9.920100 -15.669800
C -11.750600 -9.392900 -12.691700
C -11.741600 -8.248900 -11.764500
H -11.605100 -8.564500 -10.868200
H -11.031800 -7.648600 -12.003900
H -10.849800 -9.528700 -13.056500
44
Fragment
H -20.775600 -5.572000 -24.802100
H -20.489500 -4.540500 -25.792600
H -20.235400 -3.829100 -24.460700
C -20.197300 -4.862900 -24.897000
O -19.295000 -6.805600 -26.481000
Cl -18.969800 -5.768900 -19.397000
H -18.922000 -8.524100 -19.799600
O -18.827600 -5.316600 -24.893300
C -18.517500 -6.374400 -25.659600
C -18.490200 -8.094400 -20.634400
C -18.344200 -6.730200 -20.705200
H -18.061800 -9.858800 -21.651000
C -18.003600 -8.872800 -21.659700
H -17.773900 -9.173300 -27.021500
C -17.710500 -6.121000 -21.802000
H -17.638300 -7.843800 -27.840900
Cl -17.561800 -4.404000 -21.823700
C -17.370200 -8.281600 -22.738900
C -17.209800 -6.911900 -22.838900
C -17.173500 -6.880700 -25.340200
C -17.165800 -8.488700 -27.309500
H -17.039600 -8.802100 -23.430600
H -16.583800 -5.410900 -24.093000
C -16.574200 -7.812400 -26.114100
C -16.500200 -6.354300 -24.074200
H -16.464800 -8.883200 -27.833600
N -15.290300 -8.215900 -25.852000
C -15.022000 -6.713500 -24.056300
H -14.924000 -8.782200 -26.345000
O -14.522300 -5.354400 -22.149900
C -14.492900 -7.633100 -24.894700
C -14.176700 -6.095300 -23.034800
C -13.074300 -8.133200 -24.927100
H -12.991300 -5.240200 -21.133200
O -12.888500 -6.471700 -23.195900
H -12.833300 -8.547800 -25.720900
H -12.827200 -8.762200 -24.240500
H -12.440900 -7.654700 -21.716900
H -12.421600 -7.372500 -24.986100
C -12.159900 -6.845300 -22.007900
C -12.150900 -5.701300 -21.080800
H -12.014500 -6.016900 -20.184500
H -11.441100 -5.101000 -21.320200
H -11.259200 -6.981100 -22.372800
88
Fragment
H -20.366200 -8.119600 -15.485800
H -20.080100 -7.088100 -16.476300
H -19.826000 -6.376700 -15.144400
C -19.787900 -7.410500 -15.580700
O -18.885600 -9.353200 -17.164800
Cl -18.560500 -8.316500 -10.080800
H -18.512700 -11.071800 -10.483300
O -18.418300 -7.864200 -15.577000
C -18.108100 -8.922000 -16.343400
C -18.080900 -10.642000 -11.318200
C -17.934800 -9.277800 -11.389000
H -17.652500 -12.406400 -12.334700
C -17.594300 -11.420400 -12.343400
H -17.364500 -11.720900 -17.705200
C -17.301100 -8.668600 -12.485700
H -17.229000 -10.391400 -18.524700
Cl -17.152400 -6.951600 -12.507400
C -16.960800 -10.829200 -13.422600
C -16.800400 -9.459500 -13.522600
C -16.764100 -9.428300 -16.023900
C -16.756400 -11.036300 -17.993300
H -16.630200 -11.349800 -14.114300
H -16.174400 -7.958500 -14.776700
C -16.164800 -10.360000 -16.797800
C -16.090900 -8.901900 -14.757900
H -16.055400 -11.430800 -18.517300
N -14.880900 -10.763500 -16.535700
C -14.612700 -9.261200 -14.740000
H -14.514600 -11.329800 -17.028800
O -14.112900 -7.902000 -12.833600
C -14.083500 -10.180800 -15.578400
C -13.767300 -8.642900 -13.718500
C -12.664900 -10.680800 -15.610800
H -12.582000 -7.787800 -11.817000
O -12.479100 -9.019300 -13.879600
H -12.423900 -11.095400 -16.404700
H -12.417800 -11.309800 -14.924200
H -12.031600 -10.202300 -12.400600
H -12.012200 -9.920100 -15.669800
C -11.750600 -9.392900 -12.691700
C -11.741600 -8.248900 -11.764500
H -11.605100 -8.564500 -10.868200
H -11.031800 -7.648600 -12.003900
H -10.849800 -9.528700 -13.056500
H -20.775600 -5.572000 -24.802100
H -20.489500 -4.540500 -25.792600
H -20.235400 -3.829100 -24.460700
C -20.197300 -4.862900 -24.897000
O -19.295000 -6.805600 -26.481000
Cl -18.969800 -5.768900 -19.397000
H -18.922000 -8.524100 -19.799600
O -18.827600 -5.316600 -24.893300
C -18.517500 -6.374400 -25.659600
C -18.490200 -8.094400 -20.634400
C -18.344200 -6.730200 -20.705200
H -18.061800 -9.858800 -21.651000
C -18.003600 -8.872800 -21.659700
H -17.773900 -9.173300 -27.021500
C -17.710500 -6.121000 -21.802000
H -17.638300 -7.843800 -27.840900
Cl -17.561800 -4.404000 -21.823700
C -17.370200 -8.281600 -22.738900
C -17.209800 -6.911900 -22.838900
C -17.173500 -6.880700 -25.340200
C -17.165800 -8.488700 -27.309500
H -17.039600 -8.802100 -23.430600
H -16.583800 -5.410900 -24.093000
C -16.574200 -7.812400 -26.114100
C -16.500200 -6.354300 -24.074200
H -16.464800 -8.883200 -27.833600
N -15.290300 -8.215900 -25.852000
C -15.022000 -6.713500 -24.056300
H -14.924000 -8.782200 -26.345000
O -14.522300 -5.354400 -22.149900
C -14.492900 -7.633100 -24.894700
C -14.176700 -6.095300 -23.034800
C -13.074300 -8.133200 -24.927100
H -12.991300 -5.240200 -21.133200
O -12.888500 -6.471700 -23.195900
H -12.833300 -8.547800 -25.720900
H -12.827200 -8.762200 -24.240500
H -12.440900 -7.654700 -21.716900
H -12.421600 -7.372500 -24.986100
C -12.159900 -6.845300 -22.007900
C -12.150900 -5.701300 -21.080800
H -12.014500 -6.016900 -20.184500
H -11.441100 -5.101000 -21.320200
H -11.259200 -6.981100 -22.372800
