44
Fragment
H -20.366200 -8.119600 -15.485800
H -20.080100 -7.088100 -16.476300
H -19.826000 -6.376700 -15.144400
C -19.787900 -7.410500 -15.580700
O -18.885600 -9.353200 -17.164800
Cl -18.560500 -8.316500 -10.080800
H -18.512700 -11.071800 -10.483300
O -18.418300 -7.864200 -15.577000
C -18.108100 -8.922000 -16.343400
C -18.080900 -10.642000 -11.318200
C -17.934800 -9.277800 -11.389000
H -17.652500 -12.406400 -12.334700
C -17.594300 -11.420400 -12.343400
H -17.364500 -11.720900 -17.705200
C -17.301100 -8.668600 -12.485700
H -17.229000 -10.391400 -18.524700
Cl -17.152400 -6.951600 -12.507400
C -16.960800 -10.829200 -13.422600
C -16.800400 -9.459500 -13.522600
C -16.764100 -9.428300 -16.023900
C -16.756400 -11.036300 -17.993300
H -16.630200 -11.349800 -14.114300
H -16.174400 -7.958500 -14.776700
C -16.164800 -10.360000 -16.797800
C -16.090900 -8.901900 -14.757900
H -16.055400 -11.430800 -18.517300
N -14.880900 -10.763500 -16.535700
C -14.612700 -9.261200 -14.740000
H -14.514600 -11.329800 -17.028800
O -14.112900 -7.902000 -12.833600
C -14.083500 -10.180800 -15.578400
C -13.767300 -8.642900 -13.718500
C -12.664900 -10.680800 -15.610800
H -12.582000 -7.787800 -11.817000
O -12.479100 -9.019300 -13.879600
H -12.423900 -11.095400 -16.404700
H -12.417800 -11.309800 -14.924200
H -12.031600 -10.202300 -12.400600
H -12.012200 -9.920100 -15.669800
C -11.750600 -9.392900 -12.691700
C -11.741600 -8.248900 -11.764500
H -11.605100 -8.564500 -10.868200
H -11.031800 -7.648600 -12.003900
H -10.849800 -9.528700 -13.056500
44
Fragment
H -15.503500 -13.968600 -14.892300
H -15.321500 -15.848600 -15.944900
H -14.748200 -14.932800 -17.080600
C -14.611700 -15.248400 -16.184300
C -14.602700 -14.104300 -15.257200
H -14.341100 -13.577100 -12.279000
H -14.321700 -13.294900 -15.548200
H -13.935500 -12.187400 -13.024600
H -13.929400 -12.401900 -11.544200
O -13.874200 -14.478000 -14.069300
H -13.771300 -15.709500 -16.131900
C -13.688400 -12.816400 -12.338000
C -12.586000 -14.854300 -14.230300
C -12.269800 -13.316500 -12.370400
O -12.240400 -15.595200 -15.115200
H -11.838700 -12.167400 -10.920100
C -11.740700 -14.236100 -13.208800
N -11.472400 -12.733800 -11.413100
H -10.297900 -12.066500 -9.431500
C -10.262400 -14.595300 -13.190900
C -10.188500 -13.137300 -11.151000
H -10.178900 -15.538700 -13.172100
H -9.723100 -12.147500 -13.834500
C -9.596900 -12.460900 -9.955600
C -9.589200 -14.068900 -11.924900
C -9.552900 -14.037700 -14.426300
C -9.392500 -12.668000 -14.526200
Cl -9.200900 -16.545700 -15.441400
H -9.124300 -13.105900 -9.424200
C -9.052200 -14.828700 -15.463200
H -8.988800 -11.776300 -10.243600
C -8.759100 -12.076900 -15.605400
H -8.700900 -11.090900 -15.614100
C -8.418500 -14.219400 -16.559900
C -8.272500 -12.855300 -16.630700
C -8.245200 -14.575200 -11.605500
O -7.935000 -15.633000 -12.371800
H -7.840600 -12.425500 -17.465500
Cl -7.792800 -15.180700 -17.868100
O -7.467700 -14.144000 -10.784100
C -6.565400 -16.086700 -12.368100
H -6.527300 -17.120500 -12.804400
H -6.273200 -16.409200 -11.472500
H -5.987100 -15.377600 -12.463000
88
Fragment
H -20.366200 -8.119600 -15.485800
H -20.080100 -7.088100 -16.476300
H -19.826000 -6.376700 -15.144400
C -19.787900 -7.410500 -15.580700
O -18.885600 -9.353200 -17.164800
Cl -18.560500 -8.316500 -10.080800
H -18.512700 -11.071800 -10.483300
O -18.418300 -7.864200 -15.577000
C -18.108100 -8.922000 -16.343400
C -18.080900 -10.642000 -11.318200
C -17.934800 -9.277800 -11.389000
H -17.652500 -12.406400 -12.334700
C -17.594300 -11.420400 -12.343400
H -17.364500 -11.720900 -17.705200
C -17.301100 -8.668600 -12.485700
H -17.229000 -10.391400 -18.524700
Cl -17.152400 -6.951600 -12.507400
C -16.960800 -10.829200 -13.422600
C -16.800400 -9.459500 -13.522600
C -16.764100 -9.428300 -16.023900
C -16.756400 -11.036300 -17.993300
H -16.630200 -11.349800 -14.114300
H -16.174400 -7.958500 -14.776700
C -16.164800 -10.360000 -16.797800
C -16.090900 -8.901900 -14.757900
H -16.055400 -11.430800 -18.517300
N -14.880900 -10.763500 -16.535700
C -14.612700 -9.261200 -14.740000
H -14.514600 -11.329800 -17.028800
O -14.112900 -7.902000 -12.833600
C -14.083500 -10.180800 -15.578400
C -13.767300 -8.642900 -13.718500
C -12.664900 -10.680800 -15.610800
H -12.582000 -7.787800 -11.817000
O -12.479100 -9.019300 -13.879600
H -12.423900 -11.095400 -16.404700
H -12.417800 -11.309800 -14.924200
H -12.031600 -10.202300 -12.400600
H -12.012200 -9.920100 -15.669800
C -11.750600 -9.392900 -12.691700
C -11.741600 -8.248900 -11.764500
H -11.605100 -8.564500 -10.868200
H -11.031800 -7.648600 -12.003900
H -10.849800 -9.528700 -13.056500
H -15.503500 -13.968600 -14.892300
H -15.321500 -15.848600 -15.944900
H -14.748200 -14.932800 -17.080600
C -14.611700 -15.248400 -16.184300
C -14.602700 -14.104300 -15.257200
H -14.341100 -13.577100 -12.279000
H -14.321700 -13.294900 -15.548200
H -13.935500 -12.187400 -13.024600
H -13.929400 -12.401900 -11.544200
O -13.874200 -14.478000 -14.069300
H -13.771300 -15.709500 -16.131900
C -13.688400 -12.816400 -12.338000
C -12.586000 -14.854300 -14.230300
C -12.269800 -13.316500 -12.370400
O -12.240400 -15.595200 -15.115200
H -11.838700 -12.167400 -10.920100
C -11.740700 -14.236100 -13.208800
N -11.472400 -12.733800 -11.413100
H -10.297900 -12.066500 -9.431500
C -10.262400 -14.595300 -13.190900
C -10.188500 -13.137300 -11.151000
H -10.178900 -15.538700 -13.172100
H -9.723100 -12.147500 -13.834500
C -9.596900 -12.460900 -9.955600
C -9.589200 -14.068900 -11.924900
C -9.552900 -14.037700 -14.426300
C -9.392500 -12.668000 -14.526200
Cl -9.200900 -16.545700 -15.441400
H -9.124300 -13.105900 -9.424200
C -9.052200 -14.828700 -15.463200
H -8.988800 -11.776300 -10.243600
C -8.759100 -12.076900 -15.605400
H -8.700900 -11.090900 -15.614100
C -8.418500 -14.219400 -16.559900
C -8.272500 -12.855300 -16.630700
C -8.245200 -14.575200 -11.605500
O -7.935000 -15.633000 -12.371800
H -7.840600 -12.425500 -17.465500
Cl -7.792800 -15.180700 -17.868100
O -7.467700 -14.144000 -10.784100
C -6.565400 -16.086700 -12.368100
H -6.527300 -17.120500 -12.804400
H -6.273200 -16.409200 -11.472500
H -5.987100 -15.377600 -12.463000
