44
Fragment
H -20.366200 -8.119600 -15.485800
H -20.080100 -7.088100 -16.476300
H -19.826000 -6.376700 -15.144400
C -19.787900 -7.410500 -15.580700
O -18.885600 -9.353200 -17.164800
Cl -18.560500 -8.316500 -10.080800
H -18.512700 -11.071800 -10.483300
O -18.418300 -7.864200 -15.577000
C -18.108100 -8.922000 -16.343400
C -18.080900 -10.642000 -11.318200
C -17.934800 -9.277800 -11.389000
H -17.652500 -12.406400 -12.334700
C -17.594300 -11.420400 -12.343400
H -17.364500 -11.720900 -17.705200
C -17.301100 -8.668600 -12.485700
H -17.229000 -10.391400 -18.524700
Cl -17.152400 -6.951600 -12.507400
C -16.960800 -10.829200 -13.422600
C -16.800400 -9.459500 -13.522600
C -16.764100 -9.428300 -16.023900
C -16.756400 -11.036300 -17.993300
H -16.630200 -11.349800 -14.114300
H -16.174400 -7.958500 -14.776700
C -16.164800 -10.360000 -16.797800
C -16.090900 -8.901900 -14.757900
H -16.055400 -11.430800 -18.517300
N -14.880900 -10.763500 -16.535700
C -14.612700 -9.261200 -14.740000
H -14.514600 -11.329800 -17.028800
O -14.112900 -7.902000 -12.833600
C -14.083500 -10.180800 -15.578400
C -13.767300 -8.642900 -13.718500
C -12.664900 -10.680800 -15.610800
H -12.582000 -7.787800 -11.817000
O -12.479100 -9.019300 -13.879600
H -12.423900 -11.095400 -16.404700
H -12.417800 -11.309800 -14.924200
H -12.031600 -10.202300 -12.400600
H -12.012200 -9.920100 -15.669800
C -11.750600 -9.392900 -12.691700
C -11.741600 -8.248900 -11.764500
H -11.605100 -8.564500 -10.868200
H -11.031800 -7.648600 -12.003900
H -10.849800 -9.528700 -13.056500
44
Fragment
H -18.233400 -3.588500 -14.892300
H -18.051500 -5.468600 -15.944900
H -17.478100 -4.552700 -17.080600
C -17.341700 -4.868300 -16.184300
C -17.332700 -3.724300 -15.257200
H -17.071000 -3.197100 -12.279000
H -17.051700 -2.914900 -15.548200
H -16.665400 -1.807400 -13.024600
H -16.659300 -2.021900 -11.544200
O -16.604100 -4.097900 -14.069300
H -16.501300 -5.329400 -16.131900
C -16.418300 -2.436400 -12.338000
C -15.316000 -4.474300 -14.230300
C -14.999700 -2.936500 -12.370400
O -14.970300 -5.215200 -15.115200
H -14.568600 -1.787400 -10.920100
C -14.470600 -3.856100 -13.208800
N -14.202300 -2.353700 -11.413100
H -13.027800 -1.686400 -9.431500
C -12.992400 -4.215300 -13.190900
C -12.918400 -2.757200 -11.151000
H -12.908800 -5.158700 -13.172100
H -12.453000 -1.767500 -13.834500
C -12.326800 -2.080900 -9.955600
C -12.319100 -3.688900 -11.924900
C -12.282800 -3.657700 -14.426300
C -12.122400 -2.288000 -14.526200
Cl -11.930800 -6.165600 -15.441400
H -11.854300 -2.725800 -9.424200
C -11.782100 -4.448700 -15.463200
H -11.718700 -1.396300 -10.243600
C -11.489000 -1.696800 -15.605400
H -11.430800 -0.710900 -15.614100
C -11.148400 -3.839400 -16.559900
C -11.002400 -2.475200 -16.630700
C -10.975200 -4.195200 -11.605500
O -10.665000 -5.253000 -12.371800
H -10.570600 -2.045500 -17.465500
Cl -10.522800 -4.800700 -17.868100
O -10.197600 -3.764000 -10.784100
C -9.295300 -5.706700 -12.368100
H -9.257200 -6.740500 -12.804400
H -9.003100 -6.029100 -11.472500
H -8.717000 -4.997600 -12.463000
88
Fragment
H -20.366200 -8.119600 -15.485800
H -20.080100 -7.088100 -16.476300
H -19.826000 -6.376700 -15.144400
C -19.787900 -7.410500 -15.580700
O -18.885600 -9.353200 -17.164800
Cl -18.560500 -8.316500 -10.080800
H -18.512700 -11.071800 -10.483300
O -18.418300 -7.864200 -15.577000
C -18.108100 -8.922000 -16.343400
C -18.080900 -10.642000 -11.318200
C -17.934800 -9.277800 -11.389000
H -17.652500 -12.406400 -12.334700
C -17.594300 -11.420400 -12.343400
H -17.364500 -11.720900 -17.705200
C -17.301100 -8.668600 -12.485700
H -17.229000 -10.391400 -18.524700
Cl -17.152400 -6.951600 -12.507400
C -16.960800 -10.829200 -13.422600
C -16.800400 -9.459500 -13.522600
C -16.764100 -9.428300 -16.023900
C -16.756400 -11.036300 -17.993300
H -16.630200 -11.349800 -14.114300
H -16.174400 -7.958500 -14.776700
C -16.164800 -10.360000 -16.797800
C -16.090900 -8.901900 -14.757900
H -16.055400 -11.430800 -18.517300
N -14.880900 -10.763500 -16.535700
C -14.612700 -9.261200 -14.740000
H -14.514600 -11.329800 -17.028800
O -14.112900 -7.902000 -12.833600
C -14.083500 -10.180800 -15.578400
C -13.767300 -8.642900 -13.718500
C -12.664900 -10.680800 -15.610800
H -12.582000 -7.787800 -11.817000
O -12.479100 -9.019300 -13.879600
H -12.423900 -11.095400 -16.404700
H -12.417800 -11.309800 -14.924200
H -12.031600 -10.202300 -12.400600
H -12.012200 -9.920100 -15.669800
C -11.750600 -9.392900 -12.691700
C -11.741600 -8.248900 -11.764500
H -11.605100 -8.564500 -10.868200
H -11.031800 -7.648600 -12.003900
H -10.849800 -9.528700 -13.056500
H -18.233400 -3.588500 -14.892300
H -18.051500 -5.468600 -15.944900
H -17.478100 -4.552700 -17.080600
C -17.341700 -4.868300 -16.184300
C -17.332700 -3.724300 -15.257200
H -17.071000 -3.197100 -12.279000
H -17.051700 -2.914900 -15.548200
H -16.665400 -1.807400 -13.024600
H -16.659300 -2.021900 -11.544200
O -16.604100 -4.097900 -14.069300
H -16.501300 -5.329400 -16.131900
C -16.418300 -2.436400 -12.338000
C -15.316000 -4.474300 -14.230300
C -14.999700 -2.936500 -12.370400
O -14.970300 -5.215200 -15.115200
H -14.568600 -1.787400 -10.920100
C -14.470600 -3.856100 -13.208800
N -14.202300 -2.353700 -11.413100
H -13.027800 -1.686400 -9.431500
C -12.992400 -4.215300 -13.190900
C -12.918400 -2.757200 -11.151000
H -12.908800 -5.158700 -13.172100
H -12.453000 -1.767500 -13.834500
C -12.326800 -2.080900 -9.955600
C -12.319100 -3.688900 -11.924900
C -12.282800 -3.657700 -14.426300
C -12.122400 -2.288000 -14.526200
Cl -11.930800 -6.165600 -15.441400
H -11.854300 -2.725800 -9.424200
C -11.782100 -4.448700 -15.463200
H -11.718700 -1.396300 -10.243600
C -11.489000 -1.696800 -15.605400
H -11.430800 -0.710900 -15.614100
C -11.148400 -3.839400 -16.559900
C -11.002400 -2.475200 -16.630700
C -10.975200 -4.195200 -11.605500
O -10.665000 -5.253000 -12.371800
H -10.570600 -2.045500 -17.465500
Cl -10.522800 -4.800700 -17.868100
O -10.197600 -3.764000 -10.784100
C -9.295300 -5.706700 -12.368100
H -9.257200 -6.740500 -12.804400
H -9.003100 -6.029100 -11.472500
H -8.717000 -4.997600 -12.463000
