16
Fragment
H -15.698400 -11.657900 -15.640500
H -15.421400 -11.905500 -10.775800
H -14.877700 -10.344900 -15.236400
C -14.805600 -11.295200 -15.462300
N -14.762400 -11.877300 -13.117400
N -14.695800 -12.454000 -10.892600
H -14.319500 -12.819400 -10.226700
H -14.245200 -11.400200 -16.259000
C -14.187700 -12.033500 -14.319500
C -14.161000 -12.562600 -12.111700
N -13.116100 -12.783900 -14.579500
N -13.068000 -13.336100 -12.243700
C -12.586500 -13.420500 -13.497400
N -11.518200 -14.182000 -13.722700
H -11.198000 -14.232100 -14.526600
H -11.138000 -14.636500 -13.076000
16
Fragment
H -21.409300 -7.840800 -7.936800
O -20.969800 -8.539000 -8.095800
H -20.003100 -9.269800 -6.509000
C -19.837200 -8.600700 -7.220100
H -19.703100 -7.720100 -6.787700
H -19.481000 -10.288900 -9.318000
H -18.912000 -11.019900 -8.016600
C -18.714600 -10.325400 -8.692900
C -18.592600 -8.980700 -7.990700
H -18.405800 -8.280800 -8.665200
H -17.824800 -9.011800 -7.366900
H -17.672700 -11.565700 -9.962400
C -17.478400 -10.734200 -9.463000
H -17.265000 -10.028800 -10.124100
O -16.334600 -10.950400 -8.629800
H -15.981900 -10.211300 -8.440400
32
Fragment
H -15.698400 -11.657900 -15.640500
H -15.421400 -11.905500 -10.775800
H -14.877700 -10.344900 -15.236400
C -14.805600 -11.295200 -15.462300
N -14.762400 -11.877300 -13.117400
N -14.695800 -12.454000 -10.892600
H -14.319500 -12.819400 -10.226700
H -14.245200 -11.400200 -16.259000
C -14.187700 -12.033500 -14.319500
C -14.161000 -12.562600 -12.111700
N -13.116100 -12.783900 -14.579500
N -13.068000 -13.336100 -12.243700
C -12.586500 -13.420500 -13.497400
N -11.518200 -14.182000 -13.722700
H -11.198000 -14.232100 -14.526600
H -11.138000 -14.636500 -13.076000
H -21.409300 -7.840800 -7.936800
O -20.969800 -8.539000 -8.095800
H -20.003100 -9.269800 -6.509000
C -19.837200 -8.600700 -7.220100
H -19.703100 -7.720100 -6.787700
H -19.481000 -10.288900 -9.318000
H -18.912000 -11.019900 -8.016600
C -18.714600 -10.325400 -8.692900
C -18.592600 -8.980700 -7.990700
H -18.405800 -8.280800 -8.665200
H -17.824800 -9.011800 -7.366900
H -17.672700 -11.565700 -9.962400
C -17.478400 -10.734200 -9.463000
H -17.265000 -10.028800 -10.124100
O -16.334600 -10.950400 -8.629800
H -15.981900 -10.211300 -8.440400
