16
Fragment
H -15.698400 -11.657900 -15.640500
H -15.421400 -11.905500 -10.775800
H -14.877700 -10.344900 -15.236400
C -14.805600 -11.295200 -15.462300
N -14.762400 -11.877300 -13.117400
N -14.695800 -12.454000 -10.892600
H -14.319500 -12.819400 -10.226700
H -14.245200 -11.400200 -16.259000
C -14.187700 -12.033500 -14.319500
C -14.161000 -12.562600 -12.111700
N -13.116100 -12.783900 -14.579500
N -13.068000 -13.336100 -12.243700
C -12.586500 -13.420500 -13.497400
N -11.518200 -14.182000 -13.722700
H -11.198000 -14.232100 -14.526600
H -11.138000 -14.636500 -13.076000
16
Fragment
H -21.573900 -11.657900 -15.640500
H -21.296900 -11.905500 -10.775800
H -20.753200 -10.344900 -15.236400
C -20.681100 -11.295200 -15.462300
N -20.637900 -11.877300 -13.117400
N -20.571300 -12.454000 -10.892600
H -20.195000 -12.819400 -10.226700
H -20.120700 -11.400200 -16.259000
C -20.063200 -12.033500 -14.319500
C -20.036500 -12.562600 -12.111700
N -18.991600 -12.783900 -14.579500
N -18.943500 -13.336100 -12.243700
C -18.462000 -13.420500 -13.497400
N -17.393700 -14.182000 -13.722700
H -17.073500 -14.232100 -14.526600
H -17.013500 -14.636500 -13.076000
32
Fragment
H -15.698400 -11.657900 -15.640500
H -15.421400 -11.905500 -10.775800
H -14.877700 -10.344900 -15.236400
C -14.805600 -11.295200 -15.462300
N -14.762400 -11.877300 -13.117400
N -14.695800 -12.454000 -10.892600
H -14.319500 -12.819400 -10.226700
H -14.245200 -11.400200 -16.259000
C -14.187700 -12.033500 -14.319500
C -14.161000 -12.562600 -12.111700
N -13.116100 -12.783900 -14.579500
N -13.068000 -13.336100 -12.243700
C -12.586500 -13.420500 -13.497400
N -11.518200 -14.182000 -13.722700
H -11.198000 -14.232100 -14.526600
H -11.138000 -14.636500 -13.076000
H -21.573900 -11.657900 -15.640500
H -21.296900 -11.905500 -10.775800
H -20.753200 -10.344900 -15.236400
C -20.681100 -11.295200 -15.462300
N -20.637900 -11.877300 -13.117400
N -20.571300 -12.454000 -10.892600
H -20.195000 -12.819400 -10.226700
H -20.120700 -11.400200 -16.259000
C -20.063200 -12.033500 -14.319500
C -20.036500 -12.562600 -12.111700
N -18.991600 -12.783900 -14.579500
N -18.943500 -13.336100 -12.243700
C -18.462000 -13.420500 -13.497400
N -17.393700 -14.182000 -13.722700
H -17.073500 -14.232100 -14.526600
H -17.013500 -14.636500 -13.076000
