16
Fragment
H -15.698400 -11.657900 -15.640500
H -15.421400 -11.905500 -10.775800
H -14.877700 -10.344900 -15.236400
C -14.805600 -11.295200 -15.462300
N -14.762400 -11.877300 -13.117400
N -14.695800 -12.454000 -10.892600
H -14.319500 -12.819400 -10.226700
H -14.245200 -11.400200 -16.259000
C -14.187700 -12.033500 -14.319500
C -14.161000 -12.562600 -12.111700
N -13.116100 -12.783900 -14.579500
N -13.068000 -13.336100 -12.243700
C -12.586500 -13.420500 -13.497400
N -11.518200 -14.182000 -13.722700
H -11.198000 -14.232100 -14.526600
H -11.138000 -14.636500 -13.076000
16
Fragment
H -15.346000 -12.479100 -7.646700
H -15.286000 -12.883500 -6.196100
N -14.965800 -12.933600 -7.000000
C -13.897400 -13.695100 -7.225300
N -13.416000 -13.779500 -8.479000
N -13.367900 -14.331800 -6.143200
C -12.323000 -14.553000 -8.611000
C -12.296300 -15.082100 -6.403200
H -12.238800 -15.715400 -4.463700
H -12.164500 -14.296200 -10.496100
N -11.788200 -14.661600 -9.830100
N -11.721600 -15.238300 -7.605300
C -11.678400 -15.820400 -5.260500
H -11.606300 -16.770700 -5.486300
H -11.062600 -15.210100 -9.946900
H -10.785600 -15.457700 -5.082200
32
Fragment
H -15.698400 -11.657900 -15.640500
H -15.421400 -11.905500 -10.775800
H -14.877700 -10.344900 -15.236400
C -14.805600 -11.295200 -15.462300
N -14.762400 -11.877300 -13.117400
N -14.695800 -12.454000 -10.892600
H -14.319500 -12.819400 -10.226700
H -14.245200 -11.400200 -16.259000
C -14.187700 -12.033500 -14.319500
C -14.161000 -12.562600 -12.111700
N -13.116100 -12.783900 -14.579500
N -13.068000 -13.336100 -12.243700
C -12.586500 -13.420500 -13.497400
N -11.518200 -14.182000 -13.722700
H -11.198000 -14.232100 -14.526600
H -11.138000 -14.636500 -13.076000
H -15.346000 -12.479100 -7.646700
H -15.286000 -12.883500 -6.196100
N -14.965800 -12.933600 -7.000000
C -13.897400 -13.695100 -7.225300
N -13.416000 -13.779500 -8.479000
N -13.367900 -14.331800 -6.143200
C -12.323000 -14.553000 -8.611000
C -12.296300 -15.082100 -6.403200
H -12.238800 -15.715400 -4.463700
H -12.164500 -14.296200 -10.496100
N -11.788200 -14.661600 -9.830100
N -11.721600 -15.238300 -7.605300
C -11.678400 -15.820400 -5.260500
H -11.606300 -16.770700 -5.486300
H -11.062600 -15.210100 -9.946900
H -10.785600 -15.457700 -5.082200
