16
Fragment
H -15.698400 -11.657900 -15.640500
H -15.421400 -11.905500 -10.775800
H -14.877700 -10.344900 -15.236400
C -14.805600 -11.295200 -15.462300
N -14.762400 -11.877300 -13.117400
N -14.695800 -12.454000 -10.892600
H -14.319500 -12.819400 -10.226700
H -14.245200 -11.400200 -16.259000
C -14.187700 -12.033500 -14.319500
C -14.161000 -12.562600 -12.111700
N -13.116100 -12.783900 -14.579500
N -13.068000 -13.336100 -12.243700
C -12.586500 -13.420500 -13.497400
N -11.518200 -14.182000 -13.722700
H -11.198000 -14.232100 -14.526600
H -11.138000 -14.636500 -13.076000
16
Fragment
H -18.249600 -12.545600 -18.008000
H -18.189500 -12.950000 -16.557500
N -17.869300 -13.000100 -17.361400
C -16.801000 -13.761600 -17.586600
N -16.319600 -13.846000 -18.840400
N -16.271500 -14.398300 -16.504600
C -15.226500 -14.619500 -18.972400
C -15.199800 -15.148600 -16.764600
H -15.142300 -15.781900 -14.825000
H -15.068100 -14.362700 -20.857400
N -14.691700 -14.728100 -20.191500
N -14.625100 -15.304800 -17.966700
C -14.582000 -15.886900 -15.621800
H -14.509900 -16.837200 -15.847700
H -13.966200 -15.276600 -20.308300
H -13.689100 -15.524200 -15.443600
32
Fragment
H -15.698400 -11.657900 -15.640500
H -15.421400 -11.905500 -10.775800
H -14.877700 -10.344900 -15.236400
C -14.805600 -11.295200 -15.462300
N -14.762400 -11.877300 -13.117400
N -14.695800 -12.454000 -10.892600
H -14.319500 -12.819400 -10.226700
H -14.245200 -11.400200 -16.259000
C -14.187700 -12.033500 -14.319500
C -14.161000 -12.562600 -12.111700
N -13.116100 -12.783900 -14.579500
N -13.068000 -13.336100 -12.243700
C -12.586500 -13.420500 -13.497400
N -11.518200 -14.182000 -13.722700
H -11.198000 -14.232100 -14.526600
H -11.138000 -14.636500 -13.076000
H -18.249600 -12.545600 -18.008000
H -18.189500 -12.950000 -16.557500
N -17.869300 -13.000100 -17.361400
C -16.801000 -13.761600 -17.586600
N -16.319600 -13.846000 -18.840400
N -16.271500 -14.398300 -16.504600
C -15.226500 -14.619500 -18.972400
C -15.199800 -15.148600 -16.764600
H -15.142300 -15.781900 -14.825000
H -15.068100 -14.362700 -20.857400
N -14.691700 -14.728100 -20.191500
N -14.625100 -15.304800 -17.966700
C -14.582000 -15.886900 -15.621800
H -14.509900 -16.837200 -15.847700
H -13.966200 -15.276600 -20.308300
H -13.689100 -15.524200 -15.443600
