34
Fragment
H -19.500200 -20.524900 -27.819000
H -19.174700 -16.570100 -24.793600
N -18.795800 -18.869500 -26.130800
N -18.692600 -20.667100 -27.559200
N -18.498400 -17.059000 -24.584100
H -18.297500 -21.383600 -27.824100
C -18.131300 -19.954500 -26.573600
C -18.104100 -18.202500 -25.180500
N -17.544800 -16.602300 -23.699200
N -16.925300 -20.414400 -26.133900
C -16.858600 -18.541200 -24.648700
C -16.574100 -17.498100 -23.732500
C -16.298200 -19.753300 -25.152700
H -15.784400 -17.449000 -23.208000
H -15.391800 -22.160200 -25.372300
N -15.162300 -20.293800 -24.655500
H -15.049900 -20.670700 -22.065900
C -14.644000 -21.570400 -25.142200
C -14.484900 -19.953700 -22.328300
C -14.392400 -19.593800 -23.668200
H -14.099100 -21.990100 -24.442900
H -14.091800 -21.416700 -25.938200
H -13.817800 -19.515300 -20.464900
C -13.754600 -19.268300 -21.380500
C -13.567800 -18.554400 -24.043300
H -13.496500 -18.319700 -24.961100
C -12.926200 -18.218900 -21.758700
C -12.838900 -17.845200 -23.093700
H -12.288800 -17.115200 -23.355000
O -12.218100 -17.630000 -20.747200
H -12.090200 -15.753100 -21.378900
C -11.477400 -16.448400 -21.058200
H -11.015200 -16.131000 -20.253500
H -10.818500 -16.649300 -21.755300
34
Fragment
H -10.548600 -20.524900 -27.819000
H -10.223100 -16.570100 -24.793600
N -9.844200 -18.869500 -26.130800
N -9.741000 -20.667100 -27.559200
N -9.546800 -17.059000 -24.584100
H -9.345900 -21.383600 -27.824100
C -9.179700 -19.954500 -26.573600
C -9.152500 -18.202500 -25.180500
N -8.593200 -16.602300 -23.699200
N -7.973700 -20.414400 -26.133900
C -7.907000 -18.541200 -24.648700
C -7.622500 -17.498100 -23.732500
C -7.346600 -19.753300 -25.152700
H -6.832800 -17.449000 -23.208000
H -6.440200 -22.160200 -25.372300
N -6.210700 -20.293800 -24.655500
H -6.098300 -20.670700 -22.065900
C -5.692400 -21.570400 -25.142200
C -5.533300 -19.953700 -22.328300
C -5.440800 -19.593800 -23.668200
H -5.147500 -21.990100 -24.442900
H -5.140200 -21.416700 -25.938200
H -4.866200 -19.515300 -20.464900
C -4.803000 -19.268300 -21.380500
C -4.616200 -18.554400 -24.043300
H -4.544900 -18.319700 -24.961100
C -3.974600 -18.218900 -21.758700
C -3.887300 -17.845200 -23.093700
H -3.337200 -17.115200 -23.355000
O -3.266500 -17.630000 -20.747200
H -3.138600 -15.753100 -21.378900
C -2.525800 -16.448400 -21.058200
H -2.063600 -16.131000 -20.253500
H -1.866900 -16.649300 -21.755300
68
Fragment
H -19.500200 -20.524900 -27.819000
H -19.174700 -16.570100 -24.793600
N -18.795800 -18.869500 -26.130800
N -18.692600 -20.667100 -27.559200
N -18.498400 -17.059000 -24.584100
H -18.297500 -21.383600 -27.824100
C -18.131300 -19.954500 -26.573600
C -18.104100 -18.202500 -25.180500
N -17.544800 -16.602300 -23.699200
N -16.925300 -20.414400 -26.133900
C -16.858600 -18.541200 -24.648700
C -16.574100 -17.498100 -23.732500
C -16.298200 -19.753300 -25.152700
H -15.784400 -17.449000 -23.208000
H -15.391800 -22.160200 -25.372300
N -15.162300 -20.293800 -24.655500
H -15.049900 -20.670700 -22.065900
C -14.644000 -21.570400 -25.142200
C -14.484900 -19.953700 -22.328300
C -14.392400 -19.593800 -23.668200
H -14.099100 -21.990100 -24.442900
H -14.091800 -21.416700 -25.938200
H -13.817800 -19.515300 -20.464900
C -13.754600 -19.268300 -21.380500
C -13.567800 -18.554400 -24.043300
H -13.496500 -18.319700 -24.961100
C -12.926200 -18.218900 -21.758700
C -12.838900 -17.845200 -23.093700
H -12.288800 -17.115200 -23.355000
O -12.218100 -17.630000 -20.747200
H -12.090200 -15.753100 -21.378900
C -11.477400 -16.448400 -21.058200
H -11.015200 -16.131000 -20.253500
H -10.818500 -16.649300 -21.755300
H -10.548600 -20.524900 -27.819000
H -10.223100 -16.570100 -24.793600
N -9.844200 -18.869500 -26.130800
N -9.741000 -20.667100 -27.559200
N -9.546800 -17.059000 -24.584100
H -9.345900 -21.383600 -27.824100
C -9.179700 -19.954500 -26.573600
C -9.152500 -18.202500 -25.180500
N -8.593200 -16.602300 -23.699200
N -7.973700 -20.414400 -26.133900
C -7.907000 -18.541200 -24.648700
C -7.622500 -17.498100 -23.732500
C -7.346600 -19.753300 -25.152700
H -6.832800 -17.449000 -23.208000
H -6.440200 -22.160200 -25.372300
N -6.210700 -20.293800 -24.655500
H -6.098300 -20.670700 -22.065900
C -5.692400 -21.570400 -25.142200
C -5.533300 -19.953700 -22.328300
C -5.440800 -19.593800 -23.668200
H -5.147500 -21.990100 -24.442900
H -5.140200 -21.416700 -25.938200
H -4.866200 -19.515300 -20.464900
C -4.803000 -19.268300 -21.380500
C -4.616200 -18.554400 -24.043300
H -4.544900 -18.319700 -24.961100
C -3.974600 -18.218900 -21.758700
C -3.887300 -17.845200 -23.093700
H -3.337200 -17.115200 -23.355000
O -3.266500 -17.630000 -20.747200
H -3.138600 -15.753100 -21.378900
C -2.525800 -16.448400 -21.058200
H -2.063600 -16.131000 -20.253500
H -1.866900 -16.649300 -21.755300
