33
Fragment
H -31.121100 -28.460700 -15.495600
H -30.537200 -26.689500 -14.093200
N -30.459500 -30.882900 -10.502100
C -30.342500 -28.520800 -14.954700
H -30.035100 -29.855300 -12.181400
C -30.000200 -27.473300 -14.115000
H -29.901900 -31.730600 -8.830100
H -29.780200 -30.370700 -15.584400
C -29.714300 -30.223600 -11.366800
N -29.619900 -31.232700 -9.471900
C -29.549900 -29.654400 -15.003900
C -28.878700 -27.561000 -13.308500
H -28.644300 -26.841200 -12.734400
C -28.423100 -29.741000 -14.207900
C -28.372600 -30.136000 -10.924300
C -28.365500 -30.803700 -9.703600
C -28.100800 -28.708500 -13.344000
H -27.868200 -30.511500 -14.253900
N -27.314900 -30.989600 -8.886600
C -27.115700 -29.587900 -11.325600
N -26.984300 -28.847300 -12.454300
C -26.184700 -30.448600 -9.381500
N -26.041800 -29.778300 -10.554900
H -25.895900 -27.274400 -13.108200
C -25.721800 -28.215600 -12.854700
H -25.683800 -28.924900 -14.776200
H -25.101200 -28.213900 -12.083700
N -25.075600 -30.566100 -8.644400
C -25.074100 -28.926000 -14.008500
H -25.050300 -30.953800 -7.875800
H -24.873300 -29.849800 -13.751700
H -24.332400 -30.272000 -8.961700
H -24.243500 -28.466200 -14.250700
33
Fragment
H -23.832300 -28.466200 -5.933300
H -23.743400 -30.272000 -11.222300
H -23.202500 -29.849800 -6.432200
H -23.025500 -30.953800 -12.308200
C -23.001700 -28.926000 -6.175500
N -23.000200 -30.566100 -11.539600
H -22.974600 -28.213900 -8.100200
H -22.392000 -28.924900 -5.407700
C -22.354000 -28.215600 -7.329200
H -22.179900 -27.274400 -7.075700
N -22.034000 -29.778300 -9.629000
C -21.891100 -30.448600 -10.802400
N -21.091500 -28.847300 -7.729600
C -20.960100 -29.587900 -8.858300
N -20.760900 -30.989600 -11.297300
H -20.207600 -30.511500 -5.930000
C -19.975000 -28.708500 -6.839900
C -19.710300 -30.803700 -10.480300
C -19.703200 -30.136000 -9.259600
C -19.652700 -29.741000 -5.976100
H -19.431400 -26.841200 -7.449500
C -19.197100 -27.561000 -6.875500
C -18.525900 -29.654400 -5.180000
N -18.455900 -31.232700 -10.712000
C -18.361500 -30.223600 -8.817100
H -18.295600 -30.370700 -4.599500
H -18.173900 -31.730600 -11.353900
C -18.075600 -27.473300 -6.068900
H -18.040700 -29.855300 -8.002500
C -17.733300 -28.520800 -5.229300
N -17.616300 -30.882900 -9.681800
H -17.538600 -26.689500 -6.090700
H -16.954700 -28.460700 -4.688300
66
Fragment
H -31.121100 -28.460700 -15.495600
H -30.537200 -26.689500 -14.093200
N -30.459500 -30.882900 -10.502100
C -30.342500 -28.520800 -14.954700
H -30.035100 -29.855300 -12.181400
C -30.000200 -27.473300 -14.115000
H -29.901900 -31.730600 -8.830100
H -29.780200 -30.370700 -15.584400
C -29.714300 -30.223600 -11.366800
N -29.619900 -31.232700 -9.471900
C -29.549900 -29.654400 -15.003900
C -28.878700 -27.561000 -13.308500
H -28.644300 -26.841200 -12.734400
C -28.423100 -29.741000 -14.207900
C -28.372600 -30.136000 -10.924300
C -28.365500 -30.803700 -9.703600
C -28.100800 -28.708500 -13.344000
H -27.868200 -30.511500 -14.253900
N -27.314900 -30.989600 -8.886600
C -27.115700 -29.587900 -11.325600
N -26.984300 -28.847300 -12.454300
C -26.184700 -30.448600 -9.381500
N -26.041800 -29.778300 -10.554900
H -25.895900 -27.274400 -13.108200
C -25.721800 -28.215600 -12.854700
H -25.683800 -28.924900 -14.776200
H -25.101200 -28.213900 -12.083700
N -25.075600 -30.566100 -8.644400
C -25.074100 -28.926000 -14.008500
H -25.050300 -30.953800 -7.875800
H -24.873300 -29.849800 -13.751700
H -24.332400 -30.272000 -8.961700
H -24.243500 -28.466200 -14.250700
H -23.832300 -28.466200 -5.933300
H -23.743400 -30.272000 -11.222300
H -23.202500 -29.849800 -6.432200
H -23.025500 -30.953800 -12.308200
C -23.001700 -28.926000 -6.175500
N -23.000200 -30.566100 -11.539600
H -22.974600 -28.213900 -8.100200
H -22.392000 -28.924900 -5.407700
C -22.354000 -28.215600 -7.329200
H -22.179900 -27.274400 -7.075700
N -22.034000 -29.778300 -9.629000
C -21.891100 -30.448600 -10.802400
N -21.091500 -28.847300 -7.729600
C -20.960100 -29.587900 -8.858300
N -20.760900 -30.989600 -11.297300
H -20.207600 -30.511500 -5.930000
C -19.975000 -28.708500 -6.839900
C -19.710300 -30.803700 -10.480300
C -19.703200 -30.136000 -9.259600
C -19.652700 -29.741000 -5.976100
H -19.431400 -26.841200 -7.449500
C -19.197100 -27.561000 -6.875500
C -18.525900 -29.654400 -5.180000
N -18.455900 -31.232700 -10.712000
C -18.361500 -30.223600 -8.817100
H -18.295600 -30.370700 -4.599500
H -18.173900 -31.730600 -11.353900
C -18.075600 -27.473300 -6.068900
H -18.040700 -29.855300 -8.002500
C -17.733300 -28.520800 -5.229300
N -17.616300 -30.882900 -9.681800
H -17.538600 -26.689500 -6.090700
H -16.954700 -28.460700 -4.688300
