33
Fragment
H -31.121100 -28.460700 -15.495600
H -30.537200 -26.689500 -14.093200
N -30.459500 -30.882900 -10.502100
C -30.342500 -28.520800 -14.954700
H -30.035100 -29.855300 -12.181400
C -30.000200 -27.473300 -14.115000
H -29.901900 -31.730600 -8.830100
H -29.780200 -30.370700 -15.584400
C -29.714300 -30.223600 -11.366800
N -29.619900 -31.232700 -9.471900
C -29.549900 -29.654400 -15.003900
C -28.878700 -27.561000 -13.308500
H -28.644300 -26.841200 -12.734400
C -28.423100 -29.741000 -14.207900
C -28.372600 -30.136000 -10.924300
C -28.365500 -30.803700 -9.703600
C -28.100800 -28.708500 -13.344000
H -27.868200 -30.511500 -14.253900
N -27.314900 -30.989600 -8.886600
C -27.115700 -29.587900 -11.325600
N -26.984300 -28.847300 -12.454300
C -26.184700 -30.448600 -9.381500
N -26.041800 -29.778300 -10.554900
H -25.895900 -27.274400 -13.108200
C -25.721800 -28.215600 -12.854700
H -25.683800 -28.924900 -14.776200
H -25.101200 -28.213900 -12.083700
N -25.075600 -30.566100 -8.644400
C -25.074100 -28.926000 -14.008500
H -25.050300 -30.953800 -7.875800
H -24.873300 -29.849800 -13.751700
H -24.332400 -30.272000 -8.961700
H -24.243500 -28.466200 -14.250700
33
Fragment
H -31.683200 -35.506800 -9.970100
H -31.594300 -33.701000 -15.259000
H -31.053500 -34.123200 -10.469000
H -30.876400 -33.019200 -16.344900
C -30.852700 -35.047000 -10.212300
N -30.851200 -33.406900 -15.576300
H -30.825600 -35.759100 -12.137000
H -30.242900 -35.048100 -9.444500
C -30.205000 -35.757400 -11.366000
H -30.030900 -36.698600 -11.112500
N -29.885000 -34.194700 -13.665800
C -29.742100 -33.524400 -14.839200
N -28.942400 -35.125700 -11.766400
C -28.811100 -34.385100 -12.895100
N -28.611900 -32.983400 -15.334100
H -28.058600 -33.461500 -9.966800
C -27.826000 -35.264500 -10.876700
C -27.561300 -33.169300 -14.517100
C -27.554200 -33.837000 -13.296400
C -27.503600 -34.232000 -10.012800
H -27.282400 -37.131800 -11.486300
C -27.048100 -36.412000 -10.912200
C -26.376900 -34.318600 -9.216800
N -26.306800 -32.740300 -14.748800
C -26.212400 -33.749400 -12.853900
H -26.146600 -33.602300 -8.636300
H -26.024900 -32.242400 -15.390600
C -25.926500 -36.499700 -10.105700
H -25.891600 -34.117700 -12.039300
C -25.584200 -35.452200 -9.266000
N -25.467300 -33.090100 -13.718600
H -25.389600 -37.283500 -10.127500
H -24.805600 -35.512300 -8.725100
66
Fragment
H -31.121100 -28.460700 -15.495600
H -30.537200 -26.689500 -14.093200
N -30.459500 -30.882900 -10.502100
C -30.342500 -28.520800 -14.954700
H -30.035100 -29.855300 -12.181400
C -30.000200 -27.473300 -14.115000
H -29.901900 -31.730600 -8.830100
H -29.780200 -30.370700 -15.584400
C -29.714300 -30.223600 -11.366800
N -29.619900 -31.232700 -9.471900
C -29.549900 -29.654400 -15.003900
C -28.878700 -27.561000 -13.308500
H -28.644300 -26.841200 -12.734400
C -28.423100 -29.741000 -14.207900
C -28.372600 -30.136000 -10.924300
C -28.365500 -30.803700 -9.703600
C -28.100800 -28.708500 -13.344000
H -27.868200 -30.511500 -14.253900
N -27.314900 -30.989600 -8.886600
C -27.115700 -29.587900 -11.325600
N -26.984300 -28.847300 -12.454300
C -26.184700 -30.448600 -9.381500
N -26.041800 -29.778300 -10.554900
H -25.895900 -27.274400 -13.108200
C -25.721800 -28.215600 -12.854700
H -25.683800 -28.924900 -14.776200
H -25.101200 -28.213900 -12.083700
N -25.075600 -30.566100 -8.644400
C -25.074100 -28.926000 -14.008500
H -25.050300 -30.953800 -7.875800
H -24.873300 -29.849800 -13.751700
H -24.332400 -30.272000 -8.961700
H -24.243500 -28.466200 -14.250700
H -31.683200 -35.506800 -9.970100
H -31.594300 -33.701000 -15.259000
H -31.053500 -34.123200 -10.469000
H -30.876400 -33.019200 -16.344900
C -30.852700 -35.047000 -10.212300
N -30.851200 -33.406900 -15.576300
H -30.825600 -35.759100 -12.137000
H -30.242900 -35.048100 -9.444500
C -30.205000 -35.757400 -11.366000
H -30.030900 -36.698600 -11.112500
N -29.885000 -34.194700 -13.665800
C -29.742100 -33.524400 -14.839200
N -28.942400 -35.125700 -11.766400
C -28.811100 -34.385100 -12.895100
N -28.611900 -32.983400 -15.334100
H -28.058600 -33.461500 -9.966800
C -27.826000 -35.264500 -10.876700
C -27.561300 -33.169300 -14.517100
C -27.554200 -33.837000 -13.296400
C -27.503600 -34.232000 -10.012800
H -27.282400 -37.131800 -11.486300
C -27.048100 -36.412000 -10.912200
C -26.376900 -34.318600 -9.216800
N -26.306800 -32.740300 -14.748800
C -26.212400 -33.749400 -12.853900
H -26.146600 -33.602300 -8.636300
H -26.024900 -32.242400 -15.390600
C -25.926500 -36.499700 -10.105700
H -25.891600 -34.117700 -12.039300
C -25.584200 -35.452200 -9.266000
N -25.467300 -33.090100 -13.718600
H -25.389600 -37.283500 -10.127500
H -24.805600 -35.512300 -8.725100
