34
Fragment
H -19.500200 -20.524900 -27.819000
H -19.174700 -16.570100 -24.793600
N -18.795800 -18.869500 -26.130800
N -18.692600 -20.667100 -27.559200
N -18.498400 -17.059000 -24.584100
H -18.297500 -21.383600 -27.824100
C -18.131300 -19.954500 -26.573600
C -18.104100 -18.202500 -25.180500
N -17.544800 -16.602300 -23.699200
N -16.925300 -20.414400 -26.133900
C -16.858600 -18.541200 -24.648700
C -16.574100 -17.498100 -23.732500
C -16.298200 -19.753300 -25.152700
H -15.784400 -17.449000 -23.208000
H -15.391800 -22.160200 -25.372300
N -15.162300 -20.293800 -24.655500
H -15.049900 -20.670700 -22.065900
C -14.644000 -21.570400 -25.142200
C -14.484900 -19.953700 -22.328300
C -14.392400 -19.593800 -23.668200
H -14.099100 -21.990100 -24.442900
H -14.091800 -21.416700 -25.938200
H -13.817800 -19.515300 -20.464900
C -13.754600 -19.268300 -21.380500
C -13.567800 -18.554400 -24.043300
H -13.496500 -18.319700 -24.961100
C -12.926200 -18.218900 -21.758700
C -12.838900 -17.845200 -23.093700
H -12.288800 -17.115200 -23.355000
O -12.218100 -17.630000 -20.747200
H -12.090200 -15.753100 -21.378900
C -11.477400 -16.448400 -21.058200
H -11.015200 -16.131000 -20.253500
H -10.818500 -16.649300 -21.755300
34
Fragment
H -28.451800 -20.524900 -27.819000
H -28.126300 -16.570100 -24.793600
N -27.747400 -18.869500 -26.130800
N -27.644200 -20.667100 -27.559200
N -27.450000 -17.059000 -24.584100
H -27.249100 -21.383600 -27.824100
C -27.082900 -19.954500 -26.573600
C -27.055700 -18.202500 -25.180500
N -26.496400 -16.602300 -23.699200
N -25.876900 -20.414400 -26.133900
C -25.810200 -18.541200 -24.648700
C -25.525700 -17.498100 -23.732500
C -25.249800 -19.753300 -25.152700
H -24.736000 -17.449000 -23.208000
H -24.343400 -22.160200 -25.372300
N -24.113900 -20.293800 -24.655500
H -24.001500 -20.670700 -22.065900
C -23.595600 -21.570400 -25.142200
C -23.436500 -19.953700 -22.328300
C -23.344000 -19.593800 -23.668200
H -23.050700 -21.990100 -24.442900
H -23.043400 -21.416700 -25.938200
H -22.769400 -19.515300 -20.464900
C -22.706200 -19.268300 -21.380500
C -22.519400 -18.554400 -24.043300
H -22.448100 -18.319700 -24.961100
C -21.877800 -18.218900 -21.758700
C -21.790500 -17.845200 -23.093700
H -21.240400 -17.115200 -23.355000
O -21.169700 -17.630000 -20.747200
H -21.041800 -15.753100 -21.378900
C -20.429000 -16.448400 -21.058200
H -19.966800 -16.131000 -20.253500
H -19.770100 -16.649300 -21.755300
68
Fragment
H -19.500200 -20.524900 -27.819000
H -19.174700 -16.570100 -24.793600
N -18.795800 -18.869500 -26.130800
N -18.692600 -20.667100 -27.559200
N -18.498400 -17.059000 -24.584100
H -18.297500 -21.383600 -27.824100
C -18.131300 -19.954500 -26.573600
C -18.104100 -18.202500 -25.180500
N -17.544800 -16.602300 -23.699200
N -16.925300 -20.414400 -26.133900
C -16.858600 -18.541200 -24.648700
C -16.574100 -17.498100 -23.732500
C -16.298200 -19.753300 -25.152700
H -15.784400 -17.449000 -23.208000
H -15.391800 -22.160200 -25.372300
N -15.162300 -20.293800 -24.655500
H -15.049900 -20.670700 -22.065900
C -14.644000 -21.570400 -25.142200
C -14.484900 -19.953700 -22.328300
C -14.392400 -19.593800 -23.668200
H -14.099100 -21.990100 -24.442900
H -14.091800 -21.416700 -25.938200
H -13.817800 -19.515300 -20.464900
C -13.754600 -19.268300 -21.380500
C -13.567800 -18.554400 -24.043300
H -13.496500 -18.319700 -24.961100
C -12.926200 -18.218900 -21.758700
C -12.838900 -17.845200 -23.093700
H -12.288800 -17.115200 -23.355000
O -12.218100 -17.630000 -20.747200
H -12.090200 -15.753100 -21.378900
C -11.477400 -16.448400 -21.058200
H -11.015200 -16.131000 -20.253500
H -10.818500 -16.649300 -21.755300
H -28.451800 -20.524900 -27.819000
H -28.126300 -16.570100 -24.793600
N -27.747400 -18.869500 -26.130800
N -27.644200 -20.667100 -27.559200
N -27.450000 -17.059000 -24.584100
H -27.249100 -21.383600 -27.824100
C -27.082900 -19.954500 -26.573600
C -27.055700 -18.202500 -25.180500
N -26.496400 -16.602300 -23.699200
N -25.876900 -20.414400 -26.133900
C -25.810200 -18.541200 -24.648700
C -25.525700 -17.498100 -23.732500
C -25.249800 -19.753300 -25.152700
H -24.736000 -17.449000 -23.208000
H -24.343400 -22.160200 -25.372300
N -24.113900 -20.293800 -24.655500
H -24.001500 -20.670700 -22.065900
C -23.595600 -21.570400 -25.142200
C -23.436500 -19.953700 -22.328300
C -23.344000 -19.593800 -23.668200
H -23.050700 -21.990100 -24.442900
H -23.043400 -21.416700 -25.938200
H -22.769400 -19.515300 -20.464900
C -22.706200 -19.268300 -21.380500
C -22.519400 -18.554400 -24.043300
H -22.448100 -18.319700 -24.961100
C -21.877800 -18.218900 -21.758700
C -21.790500 -17.845200 -23.093700
H -21.240400 -17.115200 -23.355000
O -21.169700 -17.630000 -20.747200
H -21.041800 -15.753100 -21.378900
C -20.429000 -16.448400 -21.058200
H -19.966800 -16.131000 -20.253500
H -19.770100 -16.649300 -21.755300
