34
Fragment
H -19.500200 -20.524900 -27.819000
H -19.174700 -16.570100 -24.793600
N -18.795800 -18.869500 -26.130800
N -18.692600 -20.667100 -27.559200
N -18.498400 -17.059000 -24.584100
H -18.297500 -21.383600 -27.824100
C -18.131300 -19.954500 -26.573600
C -18.104100 -18.202500 -25.180500
N -17.544800 -16.602300 -23.699200
N -16.925300 -20.414400 -26.133900
C -16.858600 -18.541200 -24.648700
C -16.574100 -17.498100 -23.732500
C -16.298200 -19.753300 -25.152700
H -15.784400 -17.449000 -23.208000
H -15.391800 -22.160200 -25.372300
N -15.162300 -20.293800 -24.655500
H -15.049900 -20.670700 -22.065900
C -14.644000 -21.570400 -25.142200
C -14.484900 -19.953700 -22.328300
C -14.392400 -19.593800 -23.668200
H -14.099100 -21.990100 -24.442900
H -14.091800 -21.416700 -25.938200
H -13.817800 -19.515300 -20.464900
C -13.754600 -19.268300 -21.380500
C -13.567800 -18.554400 -24.043300
H -13.496500 -18.319700 -24.961100
C -12.926200 -18.218900 -21.758700
C -12.838900 -17.845200 -23.093700
H -12.288800 -17.115200 -23.355000
O -12.218100 -17.630000 -20.747200
H -12.090200 -15.753100 -21.378900
C -11.477400 -16.448400 -21.058200
H -11.015200 -16.131000 -20.253500
H -10.818500 -16.649300 -21.755300
34
Fragment
H -16.087300 -15.019800 -20.257400
H -15.821500 -16.384400 -21.051400
C -15.398300 -15.640900 -20.573000
H -14.787100 -15.169600 -21.177800
O -14.670100 -16.146300 -19.461300
H -14.601600 -13.487500 -19.482700
C -14.053300 -13.881300 -18.814400
C -13.985600 -15.261100 -18.686700
H -13.366100 -12.133000 -18.023500
C -13.309400 -13.079000 -17.952600
C -13.180600 -15.828500 -17.703700
H -13.143000 -16.773000 -17.612300
H -12.685900 -11.757400 -14.820200
H -12.541300 -13.309000 -14.451500
C -12.490900 -13.645800 -16.995800
C -12.437700 -15.030600 -16.861700
C -12.078100 -12.526200 -14.819000
H -11.891300 -15.423300 -16.191700
N -11.651700 -12.811100 -16.187000
H -11.293800 -12.322600 -14.268500
H -11.200800 -13.912700 -19.215800
C -10.521800 -12.286100 -16.710400
C -10.396100 -13.413700 -19.140300
C -10.040800 -12.635700 -18.009700
N -9.822200 -11.426200 -15.956400
N -9.465800 -13.357400 -20.075900
C -8.796600 -12.096800 -18.341400
C -8.634700 -10.951700 -16.426100
N -8.470100 -12.557900 -19.563600
H -8.404000 -9.845300 -14.889800
N -8.039800 -11.260700 -17.592700
N -8.011100 -10.080900 -15.617200
H -7.823100 -12.291900 -20.064000
H -7.222700 -9.782100 -15.787000
68
Fragment
H -19.500200 -20.524900 -27.819000
H -19.174700 -16.570100 -24.793600
N -18.795800 -18.869500 -26.130800
N -18.692600 -20.667100 -27.559200
N -18.498400 -17.059000 -24.584100
H -18.297500 -21.383600 -27.824100
C -18.131300 -19.954500 -26.573600
C -18.104100 -18.202500 -25.180500
N -17.544800 -16.602300 -23.699200
N -16.925300 -20.414400 -26.133900
C -16.858600 -18.541200 -24.648700
C -16.574100 -17.498100 -23.732500
C -16.298200 -19.753300 -25.152700
H -15.784400 -17.449000 -23.208000
H -15.391800 -22.160200 -25.372300
N -15.162300 -20.293800 -24.655500
H -15.049900 -20.670700 -22.065900
C -14.644000 -21.570400 -25.142200
C -14.484900 -19.953700 -22.328300
C -14.392400 -19.593800 -23.668200
H -14.099100 -21.990100 -24.442900
H -14.091800 -21.416700 -25.938200
H -13.817800 -19.515300 -20.464900
C -13.754600 -19.268300 -21.380500
C -13.567800 -18.554400 -24.043300
H -13.496500 -18.319700 -24.961100
C -12.926200 -18.218900 -21.758700
C -12.838900 -17.845200 -23.093700
H -12.288800 -17.115200 -23.355000
O -12.218100 -17.630000 -20.747200
H -12.090200 -15.753100 -21.378900
C -11.477400 -16.448400 -21.058200
H -11.015200 -16.131000 -20.253500
H -10.818500 -16.649300 -21.755300
H -16.087300 -15.019800 -20.257400
H -15.821500 -16.384400 -21.051400
C -15.398300 -15.640900 -20.573000
H -14.787100 -15.169600 -21.177800
O -14.670100 -16.146300 -19.461300
H -14.601600 -13.487500 -19.482700
C -14.053300 -13.881300 -18.814400
C -13.985600 -15.261100 -18.686700
H -13.366100 -12.133000 -18.023500
C -13.309400 -13.079000 -17.952600
C -13.180600 -15.828500 -17.703700
H -13.143000 -16.773000 -17.612300
H -12.685900 -11.757400 -14.820200
H -12.541300 -13.309000 -14.451500
C -12.490900 -13.645800 -16.995800
C -12.437700 -15.030600 -16.861700
C -12.078100 -12.526200 -14.819000
H -11.891300 -15.423300 -16.191700
N -11.651700 -12.811100 -16.187000
H -11.293800 -12.322600 -14.268500
H -11.200800 -13.912700 -19.215800
C -10.521800 -12.286100 -16.710400
C -10.396100 -13.413700 -19.140300
C -10.040800 -12.635700 -18.009700
N -9.822200 -11.426200 -15.956400
N -9.465800 -13.357400 -20.075900
C -8.796600 -12.096800 -18.341400
C -8.634700 -10.951700 -16.426100
N -8.470100 -12.557900 -19.563600
H -8.404000 -9.845300 -14.889800
N -8.039800 -11.260700 -17.592700
N -8.011100 -10.080900 -15.617200
H -7.823100 -12.291900 -20.064000
H -7.222700 -9.782100 -15.787000
