33
Fragment
H -31.121100 -28.460700 -15.495600
H -30.537200 -26.689500 -14.093200
N -30.459500 -30.882900 -10.502100
C -30.342500 -28.520800 -14.954700
H -30.035100 -29.855300 -12.181400
C -30.000200 -27.473300 -14.115000
H -29.901900 -31.730600 -8.830100
H -29.780200 -30.370700 -15.584400
C -29.714300 -30.223600 -11.366800
N -29.619900 -31.232700 -9.471900
C -29.549900 -29.654400 -15.003900
C -28.878700 -27.561000 -13.308500
H -28.644300 -26.841200 -12.734400
C -28.423100 -29.741000 -14.207900
C -28.372600 -30.136000 -10.924300
C -28.365500 -30.803700 -9.703600
C -28.100800 -28.708500 -13.344000
H -27.868200 -30.511500 -14.253900
N -27.314900 -30.989600 -8.886600
C -27.115700 -29.587900 -11.325600
N -26.984300 -28.847300 -12.454300
C -26.184700 -30.448600 -9.381500
N -26.041800 -29.778300 -10.554900
H -25.895900 -27.274400 -13.108200
C -25.721800 -28.215600 -12.854700
H -25.683800 -28.924900 -14.776200
H -25.101200 -28.213900 -12.083700
N -25.075600 -30.566100 -8.644400
C -25.074100 -28.926000 -14.008500
H -25.050300 -30.953800 -7.875800
H -24.873300 -29.849800 -13.751700
H -24.332400 -30.272000 -8.961700
H -24.243500 -28.466200 -14.250700
33
Fragment
H -21.892200 -28.466200 -14.006800
H -21.803300 -30.272000 -19.295800
H -21.262500 -29.849800 -14.505800
H -21.085400 -30.953800 -20.381700
C -21.061600 -28.926000 -14.249000
N -21.060200 -30.566100 -19.613100
H -21.034500 -28.213900 -16.173800
H -20.451900 -28.924900 -13.481200
C -20.413900 -28.215600 -15.402800
H -20.239800 -27.274400 -15.149200
N -20.094000 -29.778300 -17.702600
C -19.951000 -30.448600 -18.876000
N -19.151400 -28.847300 -15.803200
C -19.020100 -29.587900 -16.931900
N -18.820800 -30.989600 -19.370900
H -18.267500 -30.511500 -14.003600
C -18.035000 -28.708500 -14.913500
C -17.770200 -30.803700 -18.553900
C -17.763100 -30.136000 -17.333100
C -17.712600 -29.741000 -14.049600
H -17.491400 -26.841200 -15.523100
C -17.257100 -27.561000 -14.949000
C -16.585800 -29.654400 -13.253600
N -16.515800 -31.232700 -18.785600
C -16.421400 -30.223600 -16.890700
H -16.355600 -30.370700 -12.673100
H -16.233800 -31.730600 -19.427400
C -16.135500 -27.473300 -14.142500
H -16.100600 -29.855300 -16.076100
C -15.793200 -28.520800 -13.302800
N -15.676200 -30.882900 -17.755400
H -15.598500 -26.689500 -14.164300
H -15.014600 -28.460700 -12.761900
66
Fragment
H -31.121100 -28.460700 -15.495600
H -30.537200 -26.689500 -14.093200
N -30.459500 -30.882900 -10.502100
C -30.342500 -28.520800 -14.954700
H -30.035100 -29.855300 -12.181400
C -30.000200 -27.473300 -14.115000
H -29.901900 -31.730600 -8.830100
H -29.780200 -30.370700 -15.584400
C -29.714300 -30.223600 -11.366800
N -29.619900 -31.232700 -9.471900
C -29.549900 -29.654400 -15.003900
C -28.878700 -27.561000 -13.308500
H -28.644300 -26.841200 -12.734400
C -28.423100 -29.741000 -14.207900
C -28.372600 -30.136000 -10.924300
C -28.365500 -30.803700 -9.703600
C -28.100800 -28.708500 -13.344000
H -27.868200 -30.511500 -14.253900
N -27.314900 -30.989600 -8.886600
C -27.115700 -29.587900 -11.325600
N -26.984300 -28.847300 -12.454300
C -26.184700 -30.448600 -9.381500
N -26.041800 -29.778300 -10.554900
H -25.895900 -27.274400 -13.108200
C -25.721800 -28.215600 -12.854700
H -25.683800 -28.924900 -14.776200
H -25.101200 -28.213900 -12.083700
N -25.075600 -30.566100 -8.644400
C -25.074100 -28.926000 -14.008500
H -25.050300 -30.953800 -7.875800
H -24.873300 -29.849800 -13.751700
H -24.332400 -30.272000 -8.961700
H -24.243500 -28.466200 -14.250700
H -21.892200 -28.466200 -14.006800
H -21.803300 -30.272000 -19.295800
H -21.262500 -29.849800 -14.505800
H -21.085400 -30.953800 -20.381700
C -21.061600 -28.926000 -14.249000
N -21.060200 -30.566100 -19.613100
H -21.034500 -28.213900 -16.173800
H -20.451900 -28.924900 -13.481200
C -20.413900 -28.215600 -15.402800
H -20.239800 -27.274400 -15.149200
N -20.094000 -29.778300 -17.702600
C -19.951000 -30.448600 -18.876000
N -19.151400 -28.847300 -15.803200
C -19.020100 -29.587900 -16.931900
N -18.820800 -30.989600 -19.370900
H -18.267500 -30.511500 -14.003600
C -18.035000 -28.708500 -14.913500
C -17.770200 -30.803700 -18.553900
C -17.763100 -30.136000 -17.333100
C -17.712600 -29.741000 -14.049600
H -17.491400 -26.841200 -15.523100
C -17.257100 -27.561000 -14.949000
C -16.585800 -29.654400 -13.253600
N -16.515800 -31.232700 -18.785600
C -16.421400 -30.223600 -16.890700
H -16.355600 -30.370700 -12.673100
H -16.233800 -31.730600 -19.427400
C -16.135500 -27.473300 -14.142500
H -16.100600 -29.855300 -16.076100
C -15.793200 -28.520800 -13.302800
N -15.676200 -30.882900 -17.755400
H -15.598500 -26.689500 -14.164300
H -15.014600 -28.460700 -12.761900
