20
Fragment
N -18.368000 -18.034000 -18.467900
C -17.922100 -16.979500 -18.420700
N -17.889100 -14.631500 -20.823200
C -17.648500 -15.037700 -19.776600
C -17.401400 -15.639800 -18.493000
F -16.902900 -16.894600 -16.016500
C -16.720900 -15.019400 -17.473200
C -16.460300 -15.648800 -16.201600
F -16.395500 -13.012300 -18.718000
C -16.193300 -13.677000 -17.577200
C -15.787700 -15.046800 -15.214200
F -15.585500 -15.711600 -14.073400
C -15.520700 -13.075000 -16.589800
C -15.260100 -13.704400 -15.318200
F -15.078200 -11.829200 -16.774900
C -14.579700 -13.084000 -14.298400
C -14.332500 -13.686100 -13.014700
N -14.092000 -14.092300 -11.968200
C -14.059000 -11.744300 -14.370700
N -13.613100 -10.689800 -14.323400
30
Fragment
H -23.228500 -26.402300 -18.012100
H -23.217300 -24.866800 -19.775800
C -22.795800 -25.585400 -17.910800
C -22.795200 -24.655600 -18.974400
H -22.186700 -22.854100 -19.538700
C -22.180000 -23.454900 -18.828800
H -22.167800 -25.924800 -16.052400
C -22.165800 -25.293800 -16.735400
H -21.872700 -20.571700 -18.777200
C -21.520100 -23.087200 -17.610900
C -21.500900 -24.040000 -16.525500
H -21.343700 -25.454900 -14.375200
H -21.152500 -24.264600 -13.373000
C -20.964500 -20.844200 -18.626800
C -20.916100 -21.821100 -17.475800
C -20.858000 -23.708600 -15.315500
C -20.809500 -24.685500 -14.164600
H -20.621500 -21.265100 -19.418400
H -20.430300 -20.074800 -18.416100
C -20.273100 -21.489700 -16.265800
C -20.253900 -22.442500 -15.180400
H -19.901400 -24.958000 -14.014200
C -19.608200 -20.236000 -16.056000
H -19.606200 -19.604900 -16.739000
C -19.594100 -22.074800 -13.962600
H -19.587400 -22.675600 -13.252600
C -18.978800 -20.874100 -13.817000
C -18.978200 -19.944300 -14.880600
H -18.556700 -20.663000 -13.015600
H -18.545500 -19.127400 -14.779200
50
Fragment
N -18.368000 -18.034000 -18.467900
C -17.922100 -16.979500 -18.420700
N -17.889100 -14.631500 -20.823200
C -17.648500 -15.037700 -19.776600
C -17.401400 -15.639800 -18.493000
F -16.902900 -16.894600 -16.016500
C -16.720900 -15.019400 -17.473200
C -16.460300 -15.648800 -16.201600
F -16.395500 -13.012300 -18.718000
C -16.193300 -13.677000 -17.577200
C -15.787700 -15.046800 -15.214200
F -15.585500 -15.711600 -14.073400
C -15.520700 -13.075000 -16.589800
C -15.260100 -13.704400 -15.318200
F -15.078200 -11.829200 -16.774900
C -14.579700 -13.084000 -14.298400
C -14.332500 -13.686100 -13.014700
N -14.092000 -14.092300 -11.968200
C -14.059000 -11.744300 -14.370700
N -13.613100 -10.689800 -14.323400
H -23.228500 -26.402300 -18.012100
H -23.217300 -24.866800 -19.775800
C -22.795800 -25.585400 -17.910800
C -22.795200 -24.655600 -18.974400
H -22.186700 -22.854100 -19.538700
C -22.180000 -23.454900 -18.828800
H -22.167800 -25.924800 -16.052400
C -22.165800 -25.293800 -16.735400
H -21.872700 -20.571700 -18.777200
C -21.520100 -23.087200 -17.610900
C -21.500900 -24.040000 -16.525500
H -21.343700 -25.454900 -14.375200
H -21.152500 -24.264600 -13.373000
C -20.964500 -20.844200 -18.626800
C -20.916100 -21.821100 -17.475800
C -20.858000 -23.708600 -15.315500
C -20.809500 -24.685500 -14.164600
H -20.621500 -21.265100 -19.418400
H -20.430300 -20.074800 -18.416100
C -20.273100 -21.489700 -16.265800
C -20.253900 -22.442500 -15.180400
H -19.901400 -24.958000 -14.014200
C -19.608200 -20.236000 -16.056000
H -19.606200 -19.604900 -16.739000
C -19.594100 -22.074800 -13.962600
H -19.587400 -22.675600 -13.252600
C -18.978800 -20.874100 -13.817000
C -18.978200 -19.944300 -14.880600
H -18.556700 -20.663000 -13.015600
H -18.545500 -19.127400 -14.779200
