20
Fragment
N -18.368000 -18.034000 -18.467900
C -17.922100 -16.979500 -18.420700
N -17.889100 -14.631500 -20.823200
C -17.648500 -15.037700 -19.776600
C -17.401400 -15.639800 -18.493000
F -16.902900 -16.894600 -16.016500
C -16.720900 -15.019400 -17.473200
C -16.460300 -15.648800 -16.201600
F -16.395500 -13.012300 -18.718000
C -16.193300 -13.677000 -17.577200
C -15.787700 -15.046800 -15.214200
F -15.585500 -15.711600 -14.073400
C -15.520700 -13.075000 -16.589800
C -15.260100 -13.704400 -15.318200
F -15.078200 -11.829200 -16.774900
C -14.579700 -13.084000 -14.298400
C -14.332500 -13.686100 -13.014700
N -14.092000 -14.092300 -11.968200
C -14.059000 -11.744300 -14.370700
N -13.613100 -10.689800 -14.323400
30
Fragment
H -24.298000 -19.490700 -28.463100
C -23.772900 -19.721600 -27.731000
H -23.685100 -21.725600 -28.129300
H -23.624700 -17.876700 -27.008100
H -23.464000 -16.627500 -25.478100
C -23.394900 -21.071200 -27.535600
C -23.374000 -18.759200 -26.855500
H -22.872300 -16.273700 -24.070200
C -22.674800 -16.647900 -24.931900
C -22.607200 -21.412200 -26.480000
C -22.578700 -19.068400 -25.706000
H -22.349200 -22.299700 -26.376400
C -22.213000 -18.079500 -24.766300
C -22.163600 -20.441500 -25.522800
H -21.981200 -16.134500 -25.352500
H -21.592400 -22.749800 -23.834600
C -21.410000 -18.442700 -23.664200
C -21.360700 -20.804800 -24.420700
H -21.224400 -16.584500 -22.810700
C -20.995000 -19.815800 -23.481100
C -20.966500 -17.472000 -22.707000
C -20.898800 -22.236300 -24.255100
H -20.701400 -22.610600 -25.116900
C -20.199700 -20.125100 -22.331600
C -20.178700 -17.813000 -21.651500
H -20.109600 -22.256700 -23.709000
H -19.948900 -21.007500 -22.178900
H -19.888600 -17.158700 -21.057800
C -19.800700 -19.162600 -21.456100
H -19.275700 -19.393500 -20.724000
50
Fragment
N -18.368000 -18.034000 -18.467900
C -17.922100 -16.979500 -18.420700
N -17.889100 -14.631500 -20.823200
C -17.648500 -15.037700 -19.776600
C -17.401400 -15.639800 -18.493000
F -16.902900 -16.894600 -16.016500
C -16.720900 -15.019400 -17.473200
C -16.460300 -15.648800 -16.201600
F -16.395500 -13.012300 -18.718000
C -16.193300 -13.677000 -17.577200
C -15.787700 -15.046800 -15.214200
F -15.585500 -15.711600 -14.073400
C -15.520700 -13.075000 -16.589800
C -15.260100 -13.704400 -15.318200
F -15.078200 -11.829200 -16.774900
C -14.579700 -13.084000 -14.298400
C -14.332500 -13.686100 -13.014700
N -14.092000 -14.092300 -11.968200
C -14.059000 -11.744300 -14.370700
N -13.613100 -10.689800 -14.323400
H -24.298000 -19.490700 -28.463100
C -23.772900 -19.721600 -27.731000
H -23.685100 -21.725600 -28.129300
H -23.624700 -17.876700 -27.008100
H -23.464000 -16.627500 -25.478100
C -23.394900 -21.071200 -27.535600
C -23.374000 -18.759200 -26.855500
H -22.872300 -16.273700 -24.070200
C -22.674800 -16.647900 -24.931900
C -22.607200 -21.412200 -26.480000
C -22.578700 -19.068400 -25.706000
H -22.349200 -22.299700 -26.376400
C -22.213000 -18.079500 -24.766300
C -22.163600 -20.441500 -25.522800
H -21.981200 -16.134500 -25.352500
H -21.592400 -22.749800 -23.834600
C -21.410000 -18.442700 -23.664200
C -21.360700 -20.804800 -24.420700
H -21.224400 -16.584500 -22.810700
C -20.995000 -19.815800 -23.481100
C -20.966500 -17.472000 -22.707000
C -20.898800 -22.236300 -24.255100
H -20.701400 -22.610600 -25.116900
C -20.199700 -20.125100 -22.331600
C -20.178700 -17.813000 -21.651500
H -20.109600 -22.256700 -23.709000
H -19.948900 -21.007500 -22.178900
H -19.888600 -17.158700 -21.057800
C -19.800700 -19.162600 -21.456100
H -19.275700 -19.393500 -20.724000
