20
Fragment
N -18.368000 -18.034000 -18.467900
C -17.922100 -16.979500 -18.420700
N -17.889100 -14.631500 -20.823200
C -17.648500 -15.037700 -19.776600
C -17.401400 -15.639800 -18.493000
F -16.902900 -16.894600 -16.016500
C -16.720900 -15.019400 -17.473200
C -16.460300 -15.648800 -16.201600
F -16.395500 -13.012300 -18.718000
C -16.193300 -13.677000 -17.577200
C -15.787700 -15.046800 -15.214200
F -15.585500 -15.711600 -14.073400
C -15.520700 -13.075000 -16.589800
C -15.260100 -13.704400 -15.318200
F -15.078200 -11.829200 -16.774900
C -14.579700 -13.084000 -14.298400
C -14.332500 -13.686100 -13.014700
N -14.092000 -14.092300 -11.968200
C -14.059000 -11.744300 -14.370700
N -13.613100 -10.689800 -14.323400
20
Fragment
N -19.365000 -26.437000 -18.467900
C -18.919200 -25.382500 -18.420700
N -18.886200 -23.034500 -20.823200
C -18.645600 -23.440700 -19.776600
C -18.398500 -24.042700 -18.493000
F -17.900000 -25.297500 -16.016500
C -17.718000 -23.422300 -17.473200
C -17.457400 -24.051800 -16.201600
F -17.392600 -21.415200 -18.718000
C -17.190400 -22.079900 -17.577200
C -16.784800 -23.449800 -15.214200
F -16.582600 -24.114500 -14.073400
C -16.517800 -21.477900 -16.589800
C -16.257200 -22.107400 -15.318200
F -16.075200 -20.232200 -16.774900
C -15.576800 -21.487000 -14.298400
C -15.329600 -22.089000 -13.014700
N -15.089100 -22.495200 -11.968200
C -15.056000 -20.147200 -14.370700
N -14.610200 -19.092700 -14.323400
40
Fragment
N -18.368000 -18.034000 -18.467900
C -17.922100 -16.979500 -18.420700
N -17.889100 -14.631500 -20.823200
C -17.648500 -15.037700 -19.776600
C -17.401400 -15.639800 -18.493000
F -16.902900 -16.894600 -16.016500
C -16.720900 -15.019400 -17.473200
C -16.460300 -15.648800 -16.201600
F -16.395500 -13.012300 -18.718000
C -16.193300 -13.677000 -17.577200
C -15.787700 -15.046800 -15.214200
F -15.585500 -15.711600 -14.073400
C -15.520700 -13.075000 -16.589800
C -15.260100 -13.704400 -15.318200
F -15.078200 -11.829200 -16.774900
C -14.579700 -13.084000 -14.298400
C -14.332500 -13.686100 -13.014700
N -14.092000 -14.092300 -11.968200
C -14.059000 -11.744300 -14.370700
N -13.613100 -10.689800 -14.323400
N -19.365000 -26.437000 -18.467900
C -18.919200 -25.382500 -18.420700
N -18.886200 -23.034500 -20.823200
C -18.645600 -23.440700 -19.776600
C -18.398500 -24.042700 -18.493000
F -17.900000 -25.297500 -16.016500
C -17.718000 -23.422300 -17.473200
C -17.457400 -24.051800 -16.201600
F -17.392600 -21.415200 -18.718000
C -17.190400 -22.079900 -17.577200
C -16.784800 -23.449800 -15.214200
F -16.582600 -24.114500 -14.073400
C -16.517800 -21.477900 -16.589800
C -16.257200 -22.107400 -15.318200
F -16.075200 -20.232200 -16.774900
C -15.576800 -21.487000 -14.298400
C -15.329600 -22.089000 -13.014700
N -15.089100 -22.495200 -11.968200
C -15.056000 -20.147200 -14.370700
N -14.610200 -19.092700 -14.323400
