20
Fragment
N -18.368000 -18.034000 -18.467900
C -17.922100 -16.979500 -18.420700
N -17.889100 -14.631500 -20.823200
C -17.648500 -15.037700 -19.776600
C -17.401400 -15.639800 -18.493000
F -16.902900 -16.894600 -16.016500
C -16.720900 -15.019400 -17.473200
C -16.460300 -15.648800 -16.201600
F -16.395500 -13.012300 -18.718000
C -16.193300 -13.677000 -17.577200
C -15.787700 -15.046800 -15.214200
F -15.585500 -15.711600 -14.073400
C -15.520700 -13.075000 -16.589800
C -15.260100 -13.704400 -15.318200
F -15.078200 -11.829200 -16.774900
C -14.579700 -13.084000 -14.298400
C -14.332500 -13.686100 -13.014700
N -14.092000 -14.092300 -11.968200
C -14.059000 -11.744300 -14.370700
N -13.613100 -10.689800 -14.323400
30
Fragment
H -12.705400 -9.330300 -12.067400
C -12.180300 -9.561200 -11.335300
H -12.092500 -11.565100 -11.733600
H -12.032200 -7.716300 -10.612400
H -11.871400 -6.467100 -9.082400
C -11.802300 -10.910800 -11.139900
C -11.781400 -8.598700 -10.459800
H -11.279700 -6.113200 -7.674500
C -11.082300 -6.487500 -8.536300
C -11.014600 -11.251800 -10.084300
C -10.986100 -8.908000 -9.310300
H -10.756700 -12.139300 -9.980700
C -10.620400 -7.919000 -8.370700
C -10.571000 -10.281100 -9.127200
H -10.388600 -5.974100 -8.956800
H -9.999800 -12.589300 -7.438900
C -9.817400 -8.282300 -7.268500
C -9.768100 -10.644400 -8.025000
H -9.631800 -6.424100 -6.415000
C -9.402400 -9.655400 -7.085400
C -9.373900 -7.311600 -6.311400
C -9.306200 -12.075900 -7.859400
H -9.108800 -12.450200 -8.721200
C -8.607100 -9.964600 -5.935900
C -8.586100 -7.652600 -5.255800
H -8.517000 -12.096300 -7.313300
H -8.356300 -10.847100 -5.783300
H -8.296000 -6.998200 -4.662100
C -8.208100 -9.002200 -5.060400
H -7.683100 -9.233100 -4.328300
50
Fragment
N -18.368000 -18.034000 -18.467900
C -17.922100 -16.979500 -18.420700
N -17.889100 -14.631500 -20.823200
C -17.648500 -15.037700 -19.776600
C -17.401400 -15.639800 -18.493000
F -16.902900 -16.894600 -16.016500
C -16.720900 -15.019400 -17.473200
C -16.460300 -15.648800 -16.201600
F -16.395500 -13.012300 -18.718000
C -16.193300 -13.677000 -17.577200
C -15.787700 -15.046800 -15.214200
F -15.585500 -15.711600 -14.073400
C -15.520700 -13.075000 -16.589800
C -15.260100 -13.704400 -15.318200
F -15.078200 -11.829200 -16.774900
C -14.579700 -13.084000 -14.298400
C -14.332500 -13.686100 -13.014700
N -14.092000 -14.092300 -11.968200
C -14.059000 -11.744300 -14.370700
N -13.613100 -10.689800 -14.323400
H -12.705400 -9.330300 -12.067400
C -12.180300 -9.561200 -11.335300
H -12.092500 -11.565100 -11.733600
H -12.032200 -7.716300 -10.612400
H -11.871400 -6.467100 -9.082400
C -11.802300 -10.910800 -11.139900
C -11.781400 -8.598700 -10.459800
H -11.279700 -6.113200 -7.674500
C -11.082300 -6.487500 -8.536300
C -11.014600 -11.251800 -10.084300
C -10.986100 -8.908000 -9.310300
H -10.756700 -12.139300 -9.980700
C -10.620400 -7.919000 -8.370700
C -10.571000 -10.281100 -9.127200
H -10.388600 -5.974100 -8.956800
H -9.999800 -12.589300 -7.438900
C -9.817400 -8.282300 -7.268500
C -9.768100 -10.644400 -8.025000
H -9.631800 -6.424100 -6.415000
C -9.402400 -9.655400 -7.085400
C -9.373900 -7.311600 -6.311400
C -9.306200 -12.075900 -7.859400
H -9.108800 -12.450200 -8.721200
C -8.607100 -9.964600 -5.935900
C -8.586100 -7.652600 -5.255800
H -8.517000 -12.096300 -7.313300
H -8.356300 -10.847100 -5.783300
H -8.296000 -6.998200 -4.662100
C -8.208100 -9.002200 -5.060400
H -7.683100 -9.233100 -4.328300
