36
Fragment
O -15.788600 -19.665500 -12.289300
O -15.714900 -18.237500 -13.933500
N -15.242100 -18.827400 -12.983900
N -13.934300 -18.477100 -12.623900
H -13.811400 -19.857900 -11.143000
H -13.786200 -17.066200 -14.068000
O -13.597700 -21.390200 -13.312500
O -13.270900 -17.929800 -16.135900
C -13.200800 -19.277500 -11.681100
C -13.181300 -17.584300 -13.462600
O -12.688200 -16.306000 -9.039200
O -12.687900 -14.806300 -10.622600
N -12.653100 -15.959300 -10.197800
N -12.604600 -16.973700 -11.161100
H -12.578500 -18.463300 -9.792700
H -12.566300 -15.662900 -12.727100
N -12.448400 -20.973000 -13.296800
C -12.353500 -18.326300 -10.757000
C -12.346100 -16.622200 -12.546400
N -12.194600 -18.215600 -15.647400
N -12.168500 -18.323900 -14.236700
N -12.139100 -20.069300 -12.327600
O -11.530800 -21.311100 -14.044400
O -11.167800 -18.505100 -16.231100
N -10.981500 -18.787300 -11.058100
N -10.947500 -16.922700 -12.877900
C -10.890200 -18.226600 -13.542100
C -10.883500 -19.335800 -12.394300
O -10.548500 -14.743000 -13.220300
N -10.134500 -15.873000 -13.357700
O -10.119700 -17.466400 -9.516900
H -10.109500 -18.309100 -14.161600
H -10.100900 -19.953100 -12.483400
N -9.906800 -18.125600 -10.523500
O -9.037600 -16.214800 -13.774600
O -8.829200 -18.284900 -11.092500
16
Fragment
O -18.458100 -20.831900 -15.615000
O -17.978400 -21.763600 -17.511300
N -17.886500 -20.852600 -16.695100
N -17.258500 -18.578100 -16.410600
C -17.058500 -19.714100 -17.041400
H -17.002000 -16.268200 -15.699300
H -16.644700 -15.751300 -17.171100
N -16.382700 -17.727900 -16.931500
C -16.375000 -16.354600 -16.446900
C -16.045300 -19.638700 -18.001800
C -15.627800 -18.339700 -17.882200
H -15.472400 -16.119400 -16.145700
Br -15.378000 -20.995600 -19.086000
N -14.607000 -17.636600 -18.629700
O -14.494800 -16.424000 -18.452100
O -13.926300 -18.304400 -19.392900
52
Fragment
O -15.788600 -19.665500 -12.289300
O -15.714900 -18.237500 -13.933500
N -15.242100 -18.827400 -12.983900
N -13.934300 -18.477100 -12.623900
H -13.811400 -19.857900 -11.143000
H -13.786200 -17.066200 -14.068000
O -13.597700 -21.390200 -13.312500
O -13.270900 -17.929800 -16.135900
C -13.200800 -19.277500 -11.681100
C -13.181300 -17.584300 -13.462600
O -12.688200 -16.306000 -9.039200
O -12.687900 -14.806300 -10.622600
N -12.653100 -15.959300 -10.197800
N -12.604600 -16.973700 -11.161100
H -12.578500 -18.463300 -9.792700
H -12.566300 -15.662900 -12.727100
N -12.448400 -20.973000 -13.296800
C -12.353500 -18.326300 -10.757000
C -12.346100 -16.622200 -12.546400
N -12.194600 -18.215600 -15.647400
N -12.168500 -18.323900 -14.236700
N -12.139100 -20.069300 -12.327600
O -11.530800 -21.311100 -14.044400
O -11.167800 -18.505100 -16.231100
N -10.981500 -18.787300 -11.058100
N -10.947500 -16.922700 -12.877900
C -10.890200 -18.226600 -13.542100
C -10.883500 -19.335800 -12.394300
O -10.548500 -14.743000 -13.220300
N -10.134500 -15.873000 -13.357700
O -10.119700 -17.466400 -9.516900
H -10.109500 -18.309100 -14.161600
H -10.100900 -19.953100 -12.483400
N -9.906800 -18.125600 -10.523500
O -9.037600 -16.214800 -13.774600
O -8.829200 -18.284900 -11.092500
O -18.458100 -20.831900 -15.615000
O -17.978400 -21.763600 -17.511300
N -17.886500 -20.852600 -16.695100
N -17.258500 -18.578100 -16.410600
C -17.058500 -19.714100 -17.041400
H -17.002000 -16.268200 -15.699300
H -16.644700 -15.751300 -17.171100
N -16.382700 -17.727900 -16.931500
C -16.375000 -16.354600 -16.446900
C -16.045300 -19.638700 -18.001800
C -15.627800 -18.339700 -17.882200
H -15.472400 -16.119400 -16.145700
Br -15.378000 -20.995600 -19.086000
N -14.607000 -17.636600 -18.629700
O -14.494800 -16.424000 -18.452100
O -13.926300 -18.304400 -19.392900
