36
Fragment
O -15.788600 -19.665500 -12.289300
O -15.714900 -18.237500 -13.933500
N -15.242100 -18.827400 -12.983900
N -13.934300 -18.477100 -12.623900
H -13.811400 -19.857900 -11.143000
H -13.786200 -17.066200 -14.068000
O -13.597700 -21.390200 -13.312500
O -13.270900 -17.929800 -16.135900
C -13.200800 -19.277500 -11.681100
C -13.181300 -17.584300 -13.462600
O -12.688200 -16.306000 -9.039200
O -12.687900 -14.806300 -10.622600
N -12.653100 -15.959300 -10.197800
N -12.604600 -16.973700 -11.161100
H -12.578500 -18.463300 -9.792700
H -12.566300 -15.662900 -12.727100
N -12.448400 -20.973000 -13.296800
C -12.353500 -18.326300 -10.757000
C -12.346100 -16.622200 -12.546400
N -12.194600 -18.215600 -15.647400
N -12.168500 -18.323900 -14.236700
N -12.139100 -20.069300 -12.327600
O -11.530800 -21.311100 -14.044400
O -11.167800 -18.505100 -16.231100
N -10.981500 -18.787300 -11.058100
N -10.947500 -16.922700 -12.877900
C -10.890200 -18.226600 -13.542100
C -10.883500 -19.335800 -12.394300
O -10.548500 -14.743000 -13.220300
N -10.134500 -15.873000 -13.357700
O -10.119700 -17.466400 -9.516900
H -10.109500 -18.309100 -14.161600
H -10.100900 -19.953100 -12.483400
N -9.906800 -18.125600 -10.523500
O -9.037600 -16.214800 -13.774600
O -8.829200 -18.284900 -11.092500
36
Fragment
O -16.555400 -12.203300 -8.528100
O -16.347000 -10.133200 -5.845900
N -15.477800 -12.044000 -9.097100
H -15.283700 -13.871500 -7.137200
H -15.275000 -12.227500 -5.458900
O -15.264800 -11.384800 -10.103600
N -15.250100 -9.791400 -6.262900
O -14.836100 -8.661400 -6.400200
C -14.501100 -13.254200 -7.226200
C -14.494400 -12.145000 -6.078400
N -14.437100 -10.841100 -6.742600
N -14.403100 -12.705700 -8.562400
O -14.216800 -12.423500 -3.389400
O -13.853800 -15.229500 -5.576200
N -13.245500 -13.987700 -7.293000
N -13.216100 -12.242300 -5.383900
N -13.190000 -12.134000 -3.973200
C -13.038500 -10.540600 -7.074200
C -13.031000 -12.244700 -8.863600
N -12.936200 -14.891400 -6.323700
H -12.818300 -9.581300 -6.893500
H -12.806100 -12.381700 -9.827800
N -12.780000 -10.892100 -8.459400
N -12.731500 -9.877700 -9.422800
O -12.696600 -8.724700 -8.998000
O -12.696400 -10.224400 -10.581400
C -12.203300 -11.502700 -6.157900
C -12.183800 -13.195900 -7.939500
O -12.113700 -11.848200 -3.484600
O -11.786900 -15.308600 -6.308000
H -11.598400 -10.984600 -5.552500
H -11.573100 -13.776300 -8.477500
N -11.450200 -12.395500 -6.996700
N -10.142500 -12.745800 -6.636600
O -9.669700 -12.155900 -5.687000
O -9.596000 -13.583900 -7.331200
72
Fragment
O -15.788600 -19.665500 -12.289300
O -15.714900 -18.237500 -13.933500
N -15.242100 -18.827400 -12.983900
N -13.934300 -18.477100 -12.623900
H -13.811400 -19.857900 -11.143000
H -13.786200 -17.066200 -14.068000
O -13.597700 -21.390200 -13.312500
O -13.270900 -17.929800 -16.135900
C -13.200800 -19.277500 -11.681100
C -13.181300 -17.584300 -13.462600
O -12.688200 -16.306000 -9.039200
O -12.687900 -14.806300 -10.622600
N -12.653100 -15.959300 -10.197800
N -12.604600 -16.973700 -11.161100
H -12.578500 -18.463300 -9.792700
H -12.566300 -15.662900 -12.727100
N -12.448400 -20.973000 -13.296800
C -12.353500 -18.326300 -10.757000
C -12.346100 -16.622200 -12.546400
N -12.194600 -18.215600 -15.647400
N -12.168500 -18.323900 -14.236700
N -12.139100 -20.069300 -12.327600
O -11.530800 -21.311100 -14.044400
O -11.167800 -18.505100 -16.231100
N -10.981500 -18.787300 -11.058100
N -10.947500 -16.922700 -12.877900
C -10.890200 -18.226600 -13.542100
C -10.883500 -19.335800 -12.394300
O -10.548500 -14.743000 -13.220300
N -10.134500 -15.873000 -13.357700
O -10.119700 -17.466400 -9.516900
H -10.109500 -18.309100 -14.161600
H -10.100900 -19.953100 -12.483400
N -9.906800 -18.125600 -10.523500
O -9.037600 -16.214800 -13.774600
O -8.829200 -18.284900 -11.092500
O -16.555400 -12.203300 -8.528100
O -16.347000 -10.133200 -5.845900
N -15.477800 -12.044000 -9.097100
H -15.283700 -13.871500 -7.137200
H -15.275000 -12.227500 -5.458900
O -15.264800 -11.384800 -10.103600
N -15.250100 -9.791400 -6.262900
O -14.836100 -8.661400 -6.400200
C -14.501100 -13.254200 -7.226200
C -14.494400 -12.145000 -6.078400
N -14.437100 -10.841100 -6.742600
N -14.403100 -12.705700 -8.562400
O -14.216800 -12.423500 -3.389400
O -13.853800 -15.229500 -5.576200
N -13.245500 -13.987700 -7.293000
N -13.216100 -12.242300 -5.383900
N -13.190000 -12.134000 -3.973200
C -13.038500 -10.540600 -7.074200
C -13.031000 -12.244700 -8.863600
N -12.936200 -14.891400 -6.323700
H -12.818300 -9.581300 -6.893500
H -12.806100 -12.381700 -9.827800
N -12.780000 -10.892100 -8.459400
N -12.731500 -9.877700 -9.422800
O -12.696600 -8.724700 -8.998000
O -12.696400 -10.224400 -10.581400
C -12.203300 -11.502700 -6.157900
C -12.183800 -13.195900 -7.939500
O -12.113700 -11.848200 -3.484600
O -11.786900 -15.308600 -6.308000
H -11.598400 -10.984600 -5.552500
H -11.573100 -13.776300 -8.477500
N -11.450200 -12.395500 -6.996700
N -10.142500 -12.745800 -6.636600
O -9.669700 -12.155900 -5.687000
O -9.596000 -13.583900 -7.331200
