36
Fragment
O -15.788600 -19.665500 -12.289300
O -15.714900 -18.237500 -13.933500
N -15.242100 -18.827400 -12.983900
N -13.934300 -18.477100 -12.623900
H -13.811400 -19.857900 -11.143000
H -13.786200 -17.066200 -14.068000
O -13.597700 -21.390200 -13.312500
O -13.270900 -17.929800 -16.135900
C -13.200800 -19.277500 -11.681100
C -13.181300 -17.584300 -13.462600
O -12.688200 -16.306000 -9.039200
O -12.687900 -14.806300 -10.622600
N -12.653100 -15.959300 -10.197800
N -12.604600 -16.973700 -11.161100
H -12.578500 -18.463300 -9.792700
H -12.566300 -15.662900 -12.727100
N -12.448400 -20.973000 -13.296800
C -12.353500 -18.326300 -10.757000
C -12.346100 -16.622200 -12.546400
N -12.194600 -18.215600 -15.647400
N -12.168500 -18.323900 -14.236700
N -12.139100 -20.069300 -12.327600
O -11.530800 -21.311100 -14.044400
O -11.167800 -18.505100 -16.231100
N -10.981500 -18.787300 -11.058100
N -10.947500 -16.922700 -12.877900
C -10.890200 -18.226600 -13.542100
C -10.883500 -19.335800 -12.394300
O -10.548500 -14.743000 -13.220300
N -10.134500 -15.873000 -13.357700
O -10.119700 -17.466400 -9.516900
H -10.109500 -18.309100 -14.161600
H -10.100900 -19.953100 -12.483400
N -9.906800 -18.125600 -10.523500
O -9.037600 -16.214800 -13.774600
O -8.829200 -18.284900 -11.092500
36
Fragment
O -6.572200 -19.665500 -12.289300
O -6.498500 -18.237500 -13.933500
N -6.025700 -18.827400 -12.983900
N -4.717900 -18.477100 -12.623900
H -4.595000 -19.857900 -11.143000
H -4.569800 -17.066200 -14.068000
O -4.381300 -21.390200 -13.312500
O -4.054500 -17.929800 -16.135900
C -3.984400 -19.277500 -11.681100
C -3.964900 -17.584300 -13.462600
O -3.471800 -16.306000 -9.039200
O -3.471500 -14.806300 -10.622600
N -3.436700 -15.959300 -10.197800
N -3.388200 -16.973700 -11.161100
H -3.362100 -18.463300 -9.792700
H -3.349900 -15.662900 -12.727100
N -3.232000 -20.973000 -13.296800
C -3.137100 -18.326300 -10.757000
C -3.129700 -16.622200 -12.546400
N -2.978200 -18.215600 -15.647400
N -2.952100 -18.323900 -14.236700
N -2.922700 -20.069300 -12.327600
O -2.314400 -21.311100 -14.044400
O -1.951400 -18.505100 -16.231100
N -1.765100 -18.787300 -11.058100
N -1.731100 -16.922700 -12.877900
C -1.673800 -18.226600 -13.542100
C -1.667100 -19.335800 -12.394300
O -1.332100 -14.743000 -13.220300
N -0.918100 -15.873000 -13.357700
O -0.903300 -17.466400 -9.516900
H -0.893100 -18.309100 -14.161600
H -0.884500 -19.953100 -12.483400
N -0.690400 -18.125600 -10.523500
O 0.178800 -16.214800 -13.774600
O 0.387200 -18.284900 -11.092500
72
Fragment
O -15.788600 -19.665500 -12.289300
O -15.714900 -18.237500 -13.933500
N -15.242100 -18.827400 -12.983900
N -13.934300 -18.477100 -12.623900
H -13.811400 -19.857900 -11.143000
H -13.786200 -17.066200 -14.068000
O -13.597700 -21.390200 -13.312500
O -13.270900 -17.929800 -16.135900
C -13.200800 -19.277500 -11.681100
C -13.181300 -17.584300 -13.462600
O -12.688200 -16.306000 -9.039200
O -12.687900 -14.806300 -10.622600
N -12.653100 -15.959300 -10.197800
N -12.604600 -16.973700 -11.161100
H -12.578500 -18.463300 -9.792700
H -12.566300 -15.662900 -12.727100
N -12.448400 -20.973000 -13.296800
C -12.353500 -18.326300 -10.757000
C -12.346100 -16.622200 -12.546400
N -12.194600 -18.215600 -15.647400
N -12.168500 -18.323900 -14.236700
N -12.139100 -20.069300 -12.327600
O -11.530800 -21.311100 -14.044400
O -11.167800 -18.505100 -16.231100
N -10.981500 -18.787300 -11.058100
N -10.947500 -16.922700 -12.877900
C -10.890200 -18.226600 -13.542100
C -10.883500 -19.335800 -12.394300
O -10.548500 -14.743000 -13.220300
N -10.134500 -15.873000 -13.357700
O -10.119700 -17.466400 -9.516900
H -10.109500 -18.309100 -14.161600
H -10.100900 -19.953100 -12.483400
N -9.906800 -18.125600 -10.523500
O -9.037600 -16.214800 -13.774600
O -8.829200 -18.284900 -11.092500
O -6.572200 -19.665500 -12.289300
O -6.498500 -18.237500 -13.933500
N -6.025700 -18.827400 -12.983900
N -4.717900 -18.477100 -12.623900
H -4.595000 -19.857900 -11.143000
H -4.569800 -17.066200 -14.068000
O -4.381300 -21.390200 -13.312500
O -4.054500 -17.929800 -16.135900
C -3.984400 -19.277500 -11.681100
C -3.964900 -17.584300 -13.462600
O -3.471800 -16.306000 -9.039200
O -3.471500 -14.806300 -10.622600
N -3.436700 -15.959300 -10.197800
N -3.388200 -16.973700 -11.161100
H -3.362100 -18.463300 -9.792700
H -3.349900 -15.662900 -12.727100
N -3.232000 -20.973000 -13.296800
C -3.137100 -18.326300 -10.757000
C -3.129700 -16.622200 -12.546400
N -2.978200 -18.215600 -15.647400
N -2.952100 -18.323900 -14.236700
N -2.922700 -20.069300 -12.327600
O -2.314400 -21.311100 -14.044400
O -1.951400 -18.505100 -16.231100
N -1.765100 -18.787300 -11.058100
N -1.731100 -16.922700 -12.877900
C -1.673800 -18.226600 -13.542100
C -1.667100 -19.335800 -12.394300
O -1.332100 -14.743000 -13.220300
N -0.918100 -15.873000 -13.357700
O -0.903300 -17.466400 -9.516900
H -0.893100 -18.309100 -14.161600
H -0.884500 -19.953100 -12.483400
N -0.690400 -18.125600 -10.523500
O 0.178800 -16.214800 -13.774600
O 0.387200 -18.284900 -11.092500
