3
Fragment
H -10.624000 -11.931900 -18.654100
O -9.885300 -12.384300 -18.928900
H -9.253800 -12.172600 -18.311900
21
Fragment
O -11.297800 -18.658000 -13.713800
H -10.787500 -16.277500 -14.628200
C -10.412200 -18.299200 -14.473500
H -10.035200 -20.107200 -15.205000
C -9.984200 -16.845400 -14.517100
N -9.774400 -19.210000 -15.294100
H -9.564300 -16.608400 -13.652600
C -9.024200 -16.544100 -15.618200
C -8.796700 -18.936600 -16.253000
N -8.609000 -15.344200 -15.971600
C -8.469700 -17.562200 -16.410600
O -8.291700 -19.870600 -16.894100
N -7.748100 -15.584400 -17.042300
C -7.638900 -16.895400 -17.333000
H -7.347900 -13.634900 -17.291000
H -7.307400 -14.473100 -18.653000
C -7.071000 -14.479900 -17.702400
N -6.893600 -17.393200 -18.333100
H -6.819100 -18.276200 -18.441100
H -6.402800 -16.883500 -18.927200
H -6.101900 -14.587400 -17.608200
24
Fragment
H -10.624000 -11.931900 -18.654100
O -9.885300 -12.384300 -18.928900
H -9.253800 -12.172600 -18.311900
O -11.297800 -18.658000 -13.713800
H -10.787500 -16.277500 -14.628200
C -10.412200 -18.299200 -14.473500
H -10.035200 -20.107200 -15.205000
C -9.984200 -16.845400 -14.517100
N -9.774400 -19.210000 -15.294100
H -9.564300 -16.608400 -13.652600
C -9.024200 -16.544100 -15.618200
C -8.796700 -18.936600 -16.253000
N -8.609000 -15.344200 -15.971600
C -8.469700 -17.562200 -16.410600
O -8.291700 -19.870600 -16.894100
N -7.748100 -15.584400 -17.042300
C -7.638900 -16.895400 -17.333000
H -7.347900 -13.634900 -17.291000
H -7.307400 -14.473100 -18.653000
C -7.071000 -14.479900 -17.702400
N -6.893600 -17.393200 -18.333100
H -6.819100 -18.276200 -18.441100
H -6.402800 -16.883500 -18.927200
H -6.101900 -14.587400 -17.608200
