3
Fragment
H -10.624000 -11.931900 -18.654100
O -9.885300 -12.384300 -18.928900
H -9.253800 -12.172600 -18.311900
21
Fragment
O -14.694600 -11.429700 -19.379300
H -14.184300 -13.810300 -20.293700
C -13.809000 -11.788600 -20.139000
H -13.431900 -9.980500 -20.870400
C -13.381000 -13.242400 -20.182500
N -13.171200 -10.877800 -20.959600
H -12.961100 -13.479300 -19.318100
C -12.421000 -13.543700 -21.283700
C -12.193500 -11.151100 -21.918400
N -12.005800 -14.743500 -21.637100
C -11.866500 -12.525500 -22.076000
O -11.688500 -10.217100 -22.559500
N -11.144900 -14.503300 -22.707700
C -11.035700 -13.192400 -22.998500
H -10.744700 -16.452800 -22.956400
H -10.704200 -15.614700 -24.318400
C -10.467800 -15.607800 -23.367900
N -10.290400 -12.694500 -23.998500
H -10.215900 -11.811600 -24.106500
H -9.799600 -13.204200 -24.592600
H -9.498700 -15.500300 -23.273700
24
Fragment
H -10.624000 -11.931900 -18.654100
O -9.885300 -12.384300 -18.928900
H -9.253800 -12.172600 -18.311900
O -14.694600 -11.429700 -19.379300
H -14.184300 -13.810300 -20.293700
C -13.809000 -11.788600 -20.139000
H -13.431900 -9.980500 -20.870400
C -13.381000 -13.242400 -20.182500
N -13.171200 -10.877800 -20.959600
H -12.961100 -13.479300 -19.318100
C -12.421000 -13.543700 -21.283700
C -12.193500 -11.151100 -21.918400
N -12.005800 -14.743500 -21.637100
C -11.866500 -12.525500 -22.076000
O -11.688500 -10.217100 -22.559500
N -11.144900 -14.503300 -22.707700
C -11.035700 -13.192400 -22.998500
H -10.744700 -16.452800 -22.956400
H -10.704200 -15.614700 -24.318400
C -10.467800 -15.607800 -23.367900
N -10.290400 -12.694500 -23.998500
H -10.215900 -11.811600 -24.106500
H -9.799600 -13.204200 -24.592600
H -9.498700 -15.500300 -23.273700
