3
Fragment
H -10.624000 -11.931900 -18.654100
O -9.885300 -12.384300 -18.928900
H -9.253800 -12.172600 -18.311900
21
Fragment
H -14.278800 -11.202100 -16.384500
H -13.978000 -8.906000 -15.065600
H -13.561600 -7.513300 -15.551700
N -13.487100 -8.396300 -15.659700
C -13.309700 -11.309600 -16.290300
H -13.073400 -11.316400 -15.339800
H -13.032900 -12.154600 -16.701800
C -12.741900 -8.894100 -16.659700
N -12.632600 -10.205100 -16.950500
O -12.089000 -5.918900 -17.098700
C -11.911000 -8.227300 -17.582200
N -11.771700 -10.445300 -18.021100
C -11.584000 -6.852900 -17.739800
C -11.356500 -9.245400 -18.374600
H -10.816400 -9.181100 -20.340100
N -10.606300 -6.579500 -18.698600
C -10.396500 -8.944100 -19.475700
H -10.345600 -5.682300 -18.787800
C -9.968500 -7.490300 -19.519200
H -9.593200 -9.512000 -19.364500
O -9.082900 -7.131500 -20.278900
24
Fragment
H -10.624000 -11.931900 -18.654100
O -9.885300 -12.384300 -18.928900
H -9.253800 -12.172600 -18.311900
H -14.278800 -11.202100 -16.384500
H -13.978000 -8.906000 -15.065600
H -13.561600 -7.513300 -15.551700
N -13.487100 -8.396300 -15.659700
C -13.309700 -11.309600 -16.290300
H -13.073400 -11.316400 -15.339800
H -13.032900 -12.154600 -16.701800
C -12.741900 -8.894100 -16.659700
N -12.632600 -10.205100 -16.950500
O -12.089000 -5.918900 -17.098700
C -11.911000 -8.227300 -17.582200
N -11.771700 -10.445300 -18.021100
C -11.584000 -6.852900 -17.739800
C -11.356500 -9.245400 -18.374600
H -10.816400 -9.181100 -20.340100
N -10.606300 -6.579500 -18.698600
C -10.396500 -8.944100 -19.475700
H -10.345600 -5.682300 -18.787800
C -9.968500 -7.490300 -19.519200
H -9.593200 -9.512000 -19.364500
O -9.082900 -7.131500 -20.278900
