20
Fragment
N -21.915000 -10.838600 -23.200700
C -21.121400 -10.048100 -23.299500
N -21.073700 -8.628300 -20.078300
C -20.549000 -8.416800 -21.067800
H -20.214200 -10.429200 -25.622300
C -20.101900 -9.026200 -23.409800
C -19.854100 -8.195800 -22.301500
N -19.610800 -9.722700 -25.640300
C -19.404400 -8.890200 -24.611700
H -19.222600 -9.563100 -26.446600
C -18.927900 -7.177100 -22.403700
C -18.711200 -6.289000 -21.299900
N -18.579300 -5.548900 -20.433700
C -18.430000 -7.830000 -24.718600
C -18.219400 -7.005400 -23.609000
H -17.794600 -8.292900 -26.522000
N -17.748500 -7.658900 -25.872600
C -17.232500 -5.972000 -23.663200
H -17.161800 -6.975500 -25.962400
N -16.442800 -5.149000 -23.702500
20
Fragment
N -18.192200 -7.773300 -18.183300
H -17.473200 -9.599900 -15.923300
C -17.402500 -8.596300 -18.222500
N -16.886500 -10.283300 -16.013100
H -16.840400 -10.917300 -15.363700
C -16.415500 -9.629800 -18.276700
C -16.205000 -10.454400 -17.167100
N -16.055700 -8.173300 -21.452000
C -15.923700 -8.913300 -20.585800
C -15.707100 -9.801400 -19.482100
H -15.412400 -12.187500 -15.439100
C -15.230500 -11.514600 -17.274000
N -15.024100 -12.347000 -16.245500
C -14.780900 -10.820200 -19.584300
C -14.533000 -11.650500 -18.476000
H -14.420800 -13.053500 -16.263400
C -14.086000 -11.041200 -20.817900
N -13.561300 -11.252700 -21.807400
C -13.513600 -12.672500 -18.586200
N -12.719900 -13.462900 -18.685000
40
Fragment
N -21.915000 -10.838600 -23.200700
C -21.121400 -10.048100 -23.299500
N -21.073700 -8.628300 -20.078300
C -20.549000 -8.416800 -21.067800
H -20.214200 -10.429200 -25.622300
C -20.101900 -9.026200 -23.409800
C -19.854100 -8.195800 -22.301500
N -19.610800 -9.722700 -25.640300
C -19.404400 -8.890200 -24.611700
H -19.222600 -9.563100 -26.446600
C -18.927900 -7.177100 -22.403700
C -18.711200 -6.289000 -21.299900
N -18.579300 -5.548900 -20.433700
C -18.430000 -7.830000 -24.718600
C -18.219400 -7.005400 -23.609000
H -17.794600 -8.292900 -26.522000
N -17.748500 -7.658900 -25.872600
C -17.232500 -5.972000 -23.663200
H -17.161800 -6.975500 -25.962400
N -16.442800 -5.149000 -23.702500
N -18.192200 -7.773300 -18.183300
H -17.473200 -9.599900 -15.923300
C -17.402500 -8.596300 -18.222500
N -16.886500 -10.283300 -16.013100
H -16.840400 -10.917300 -15.363700
C -16.415500 -9.629800 -18.276700
C -16.205000 -10.454400 -17.167100
N -16.055700 -8.173300 -21.452000
C -15.923700 -8.913300 -20.585800
C -15.707100 -9.801400 -19.482100
H -15.412400 -12.187500 -15.439100
C -15.230500 -11.514600 -17.274000
N -15.024100 -12.347000 -16.245500
C -14.780900 -10.820200 -19.584300
C -14.533000 -11.650500 -18.476000
H -14.420800 -13.053500 -16.263400
C -14.086000 -11.041200 -20.817900
N -13.561300 -11.252700 -21.807400
C -13.513600 -12.672500 -18.586200
N -12.719900 -13.462900 -18.685000
