20
Fragment
N -21.915000 -10.838600 -23.200700
C -21.121400 -10.048100 -23.299500
N -21.073700 -8.628300 -20.078300
C -20.549000 -8.416800 -21.067800
H -20.214200 -10.429200 -25.622300
C -20.101900 -9.026200 -23.409800
C -19.854100 -8.195800 -22.301500
N -19.610800 -9.722700 -25.640300
C -19.404400 -8.890200 -24.611700
H -19.222600 -9.563100 -26.446600
C -18.927900 -7.177100 -22.403700
C -18.711200 -6.289000 -21.299900
N -18.579300 -5.548900 -20.433700
C -18.430000 -7.830000 -24.718600
C -18.219400 -7.005400 -23.609000
H -17.794600 -8.292900 -26.522000
N -17.748500 -7.658900 -25.872600
C -17.232500 -5.972000 -23.663200
H -17.161800 -6.975500 -25.962400
N -16.442800 -5.149000 -23.702500
13
Fragment
H -26.169000 -11.162400 -19.368000
H -25.951700 -9.704800 -18.717900
H -25.570500 -11.917200 -17.421100
C -25.512300 -10.566200 -18.929000
C -24.974700 -11.185000 -17.721000
H -24.916700 -10.515200 -16.993900
H -24.548600 -10.441200 -20.768600
C -24.311000 -10.350400 -19.811900
H -23.910900 -9.458200 -19.659500
O -23.679800 -11.699900 -18.015200
H -23.523000 -12.257800 -19.924200
C -23.380000 -11.443700 -19.378500
H -22.438400 -11.157200 -19.478500
33
Fragment
N -21.915000 -10.838600 -23.200700
C -21.121400 -10.048100 -23.299500
N -21.073700 -8.628300 -20.078300
C -20.549000 -8.416800 -21.067800
H -20.214200 -10.429200 -25.622300
C -20.101900 -9.026200 -23.409800
C -19.854100 -8.195800 -22.301500
N -19.610800 -9.722700 -25.640300
C -19.404400 -8.890200 -24.611700
H -19.222600 -9.563100 -26.446600
C -18.927900 -7.177100 -22.403700
C -18.711200 -6.289000 -21.299900
N -18.579300 -5.548900 -20.433700
C -18.430000 -7.830000 -24.718600
C -18.219400 -7.005400 -23.609000
H -17.794600 -8.292900 -26.522000
N -17.748500 -7.658900 -25.872600
C -17.232500 -5.972000 -23.663200
H -17.161800 -6.975500 -25.962400
N -16.442800 -5.149000 -23.702500
H -26.169000 -11.162400 -19.368000
H -25.951700 -9.704800 -18.717900
H -25.570500 -11.917200 -17.421100
C -25.512300 -10.566200 -18.929000
C -24.974700 -11.185000 -17.721000
H -24.916700 -10.515200 -16.993900
H -24.548600 -10.441200 -20.768600
C -24.311000 -10.350400 -19.811900
H -23.910900 -9.458200 -19.659500
O -23.679800 -11.699900 -18.015200
H -23.523000 -12.257800 -19.924200
C -23.380000 -11.443700 -19.378500
H -22.438400 -11.157200 -19.478500
