20
Fragment
N -21.915000 -10.838600 -23.200700
C -21.121400 -10.048100 -23.299500
N -21.073700 -8.628300 -20.078300
C -20.549000 -8.416800 -21.067800
H -20.214200 -10.429200 -25.622300
C -20.101900 -9.026200 -23.409800
C -19.854100 -8.195800 -22.301500
N -19.610800 -9.722700 -25.640300
C -19.404400 -8.890200 -24.611700
H -19.222600 -9.563100 -26.446600
C -18.927900 -7.177100 -22.403700
C -18.711200 -6.289000 -21.299900
N -18.579300 -5.548900 -20.433700
C -18.430000 -7.830000 -24.718600
C -18.219400 -7.005400 -23.609000
H -17.794600 -8.292900 -26.522000
N -17.748500 -7.658900 -25.872600
C -17.232500 -5.972000 -23.663200
H -17.161800 -6.975500 -25.962400
N -16.442800 -5.149000 -23.702500
20
Fragment
N -24.332000 -2.283200 -14.823500
C -23.538400 -3.073600 -14.922400
N -23.490700 -4.493400 -11.701200
C -22.966000 -4.704900 -12.690700
H -22.631200 -2.692600 -17.245200
C -22.518900 -4.095600 -15.032600
C -22.271000 -4.925900 -13.924300
N -22.027800 -3.399100 -17.263100
C -21.821400 -4.231500 -16.234600
H -21.639600 -3.558600 -18.069500
C -21.344800 -5.944700 -14.026500
C -21.128200 -6.832800 -12.922700
N -20.996300 -7.572800 -12.056600
C -20.847000 -5.291700 -16.341500
C -20.636400 -6.116300 -15.231800
H -20.211600 -4.828800 -18.144900
N -20.165500 -5.462800 -17.495500
C -19.649400 -7.149800 -15.286100
H -19.578800 -6.146200 -17.585300
N -18.859800 -7.972800 -15.325300
40
Fragment
N -21.915000 -10.838600 -23.200700
C -21.121400 -10.048100 -23.299500
N -21.073700 -8.628300 -20.078300
C -20.549000 -8.416800 -21.067800
H -20.214200 -10.429200 -25.622300
C -20.101900 -9.026200 -23.409800
C -19.854100 -8.195800 -22.301500
N -19.610800 -9.722700 -25.640300
C -19.404400 -8.890200 -24.611700
H -19.222600 -9.563100 -26.446600
C -18.927900 -7.177100 -22.403700
C -18.711200 -6.289000 -21.299900
N -18.579300 -5.548900 -20.433700
C -18.430000 -7.830000 -24.718600
C -18.219400 -7.005400 -23.609000
H -17.794600 -8.292900 -26.522000
N -17.748500 -7.658900 -25.872600
C -17.232500 -5.972000 -23.663200
H -17.161800 -6.975500 -25.962400
N -16.442800 -5.149000 -23.702500
N -24.332000 -2.283200 -14.823500
C -23.538400 -3.073600 -14.922400
N -23.490700 -4.493400 -11.701200
C -22.966000 -4.704900 -12.690700
H -22.631200 -2.692600 -17.245200
C -22.518900 -4.095600 -15.032600
C -22.271000 -4.925900 -13.924300
N -22.027800 -3.399100 -17.263100
C -21.821400 -4.231500 -16.234600
H -21.639600 -3.558600 -18.069500
C -21.344800 -5.944700 -14.026500
C -21.128200 -6.832800 -12.922700
N -20.996300 -7.572800 -12.056600
C -20.847000 -5.291700 -16.341500
C -20.636400 -6.116300 -15.231800
H -20.211600 -4.828800 -18.144900
N -20.165500 -5.462800 -17.495500
C -19.649400 -7.149800 -15.286100
H -19.578800 -6.146200 -17.585300
N -18.859800 -7.972800 -15.325300
