20
Fragment
N -21.915000 -10.838600 -23.200700
C -21.121400 -10.048100 -23.299500
N -21.073700 -8.628300 -20.078300
C -20.549000 -8.416800 -21.067800
H -20.214200 -10.429200 -25.622300
C -20.101900 -9.026200 -23.409800
C -19.854100 -8.195800 -22.301500
N -19.610800 -9.722700 -25.640300
C -19.404400 -8.890200 -24.611700
H -19.222600 -9.563100 -26.446600
C -18.927900 -7.177100 -22.403700
C -18.711200 -6.289000 -21.299900
N -18.579300 -5.548900 -20.433700
C -18.430000 -7.830000 -24.718600
C -18.219400 -7.005400 -23.609000
H -17.794600 -8.292900 -26.522000
N -17.748500 -7.658900 -25.872600
C -17.232500 -5.972000 -23.663200
H -17.161800 -6.975500 -25.962400
N -16.442800 -5.149000 -23.702500
20
Fragment
N -15.775200 -10.597100 -26.560400
H -15.056200 -8.770600 -24.300400
C -14.985500 -9.774100 -26.599600
N -14.469500 -8.087200 -24.390200
H -14.423400 -7.453200 -23.740800
C -13.998600 -8.740700 -26.653900
C -13.788000 -7.916100 -25.544300
N -13.638700 -10.197200 -29.829200
C -13.506800 -9.457100 -28.963000
C -13.290100 -8.569000 -27.859200
H -12.995400 -6.183000 -23.816200
C -12.813500 -6.855900 -25.651100
N -12.607100 -6.023400 -24.622600
C -12.363900 -7.550300 -27.961400
C -12.116000 -6.719900 -26.853100
H -12.003800 -5.316900 -24.640500
C -11.669000 -7.329300 -29.195000
N -11.144300 -7.117800 -30.184500
C -11.096600 -5.698000 -26.963300
N -10.302900 -4.907500 -27.062200
40
Fragment
N -21.915000 -10.838600 -23.200700
C -21.121400 -10.048100 -23.299500
N -21.073700 -8.628300 -20.078300
C -20.549000 -8.416800 -21.067800
H -20.214200 -10.429200 -25.622300
C -20.101900 -9.026200 -23.409800
C -19.854100 -8.195800 -22.301500
N -19.610800 -9.722700 -25.640300
C -19.404400 -8.890200 -24.611700
H -19.222600 -9.563100 -26.446600
C -18.927900 -7.177100 -22.403700
C -18.711200 -6.289000 -21.299900
N -18.579300 -5.548900 -20.433700
C -18.430000 -7.830000 -24.718600
C -18.219400 -7.005400 -23.609000
H -17.794600 -8.292900 -26.522000
N -17.748500 -7.658900 -25.872600
C -17.232500 -5.972000 -23.663200
H -17.161800 -6.975500 -25.962400
N -16.442800 -5.149000 -23.702500
N -15.775200 -10.597100 -26.560400
H -15.056200 -8.770600 -24.300400
C -14.985500 -9.774100 -26.599600
N -14.469500 -8.087200 -24.390200
H -14.423400 -7.453200 -23.740800
C -13.998600 -8.740700 -26.653900
C -13.788000 -7.916100 -25.544300
N -13.638700 -10.197200 -29.829200
C -13.506800 -9.457100 -28.963000
C -13.290100 -8.569000 -27.859200
H -12.995400 -6.183000 -23.816200
C -12.813500 -6.855900 -25.651100
N -12.607100 -6.023400 -24.622600
C -12.363900 -7.550300 -27.961400
C -12.116000 -6.719900 -26.853100
H -12.003800 -5.316900 -24.640500
C -11.669000 -7.329300 -29.195000
N -11.144300 -7.117800 -30.184500
C -11.096600 -5.698000 -26.963300
N -10.302900 -4.907500 -27.062200
