20
Fragment
N -21.915000 -10.838600 -23.200700
C -21.121400 -10.048100 -23.299500
N -21.073700 -8.628300 -20.078300
C -20.549000 -8.416800 -21.067800
H -20.214200 -10.429200 -25.622300
C -20.101900 -9.026200 -23.409800
C -19.854100 -8.195800 -22.301500
N -19.610800 -9.722700 -25.640300
C -19.404400 -8.890200 -24.611700
H -19.222600 -9.563100 -26.446600
C -18.927900 -7.177100 -22.403700
C -18.711200 -6.289000 -21.299900
N -18.579300 -5.548900 -20.433700
C -18.430000 -7.830000 -24.718600
C -18.219400 -7.005400 -23.609000
H -17.794600 -8.292900 -26.522000
N -17.748500 -7.658900 -25.872600
C -17.232500 -5.972000 -23.663200
H -17.161800 -6.975500 -25.962400
N -16.442800 -5.149000 -23.702500
20
Fragment
N -21.915000 -16.087300 -23.200700
C -21.121400 -15.296800 -23.299500
N -21.073700 -13.877000 -20.078300
C -20.549000 -13.665500 -21.067800
H -20.214200 -15.677900 -25.622300
C -20.101900 -14.274900 -23.409800
C -19.854100 -13.444500 -22.301500
N -19.610800 -14.971400 -25.640300
C -19.404400 -14.138900 -24.611700
H -19.222600 -14.811800 -26.446600
C -18.927900 -12.425800 -22.403700
C -18.711200 -11.537700 -21.299900
N -18.579300 -10.797600 -20.433700
C -18.430000 -13.078700 -24.718600
C -18.219400 -12.254100 -23.609000
H -17.794600 -13.541600 -26.522000
N -17.748500 -12.907600 -25.872600
C -17.232500 -11.220700 -23.663200
H -17.161800 -12.224200 -25.962400
N -16.442800 -10.397700 -23.702500
40
Fragment
N -21.915000 -10.838600 -23.200700
C -21.121400 -10.048100 -23.299500
N -21.073700 -8.628300 -20.078300
C -20.549000 -8.416800 -21.067800
H -20.214200 -10.429200 -25.622300
C -20.101900 -9.026200 -23.409800
C -19.854100 -8.195800 -22.301500
N -19.610800 -9.722700 -25.640300
C -19.404400 -8.890200 -24.611700
H -19.222600 -9.563100 -26.446600
C -18.927900 -7.177100 -22.403700
C -18.711200 -6.289000 -21.299900
N -18.579300 -5.548900 -20.433700
C -18.430000 -7.830000 -24.718600
C -18.219400 -7.005400 -23.609000
H -17.794600 -8.292900 -26.522000
N -17.748500 -7.658900 -25.872600
C -17.232500 -5.972000 -23.663200
H -17.161800 -6.975500 -25.962400
N -16.442800 -5.149000 -23.702500
N -21.915000 -16.087300 -23.200700
C -21.121400 -15.296800 -23.299500
N -21.073700 -13.877000 -20.078300
C -20.549000 -13.665500 -21.067800
H -20.214200 -15.677900 -25.622300
C -20.101900 -14.274900 -23.409800
C -19.854100 -13.444500 -22.301500
N -19.610800 -14.971400 -25.640300
C -19.404400 -14.138900 -24.611700
H -19.222600 -14.811800 -26.446600
C -18.927900 -12.425800 -22.403700
C -18.711200 -11.537700 -21.299900
N -18.579300 -10.797600 -20.433700
C -18.430000 -13.078700 -24.718600
C -18.219400 -12.254100 -23.609000
H -17.794600 -13.541600 -26.522000
N -17.748500 -12.907600 -25.872600
C -17.232500 -11.220700 -23.663200
H -17.161800 -12.224200 -25.962400
N -16.442800 -10.397700 -23.702500
