20
Fragment
O -16.994400 -26.088200 -15.726400
O -16.764700 -23.365800 -14.173800
O -16.633200 -23.262900 -16.348400
N -16.291600 -23.652500 -15.253000
N -15.836700 -26.064700 -15.383800
C -15.160100 -24.690500 -15.230900
O -15.102900 -27.002900 -15.151600
N -14.782600 -24.945300 -12.774700
O -14.354600 -25.330000 -17.343700
N -14.336600 -24.453600 -16.498700
C -14.300200 -24.680300 -14.013000
F -14.289400 -24.256900 -9.901900
F -14.258700 -26.363500 -10.303700
O -13.754500 -23.392100 -16.538200
C -13.677300 -24.935500 -12.054400
C -13.648800 -25.209000 -10.576500
N -12.988900 -24.534200 -14.096500
N -12.608400 -24.688300 -12.816300
F -12.398400 -25.280600 -10.132200
H -11.760900 -24.705200 -12.620400
20
Fragment
O -11.218300 -25.970000 -16.323700
O -10.564200 -23.096600 -14.832900
N -10.443000 -26.127400 -15.407600
O -10.379800 -27.056700 -14.633400
N -9.990800 -23.735400 -15.688400
O -9.880300 -23.461500 -16.864900
F -9.759500 -25.894400 -9.905700
N -9.629800 -24.894200 -12.712100
F -9.565200 -23.760100 -9.934700
C -9.365000 -25.048000 -15.217600
C -8.972600 -24.894100 -10.280500
C -8.850000 -25.004700 -13.820100
C -8.713500 -24.939800 -11.759100
N -8.219200 -25.396700 -16.167500
O -8.183200 -26.542100 -16.571800
F -7.832900 -24.999600 -9.612700
N -7.551200 -25.116800 -13.602300
N -7.485900 -25.068500 -12.261600
O -7.432500 -24.501200 -16.385800
H -6.703400 -25.097800 -11.817800
40
Fragment
O -16.994400 -26.088200 -15.726400
O -16.764700 -23.365800 -14.173800
O -16.633200 -23.262900 -16.348400
N -16.291600 -23.652500 -15.253000
N -15.836700 -26.064700 -15.383800
C -15.160100 -24.690500 -15.230900
O -15.102900 -27.002900 -15.151600
N -14.782600 -24.945300 -12.774700
O -14.354600 -25.330000 -17.343700
N -14.336600 -24.453600 -16.498700
C -14.300200 -24.680300 -14.013000
F -14.289400 -24.256900 -9.901900
F -14.258700 -26.363500 -10.303700
O -13.754500 -23.392100 -16.538200
C -13.677300 -24.935500 -12.054400
C -13.648800 -25.209000 -10.576500
N -12.988900 -24.534200 -14.096500
N -12.608400 -24.688300 -12.816300
F -12.398400 -25.280600 -10.132200
H -11.760900 -24.705200 -12.620400
O -11.218300 -25.970000 -16.323700
O -10.564200 -23.096600 -14.832900
N -10.443000 -26.127400 -15.407600
O -10.379800 -27.056700 -14.633400
N -9.990800 -23.735400 -15.688400
O -9.880300 -23.461500 -16.864900
F -9.759500 -25.894400 -9.905700
N -9.629800 -24.894200 -12.712100
F -9.565200 -23.760100 -9.934700
C -9.365000 -25.048000 -15.217600
C -8.972600 -24.894100 -10.280500
C -8.850000 -25.004700 -13.820100
C -8.713500 -24.939800 -11.759100
N -8.219200 -25.396700 -16.167500
O -8.183200 -26.542100 -16.571800
F -7.832900 -24.999600 -9.612700
N -7.551200 -25.116800 -13.602300
N -7.485900 -25.068500 -12.261600
O -7.432500 -24.501200 -16.385800
H -6.703400 -25.097800 -11.817800
