20
Fragment
O -16.994400 -26.088200 -15.726400
O -16.764700 -23.365800 -14.173800
O -16.633200 -23.262900 -16.348400
N -16.291600 -23.652500 -15.253000
N -15.836700 -26.064700 -15.383800
C -15.160100 -24.690500 -15.230900
O -15.102900 -27.002900 -15.151600
N -14.782600 -24.945300 -12.774700
O -14.354600 -25.330000 -17.343700
N -14.336600 -24.453600 -16.498700
C -14.300200 -24.680300 -14.013000
F -14.289400 -24.256900 -9.901900
F -14.258700 -26.363500 -10.303700
O -13.754500 -23.392100 -16.538200
C -13.677300 -24.935500 -12.054400
C -13.648800 -25.209000 -10.576500
N -12.988900 -24.534200 -14.096500
N -12.608400 -24.688300 -12.816300
F -12.398400 -25.280600 -10.132200
H -11.760900 -24.705200 -12.620400
20
Fragment
H -18.579500 -29.811700 -5.830500
F -17.941900 -29.236300 -8.318800
N -17.731900 -29.828600 -5.634600
N -17.351400 -29.982700 -4.354400
C -16.691600 -29.307900 -7.874400
C -16.663000 -29.581400 -6.396600
O -16.585900 -31.124800 -1.912700
F -16.081600 -28.153400 -8.147300
F -16.050900 -30.260000 -8.549100
C -16.040200 -29.836600 -4.437900
N -16.003800 -30.063300 -1.952300
O -15.985700 -29.186900 -1.107200
N -15.557700 -29.571600 -5.676200
O -15.237400 -27.514000 -3.299300
C -15.180200 -29.826400 -3.220100
N -14.503600 -28.452200 -3.067200
N -14.048800 -30.864400 -3.197900
O -13.707100 -31.254000 -2.102600
O -13.575600 -31.151100 -4.277100
O -13.345900 -28.428700 -2.724600
40
Fragment
O -16.994400 -26.088200 -15.726400
O -16.764700 -23.365800 -14.173800
O -16.633200 -23.262900 -16.348400
N -16.291600 -23.652500 -15.253000
N -15.836700 -26.064700 -15.383800
C -15.160100 -24.690500 -15.230900
O -15.102900 -27.002900 -15.151600
N -14.782600 -24.945300 -12.774700
O -14.354600 -25.330000 -17.343700
N -14.336600 -24.453600 -16.498700
C -14.300200 -24.680300 -14.013000
F -14.289400 -24.256900 -9.901900
F -14.258700 -26.363500 -10.303700
O -13.754500 -23.392100 -16.538200
C -13.677300 -24.935500 -12.054400
C -13.648800 -25.209000 -10.576500
N -12.988900 -24.534200 -14.096500
N -12.608400 -24.688300 -12.816300
F -12.398400 -25.280600 -10.132200
H -11.760900 -24.705200 -12.620400
H -18.579500 -29.811700 -5.830500
F -17.941900 -29.236300 -8.318800
N -17.731900 -29.828600 -5.634600
N -17.351400 -29.982700 -4.354400
C -16.691600 -29.307900 -7.874400
C -16.663000 -29.581400 -6.396600
O -16.585900 -31.124800 -1.912700
F -16.081600 -28.153400 -8.147300
F -16.050900 -30.260000 -8.549100
C -16.040200 -29.836600 -4.437900
N -16.003800 -30.063300 -1.952300
O -15.985700 -29.186900 -1.107200
N -15.557700 -29.571600 -5.676200
O -15.237400 -27.514000 -3.299300
C -15.180200 -29.826400 -3.220100
N -14.503600 -28.452200 -3.067200
N -14.048800 -30.864400 -3.197900
O -13.707100 -31.254000 -2.102600
O -13.575600 -31.151100 -4.277100
O -13.345900 -28.428700 -2.724600
