20
Fragment
O -16.994400 -26.088200 -15.726400
O -16.764700 -23.365800 -14.173800
O -16.633200 -23.262900 -16.348400
N -16.291600 -23.652500 -15.253000
N -15.836700 -26.064700 -15.383800
C -15.160100 -24.690500 -15.230900
O -15.102900 -27.002900 -15.151600
N -14.782600 -24.945300 -12.774700
O -14.354600 -25.330000 -17.343700
N -14.336600 -24.453600 -16.498700
C -14.300200 -24.680300 -14.013000
F -14.289400 -24.256900 -9.901900
F -14.258700 -26.363500 -10.303700
O -13.754500 -23.392100 -16.538200
C -13.677300 -24.935500 -12.054400
C -13.648800 -25.209000 -10.576500
N -12.988900 -24.534200 -14.096500
N -12.608400 -24.688300 -12.816300
F -12.398400 -25.280600 -10.132200
H -11.760900 -24.705200 -12.620400
20
Fragment
H -20.751000 -29.419100 -15.858600
O -20.021900 -30.015700 -11.290600
N -19.968600 -29.448400 -15.414800
N -19.903200 -29.400100 -14.074100
F -19.621600 -29.517300 -18.063800
O -19.271300 -27.974800 -11.104600
N -19.235200 -29.120200 -11.509000
C -18.740900 -29.577100 -15.917400
C -18.604400 -29.512200 -13.856300
C -18.481800 -29.622800 -17.395900
C -18.089400 -29.468900 -12.458800
F -17.889200 -30.756800 -17.741700
N -17.824600 -29.622700 -14.964300
F -17.694900 -28.622500 -17.770800
O -17.574100 -31.055400 -10.811500
N -17.463600 -30.781500 -11.988000
O -17.074600 -27.460200 -13.043000
N -17.011400 -28.389500 -12.268900
O -16.890300 -31.420300 -12.843500
O -16.236100 -28.546900 -11.352700
40
Fragment
O -16.994400 -26.088200 -15.726400
O -16.764700 -23.365800 -14.173800
O -16.633200 -23.262900 -16.348400
N -16.291600 -23.652500 -15.253000
N -15.836700 -26.064700 -15.383800
C -15.160100 -24.690500 -15.230900
O -15.102900 -27.002900 -15.151600
N -14.782600 -24.945300 -12.774700
O -14.354600 -25.330000 -17.343700
N -14.336600 -24.453600 -16.498700
C -14.300200 -24.680300 -14.013000
F -14.289400 -24.256900 -9.901900
F -14.258700 -26.363500 -10.303700
O -13.754500 -23.392100 -16.538200
C -13.677300 -24.935500 -12.054400
C -13.648800 -25.209000 -10.576500
N -12.988900 -24.534200 -14.096500
N -12.608400 -24.688300 -12.816300
F -12.398400 -25.280600 -10.132200
H -11.760900 -24.705200 -12.620400
H -20.751000 -29.419100 -15.858600
O -20.021900 -30.015700 -11.290600
N -19.968600 -29.448400 -15.414800
N -19.903200 -29.400100 -14.074100
F -19.621600 -29.517300 -18.063800
O -19.271300 -27.974800 -11.104600
N -19.235200 -29.120200 -11.509000
C -18.740900 -29.577100 -15.917400
C -18.604400 -29.512200 -13.856300
C -18.481800 -29.622800 -17.395900
C -18.089400 -29.468900 -12.458800
F -17.889200 -30.756800 -17.741700
N -17.824600 -29.622700 -14.964300
F -17.694900 -28.622500 -17.770800
O -17.574100 -31.055400 -10.811500
N -17.463600 -30.781500 -11.988000
O -17.074600 -27.460200 -13.043000
N -17.011400 -28.389500 -12.268900
O -16.890300 -31.420300 -12.843500
O -16.236100 -28.546900 -11.352700
