20
Fragment
O -16.994400 -26.088200 -15.726400
O -16.764700 -23.365800 -14.173800
O -16.633200 -23.262900 -16.348400
N -16.291600 -23.652500 -15.253000
N -15.836700 -26.064700 -15.383800
C -15.160100 -24.690500 -15.230900
O -15.102900 -27.002900 -15.151600
N -14.782600 -24.945300 -12.774700
O -14.354600 -25.330000 -17.343700
N -14.336600 -24.453600 -16.498700
C -14.300200 -24.680300 -14.013000
F -14.289400 -24.256900 -9.901900
F -14.258700 -26.363500 -10.303700
O -13.754500 -23.392100 -16.538200
C -13.677300 -24.935500 -12.054400
C -13.648800 -25.209000 -10.576500
N -12.988900 -24.534200 -14.096500
N -12.608400 -24.688300 -12.816300
F -12.398400 -25.280600 -10.132200
H -11.760900 -24.705200 -12.620400
3
Fragment
O -17.150800 -24.986900 -11.110100
H -16.882800 -25.157700 -10.369400
H -16.487900 -25.026900 -11.624100
23
Fragment
O -16.994400 -26.088200 -15.726400
O -16.764700 -23.365800 -14.173800
O -16.633200 -23.262900 -16.348400
N -16.291600 -23.652500 -15.253000
N -15.836700 -26.064700 -15.383800
C -15.160100 -24.690500 -15.230900
O -15.102900 -27.002900 -15.151600
N -14.782600 -24.945300 -12.774700
O -14.354600 -25.330000 -17.343700
N -14.336600 -24.453600 -16.498700
C -14.300200 -24.680300 -14.013000
F -14.289400 -24.256900 -9.901900
F -14.258700 -26.363500 -10.303700
O -13.754500 -23.392100 -16.538200
C -13.677300 -24.935500 -12.054400
C -13.648800 -25.209000 -10.576500
N -12.988900 -24.534200 -14.096500
N -12.608400 -24.688300 -12.816300
F -12.398400 -25.280600 -10.132200
H -11.760900 -24.705200 -12.620400
O -17.150800 -24.986900 -11.110100
H -16.882800 -25.157700 -10.369400
H -16.487900 -25.026900 -11.624100
