20
Fragment
O -16.994400 -26.088200 -15.726400
O -16.764700 -23.365800 -14.173800
O -16.633200 -23.262900 -16.348400
N -16.291600 -23.652500 -15.253000
N -15.836700 -26.064700 -15.383800
C -15.160100 -24.690500 -15.230900
O -15.102900 -27.002900 -15.151600
N -14.782600 -24.945300 -12.774700
O -14.354600 -25.330000 -17.343700
N -14.336600 -24.453600 -16.498700
C -14.300200 -24.680300 -14.013000
F -14.289400 -24.256900 -9.901900
F -14.258700 -26.363500 -10.303700
O -13.754500 -23.392100 -16.538200
C -13.677300 -24.935500 -12.054400
C -13.648800 -25.209000 -10.576500
N -12.988900 -24.534200 -14.096500
N -12.608400 -24.688300 -12.816300
F -12.398400 -25.280600 -10.132200
H -11.760900 -24.705200 -12.620400
20
Fragment
O -21.812800 -19.460700 -20.936500
O -21.158600 -22.334100 -19.445600
N -21.037400 -19.303300 -20.020300
O -20.974200 -18.374000 -19.246200
N -20.585200 -21.695400 -20.301100
O -20.474800 -21.969200 -21.477600
F -20.354000 -19.536300 -14.518400
N -20.224300 -20.536500 -17.324900
F -20.159600 -21.670600 -14.547500
C -19.959500 -20.382800 -19.830300
C -19.567100 -20.536700 -14.893200
C -19.444500 -20.426000 -18.432900
C -19.308000 -20.490900 -16.371800
N -18.813700 -20.034100 -20.780200
O -18.777600 -18.888700 -21.184500
F -18.427300 -20.431100 -14.225400
N -18.145600 -20.313900 -18.215100
N -18.080300 -20.362200 -16.874300
O -18.027000 -20.929600 -20.998600
H -17.297900 -20.333000 -16.430600
40
Fragment
O -16.994400 -26.088200 -15.726400
O -16.764700 -23.365800 -14.173800
O -16.633200 -23.262900 -16.348400
N -16.291600 -23.652500 -15.253000
N -15.836700 -26.064700 -15.383800
C -15.160100 -24.690500 -15.230900
O -15.102900 -27.002900 -15.151600
N -14.782600 -24.945300 -12.774700
O -14.354600 -25.330000 -17.343700
N -14.336600 -24.453600 -16.498700
C -14.300200 -24.680300 -14.013000
F -14.289400 -24.256900 -9.901900
F -14.258700 -26.363500 -10.303700
O -13.754500 -23.392100 -16.538200
C -13.677300 -24.935500 -12.054400
C -13.648800 -25.209000 -10.576500
N -12.988900 -24.534200 -14.096500
N -12.608400 -24.688300 -12.816300
F -12.398400 -25.280600 -10.132200
H -11.760900 -24.705200 -12.620400
O -21.812800 -19.460700 -20.936500
O -21.158600 -22.334100 -19.445600
N -21.037400 -19.303300 -20.020300
O -20.974200 -18.374000 -19.246200
N -20.585200 -21.695400 -20.301100
O -20.474800 -21.969200 -21.477600
F -20.354000 -19.536300 -14.518400
N -20.224300 -20.536500 -17.324900
F -20.159600 -21.670600 -14.547500
C -19.959500 -20.382800 -19.830300
C -19.567100 -20.536700 -14.893200
C -19.444500 -20.426000 -18.432900
C -19.308000 -20.490900 -16.371800
N -18.813700 -20.034100 -20.780200
O -18.777600 -18.888700 -21.184500
F -18.427300 -20.431100 -14.225400
N -18.145600 -20.313900 -18.215100
N -18.080300 -20.362200 -16.874300
O -18.027000 -20.929600 -20.998600
H -17.297900 -20.333000 -16.430600
