26
Fragment
H -21.570500 -21.632200 -22.490100
C -20.823400 -21.083300 -22.185500
N -20.822500 -20.564100 -20.987800
O -20.218500 -21.719600 -17.826000
O -19.914100 -17.342100 -21.887000
N -19.730600 -20.842700 -22.963200
N -19.598800 -19.901700 -20.988100
N -19.352200 -21.303600 -18.568300
C -19.217600 -19.178000 -19.843100
C -19.146300 -19.838700 -18.611600
N -19.093500 -16.983000 -21.071100
C -18.961400 -20.096700 -22.171500
C -18.954300 -17.809700 -19.828400
C -18.877200 -19.204900 -17.422900
H -18.867500 -19.687000 -16.589200
O -18.613000 -21.985700 -19.252300
C -18.610600 -17.140500 -18.673100
C -18.600900 -17.852900 -17.491300
H -18.416800 -16.235300 -18.691100
O -18.409300 -15.981300 -21.130800
N -18.316500 -17.138600 -16.231000
O -18.236700 -15.923500 -16.280700
O -18.179500 -17.811600 -15.219400
N -17.763200 -19.594100 -22.474900
H -17.398700 -19.882400 -23.218000
H -17.252800 -19.220500 -21.835500
26
Fragment
H -21.927300 -11.841800 -14.196700
H -21.781400 -11.179800 -12.814300
N -21.416900 -11.468100 -13.557400
O -21.000600 -13.250600 -20.812800
O -20.943400 -15.138800 -19.751600
N -20.863600 -13.923600 -19.801300
O -20.770900 -15.080900 -14.901500
H -20.763300 -14.826900 -17.341100
C -20.579200 -13.209300 -18.541000
C -20.569500 -13.921700 -17.359100
O -20.567100 -9.076500 -16.780000
H -20.312600 -11.375200 -19.443000
C -20.302900 -11.857300 -18.609300
C -20.225800 -13.252500 -16.203800
C -20.218700 -10.965500 -13.860800
N -20.086700 -14.079200 -14.961200
C -20.033800 -11.223500 -17.420600
C -19.962500 -11.884200 -16.189200
N -19.827900 -9.758600 -17.464000
N -19.581300 -11.160500 -15.044200
N -19.449600 -10.219500 -13.069000
O -19.266000 -13.720100 -14.145300
O -18.961600 -9.342600 -18.206300
N -18.357700 -10.498200 -15.044400
C -18.356700 -9.979000 -13.846700
H -17.609600 -9.430000 -13.542100
52
Fragment
H -21.570500 -21.632200 -22.490100
C -20.823400 -21.083300 -22.185500
N -20.822500 -20.564100 -20.987800
O -20.218500 -21.719600 -17.826000
O -19.914100 -17.342100 -21.887000
N -19.730600 -20.842700 -22.963200
N -19.598800 -19.901700 -20.988100
N -19.352200 -21.303600 -18.568300
C -19.217600 -19.178000 -19.843100
C -19.146300 -19.838700 -18.611600
N -19.093500 -16.983000 -21.071100
C -18.961400 -20.096700 -22.171500
C -18.954300 -17.809700 -19.828400
C -18.877200 -19.204900 -17.422900
H -18.867500 -19.687000 -16.589200
O -18.613000 -21.985700 -19.252300
C -18.610600 -17.140500 -18.673100
C -18.600900 -17.852900 -17.491300
H -18.416800 -16.235300 -18.691100
O -18.409300 -15.981300 -21.130800
N -18.316500 -17.138600 -16.231000
O -18.236700 -15.923500 -16.280700
O -18.179500 -17.811600 -15.219400
N -17.763200 -19.594100 -22.474900
H -17.398700 -19.882400 -23.218000
H -17.252800 -19.220500 -21.835500
H -21.927300 -11.841800 -14.196700
H -21.781400 -11.179800 -12.814300
N -21.416900 -11.468100 -13.557400
O -21.000600 -13.250600 -20.812800
O -20.943400 -15.138800 -19.751600
N -20.863600 -13.923600 -19.801300
O -20.770900 -15.080900 -14.901500
H -20.763300 -14.826900 -17.341100
C -20.579200 -13.209300 -18.541000
C -20.569500 -13.921700 -17.359100
O -20.567100 -9.076500 -16.780000
H -20.312600 -11.375200 -19.443000
C -20.302900 -11.857300 -18.609300
C -20.225800 -13.252500 -16.203800
C -20.218700 -10.965500 -13.860800
N -20.086700 -14.079200 -14.961200
C -20.033800 -11.223500 -17.420600
C -19.962500 -11.884200 -16.189200
N -19.827900 -9.758600 -17.464000
N -19.581300 -11.160500 -15.044200
N -19.449600 -10.219500 -13.069000
O -19.266000 -13.720100 -14.145300
O -18.961600 -9.342600 -18.206300
N -18.357700 -10.498200 -15.044400
C -18.356700 -9.979000 -13.846700
H -17.609600 -9.430000 -13.542100
