26
Fragment
H -21.570500 -21.632200 -22.490100
C -20.823400 -21.083300 -22.185500
N -20.822500 -20.564100 -20.987800
O -20.218500 -21.719600 -17.826000
O -19.914100 -17.342100 -21.887000
N -19.730600 -20.842700 -22.963200
N -19.598800 -19.901700 -20.988100
N -19.352200 -21.303600 -18.568300
C -19.217600 -19.178000 -19.843100
C -19.146300 -19.838700 -18.611600
N -19.093500 -16.983000 -21.071100
C -18.961400 -20.096700 -22.171500
C -18.954300 -17.809700 -19.828400
C -18.877200 -19.204900 -17.422900
H -18.867500 -19.687000 -16.589200
O -18.613000 -21.985700 -19.252300
C -18.610600 -17.140500 -18.673100
C -18.600900 -17.852900 -17.491300
H -18.416800 -16.235300 -18.691100
O -18.409300 -15.981300 -21.130800
N -18.316500 -17.138600 -16.231000
O -18.236700 -15.923500 -16.280700
O -18.179500 -17.811600 -15.219400
N -17.763200 -19.594100 -22.474900
H -17.398700 -19.882400 -23.218000
H -17.252800 -19.220500 -21.835500
26
Fragment
H -18.802100 -13.366400 -22.490100
C -18.054900 -12.817400 -22.185500
N -18.054000 -12.298200 -20.987800
O -17.450100 -13.453700 -17.826000
O -17.145700 -9.076300 -21.887000
N -16.962100 -12.576900 -22.963200
N -16.830300 -11.635900 -20.988100
N -16.583800 -13.037800 -18.568300
C -16.449200 -10.912200 -19.843100
C -16.377900 -11.572900 -18.611600
N -16.325000 -8.717200 -21.071100
C -16.193000 -11.830900 -22.171500
C -16.185900 -9.543900 -19.828400
C -16.108800 -10.939100 -17.422900
H -16.099100 -11.421200 -16.589200
O -15.844500 -13.719900 -19.252300
C -15.842200 -8.874700 -18.673100
C -15.832500 -9.587100 -17.491300
H -15.648400 -7.969500 -18.691100
O -15.640800 -7.715500 -21.130800
N -15.548100 -8.872700 -16.231000
O -15.468300 -7.657600 -16.280700
O -15.411100 -9.545800 -15.219400
N -14.994700 -11.328300 -22.474900
H -14.630300 -11.616600 -23.218000
H -14.484300 -10.954600 -21.835500
52
Fragment
H -21.570500 -21.632200 -22.490100
C -20.823400 -21.083300 -22.185500
N -20.822500 -20.564100 -20.987800
O -20.218500 -21.719600 -17.826000
O -19.914100 -17.342100 -21.887000
N -19.730600 -20.842700 -22.963200
N -19.598800 -19.901700 -20.988100
N -19.352200 -21.303600 -18.568300
C -19.217600 -19.178000 -19.843100
C -19.146300 -19.838700 -18.611600
N -19.093500 -16.983000 -21.071100
C -18.961400 -20.096700 -22.171500
C -18.954300 -17.809700 -19.828400
C -18.877200 -19.204900 -17.422900
H -18.867500 -19.687000 -16.589200
O -18.613000 -21.985700 -19.252300
C -18.610600 -17.140500 -18.673100
C -18.600900 -17.852900 -17.491300
H -18.416800 -16.235300 -18.691100
O -18.409300 -15.981300 -21.130800
N -18.316500 -17.138600 -16.231000
O -18.236700 -15.923500 -16.280700
O -18.179500 -17.811600 -15.219400
N -17.763200 -19.594100 -22.474900
H -17.398700 -19.882400 -23.218000
H -17.252800 -19.220500 -21.835500
H -18.802100 -13.366400 -22.490100
C -18.054900 -12.817400 -22.185500
N -18.054000 -12.298200 -20.987800
O -17.450100 -13.453700 -17.826000
O -17.145700 -9.076300 -21.887000
N -16.962100 -12.576900 -22.963200
N -16.830300 -11.635900 -20.988100
N -16.583800 -13.037800 -18.568300
C -16.449200 -10.912200 -19.843100
C -16.377900 -11.572900 -18.611600
N -16.325000 -8.717200 -21.071100
C -16.193000 -11.830900 -22.171500
C -16.185900 -9.543900 -19.828400
C -16.108800 -10.939100 -17.422900
H -16.099100 -11.421200 -16.589200
O -15.844500 -13.719900 -19.252300
C -15.842200 -8.874700 -18.673100
C -15.832500 -9.587100 -17.491300
H -15.648400 -7.969500 -18.691100
O -15.640800 -7.715500 -21.130800
N -15.548100 -8.872700 -16.231000
O -15.468300 -7.657600 -16.280700
O -15.411100 -9.545800 -15.219400
N -14.994700 -11.328300 -22.474900
H -14.630300 -11.616600 -23.218000
H -14.484300 -10.954600 -21.835500
