26
Fragment
H -21.570500 -21.632200 -22.490100
C -20.823400 -21.083300 -22.185500
N -20.822500 -20.564100 -20.987800
O -20.218500 -21.719600 -17.826000
O -19.914100 -17.342100 -21.887000
N -19.730600 -20.842700 -22.963200
N -19.598800 -19.901700 -20.988100
N -19.352200 -21.303600 -18.568300
C -19.217600 -19.178000 -19.843100
C -19.146300 -19.838700 -18.611600
N -19.093500 -16.983000 -21.071100
C -18.961400 -20.096700 -22.171500
C -18.954300 -17.809700 -19.828400
C -18.877200 -19.204900 -17.422900
H -18.867500 -19.687000 -16.589200
O -18.613000 -21.985700 -19.252300
C -18.610600 -17.140500 -18.673100
C -18.600900 -17.852900 -17.491300
H -18.416800 -16.235300 -18.691100
O -18.409300 -15.981300 -21.130800
N -18.316500 -17.138600 -16.231000
O -18.236700 -15.923500 -16.280700
O -18.179500 -17.811600 -15.219400
N -17.763200 -19.594100 -22.474900
H -17.398700 -19.882400 -23.218000
H -17.252800 -19.220500 -21.835500
12
Fragment
H -19.901700 -17.763500 -25.198600
H -19.497300 -15.418600 -24.357800
C -18.942100 -17.723500 -25.324800
C -18.706000 -15.311600 -24.807000
H -18.653600 -18.363200 -25.985300
H -18.630000 -14.514700 -25.244200
N -18.537700 -16.393700 -25.756200
H -18.492400 -17.925400 -24.465900
C -18.031400 -16.178600 -26.960400
H -18.002200 -16.984300 -27.515400
H -17.947400 -15.341800 -24.153600
O -17.607600 -15.094200 -27.372600
38
Fragment
H -21.570500 -21.632200 -22.490100
C -20.823400 -21.083300 -22.185500
N -20.822500 -20.564100 -20.987800
O -20.218500 -21.719600 -17.826000
O -19.914100 -17.342100 -21.887000
N -19.730600 -20.842700 -22.963200
N -19.598800 -19.901700 -20.988100
N -19.352200 -21.303600 -18.568300
C -19.217600 -19.178000 -19.843100
C -19.146300 -19.838700 -18.611600
N -19.093500 -16.983000 -21.071100
C -18.961400 -20.096700 -22.171500
C -18.954300 -17.809700 -19.828400
C -18.877200 -19.204900 -17.422900
H -18.867500 -19.687000 -16.589200
O -18.613000 -21.985700 -19.252300
C -18.610600 -17.140500 -18.673100
C -18.600900 -17.852900 -17.491300
H -18.416800 -16.235300 -18.691100
O -18.409300 -15.981300 -21.130800
N -18.316500 -17.138600 -16.231000
O -18.236700 -15.923500 -16.280700
O -18.179500 -17.811600 -15.219400
N -17.763200 -19.594100 -22.474900
H -17.398700 -19.882400 -23.218000
H -17.252800 -19.220500 -21.835500
H -19.901700 -17.763500 -25.198600
H -19.497300 -15.418600 -24.357800
C -18.942100 -17.723500 -25.324800
C -18.706000 -15.311600 -24.807000
H -18.653600 -18.363200 -25.985300
H -18.630000 -14.514700 -25.244200
N -18.537700 -16.393700 -25.756200
H -18.492400 -17.925400 -24.465900
C -18.031400 -16.178600 -26.960400
H -18.002200 -16.984300 -27.515400
H -17.947400 -15.341800 -24.153600
O -17.607600 -15.094200 -27.372600
