26
Fragment
H -21.570500 -21.632200 -22.490100
C -20.823400 -21.083300 -22.185500
N -20.822500 -20.564100 -20.987800
O -20.218500 -21.719600 -17.826000
O -19.914100 -17.342100 -21.887000
N -19.730600 -20.842700 -22.963200
N -19.598800 -19.901700 -20.988100
N -19.352200 -21.303600 -18.568300
C -19.217600 -19.178000 -19.843100
C -19.146300 -19.838700 -18.611600
N -19.093500 -16.983000 -21.071100
C -18.961400 -20.096700 -22.171500
C -18.954300 -17.809700 -19.828400
C -18.877200 -19.204900 -17.422900
H -18.867500 -19.687000 -16.589200
O -18.613000 -21.985700 -19.252300
C -18.610600 -17.140500 -18.673100
C -18.600900 -17.852900 -17.491300
H -18.416800 -16.235300 -18.691100
O -18.409300 -15.981300 -21.130800
N -18.316500 -17.138600 -16.231000
O -18.236700 -15.923500 -16.280700
O -18.179500 -17.811600 -15.219400
N -17.763200 -19.594100 -22.474900
H -17.398700 -19.882400 -23.218000
H -17.252800 -19.220500 -21.835500
26
Fragment
H -16.782700 -20.107600 -14.196700
H -16.636800 -19.445600 -12.814300
N -16.272300 -19.733900 -13.557400
O -15.856000 -21.516400 -20.812800
O -15.798700 -23.404600 -19.751600
N -15.718900 -22.189500 -19.801300
O -15.626200 -23.346700 -14.901500
H -15.618600 -23.092700 -17.341100
C -15.434500 -21.475100 -18.541000
C -15.424800 -22.187500 -17.359100
O -15.422500 -17.342300 -16.780000
H -15.167900 -19.641000 -19.443000
C -15.158200 -20.123100 -18.609300
C -15.081100 -21.518300 -16.203800
C -15.074100 -19.231300 -13.860800
N -14.942000 -22.345000 -14.961200
C -14.889100 -19.489300 -17.420600
C -14.817800 -20.150000 -16.189200
N -14.683300 -18.024400 -17.464000
N -14.436700 -19.426300 -15.044200
N -14.304900 -18.485300 -13.069000
O -14.121400 -21.985900 -14.145300
O -13.816900 -17.608500 -18.206300
N -13.213000 -18.764000 -15.044400
C -13.212100 -18.244800 -13.846700
H -12.465000 -17.695900 -13.542100
52
Fragment
H -21.570500 -21.632200 -22.490100
C -20.823400 -21.083300 -22.185500
N -20.822500 -20.564100 -20.987800
O -20.218500 -21.719600 -17.826000
O -19.914100 -17.342100 -21.887000
N -19.730600 -20.842700 -22.963200
N -19.598800 -19.901700 -20.988100
N -19.352200 -21.303600 -18.568300
C -19.217600 -19.178000 -19.843100
C -19.146300 -19.838700 -18.611600
N -19.093500 -16.983000 -21.071100
C -18.961400 -20.096700 -22.171500
C -18.954300 -17.809700 -19.828400
C -18.877200 -19.204900 -17.422900
H -18.867500 -19.687000 -16.589200
O -18.613000 -21.985700 -19.252300
C -18.610600 -17.140500 -18.673100
C -18.600900 -17.852900 -17.491300
H -18.416800 -16.235300 -18.691100
O -18.409300 -15.981300 -21.130800
N -18.316500 -17.138600 -16.231000
O -18.236700 -15.923500 -16.280700
O -18.179500 -17.811600 -15.219400
N -17.763200 -19.594100 -22.474900
H -17.398700 -19.882400 -23.218000
H -17.252800 -19.220500 -21.835500
H -16.782700 -20.107600 -14.196700
H -16.636800 -19.445600 -12.814300
N -16.272300 -19.733900 -13.557400
O -15.856000 -21.516400 -20.812800
O -15.798700 -23.404600 -19.751600
N -15.718900 -22.189500 -19.801300
O -15.626200 -23.346700 -14.901500
H -15.618600 -23.092700 -17.341100
C -15.434500 -21.475100 -18.541000
C -15.424800 -22.187500 -17.359100
O -15.422500 -17.342300 -16.780000
H -15.167900 -19.641000 -19.443000
C -15.158200 -20.123100 -18.609300
C -15.081100 -21.518300 -16.203800
C -15.074100 -19.231300 -13.860800
N -14.942000 -22.345000 -14.961200
C -14.889100 -19.489300 -17.420600
C -14.817800 -20.150000 -16.189200
N -14.683300 -18.024400 -17.464000
N -14.436700 -19.426300 -15.044200
N -14.304900 -18.485300 -13.069000
O -14.121400 -21.985900 -14.145300
O -13.816900 -17.608500 -18.206300
N -13.213000 -18.764000 -15.044400
C -13.212100 -18.244800 -13.846700
H -12.465000 -17.695900 -13.542100
