26
Fragment
H -21.570500 -21.632200 -22.490100
C -20.823400 -21.083300 -22.185500
N -20.822500 -20.564100 -20.987800
O -20.218500 -21.719600 -17.826000
O -19.914100 -17.342100 -21.887000
N -19.730600 -20.842700 -22.963200
N -19.598800 -19.901700 -20.988100
N -19.352200 -21.303600 -18.568300
C -19.217600 -19.178000 -19.843100
C -19.146300 -19.838700 -18.611600
N -19.093500 -16.983000 -21.071100
C -18.961400 -20.096700 -22.171500
C -18.954300 -17.809700 -19.828400
C -18.877200 -19.204900 -17.422900
H -18.867500 -19.687000 -16.589200
O -18.613000 -21.985700 -19.252300
C -18.610600 -17.140500 -18.673100
C -18.600900 -17.852900 -17.491300
H -18.416800 -16.235300 -18.691100
O -18.409300 -15.981300 -21.130800
N -18.316500 -17.138600 -16.231000
O -18.236700 -15.923500 -16.280700
O -18.179500 -17.811600 -15.219400
N -17.763200 -19.594100 -22.474900
H -17.398700 -19.882400 -23.218000
H -17.252800 -19.220500 -21.835500
26
Fragment
H -24.338900 -29.898000 -22.490100
C -23.591800 -29.349100 -22.185500
N -23.590900 -28.829900 -20.987800
O -22.986900 -29.985400 -17.826000
O -22.682500 -25.608000 -21.887000
N -22.499000 -29.108500 -22.963200
N -22.367200 -28.167500 -20.988100
N -22.120600 -29.569500 -18.568300
C -21.986000 -27.443800 -19.843100
C -21.914700 -28.104500 -18.611600
N -21.861900 -25.248800 -21.071100
C -21.729800 -28.362500 -22.171500
C -21.722800 -26.075600 -19.828400
C -21.645700 -27.470800 -17.422900
H -21.636000 -27.952900 -16.589200
O -21.381400 -30.251500 -19.252300
C -21.379100 -25.406300 -18.673100
C -21.369300 -26.118700 -17.491300
H -21.185200 -24.501100 -18.691100
O -21.177700 -24.247100 -21.130800
N -21.084900 -25.404400 -16.231000
O -21.005200 -24.189300 -16.280700
O -20.947900 -26.077400 -15.219400
N -20.531600 -27.859900 -22.474900
H -20.167100 -28.148200 -23.218000
H -20.021200 -27.486300 -21.835500
52
Fragment
H -21.570500 -21.632200 -22.490100
C -20.823400 -21.083300 -22.185500
N -20.822500 -20.564100 -20.987800
O -20.218500 -21.719600 -17.826000
O -19.914100 -17.342100 -21.887000
N -19.730600 -20.842700 -22.963200
N -19.598800 -19.901700 -20.988100
N -19.352200 -21.303600 -18.568300
C -19.217600 -19.178000 -19.843100
C -19.146300 -19.838700 -18.611600
N -19.093500 -16.983000 -21.071100
C -18.961400 -20.096700 -22.171500
C -18.954300 -17.809700 -19.828400
C -18.877200 -19.204900 -17.422900
H -18.867500 -19.687000 -16.589200
O -18.613000 -21.985700 -19.252300
C -18.610600 -17.140500 -18.673100
C -18.600900 -17.852900 -17.491300
H -18.416800 -16.235300 -18.691100
O -18.409300 -15.981300 -21.130800
N -18.316500 -17.138600 -16.231000
O -18.236700 -15.923500 -16.280700
O -18.179500 -17.811600 -15.219400
N -17.763200 -19.594100 -22.474900
H -17.398700 -19.882400 -23.218000
H -17.252800 -19.220500 -21.835500
H -24.338900 -29.898000 -22.490100
C -23.591800 -29.349100 -22.185500
N -23.590900 -28.829900 -20.987800
O -22.986900 -29.985400 -17.826000
O -22.682500 -25.608000 -21.887000
N -22.499000 -29.108500 -22.963200
N -22.367200 -28.167500 -20.988100
N -22.120600 -29.569500 -18.568300
C -21.986000 -27.443800 -19.843100
C -21.914700 -28.104500 -18.611600
N -21.861900 -25.248800 -21.071100
C -21.729800 -28.362500 -22.171500
C -21.722800 -26.075600 -19.828400
C -21.645700 -27.470800 -17.422900
H -21.636000 -27.952900 -16.589200
O -21.381400 -30.251500 -19.252300
C -21.379100 -25.406300 -18.673100
C -21.369300 -26.118700 -17.491300
H -21.185200 -24.501100 -18.691100
O -21.177700 -24.247100 -21.130800
N -21.084900 -25.404400 -16.231000
O -21.005200 -24.189300 -16.280700
O -20.947900 -26.077400 -15.219400
N -20.531600 -27.859900 -22.474900
H -20.167100 -28.148200 -23.218000
H -20.021200 -27.486300 -21.835500
