12
Fragment
H -19.145200 -10.534300 -22.506300
H -18.589900 -9.433200 -23.456200
C -18.377900 -10.000600 -22.700900
H -18.166500 -9.493200 -21.912100
N -17.259900 -10.880900 -23.014900
H -16.931300 -11.806300 -21.260900
H -16.861100 -10.482600 -24.987700
C -16.648900 -11.748600 -22.145800
C -16.621900 -10.996900 -24.195600
C -15.659700 -12.354000 -22.847400
N -15.640900 -11.874800 -24.137400
H -15.041600 -13.012600 -22.550600
10
Fragment
O -15.973000 -8.348200 -26.351700
H -15.565400 -8.171900 -25.537700
H -15.330700 -9.974700 -27.088200
N -15.045600 -9.180100 -26.981500
C -14.033800 -8.637700 -27.652700
O -13.780900 -7.429600 -27.654000
H -13.471200 -9.614000 -29.300900
H -13.307900 -10.534300 -28.091800
C -13.190100 -9.636900 -28.403800
H -12.260200 -9.383900 -28.341500
22
Fragment
H -19.145200 -10.534300 -22.506300
H -18.589900 -9.433200 -23.456200
C -18.377900 -10.000600 -22.700900
H -18.166500 -9.493200 -21.912100
N -17.259900 -10.880900 -23.014900
H -16.931300 -11.806300 -21.260900
H -16.861100 -10.482600 -24.987700
C -16.648900 -11.748600 -22.145800
C -16.621900 -10.996900 -24.195600
C -15.659700 -12.354000 -22.847400
N -15.640900 -11.874800 -24.137400
H -15.041600 -13.012600 -22.550600
O -15.973000 -8.348200 -26.351700
H -15.565400 -8.171900 -25.537700
H -15.330700 -9.974700 -27.088200
N -15.045600 -9.180100 -26.981500
C -14.033800 -8.637700 -27.652700
O -13.780900 -7.429600 -27.654000
H -13.471200 -9.614000 -29.300900
H -13.307900 -10.534300 -28.091800
C -13.190100 -9.636900 -28.403800
H -12.260200 -9.383900 -28.341500
