12
Fragment
H -19.145200 -10.534300 -22.506300
H -18.589900 -9.433200 -23.456200
C -18.377900 -10.000600 -22.700900
H -18.166500 -9.493200 -21.912100
N -17.259900 -10.880900 -23.014900
H -16.931300 -11.806300 -21.260900
H -16.861100 -10.482600 -24.987700
C -16.648900 -11.748600 -22.145800
C -16.621900 -10.996900 -24.195600
C -15.659700 -12.354000 -22.847400
N -15.640900 -11.874800 -24.137400
H -15.041600 -13.012600 -22.550600
12
Fragment
H -15.203700 -8.904000 -22.550600
N -14.604300 -7.766200 -24.137400
C -14.585600 -8.245400 -22.847400
C -13.623300 -6.888400 -24.195600
C -13.596300 -7.640100 -22.145800
H -13.384100 -6.374000 -24.987700
H -13.314000 -7.697800 -21.260900
N -12.985400 -6.772400 -23.014900
H -12.078700 -5.384700 -21.912100
C -11.867400 -5.892100 -22.700900
H -11.655300 -5.324700 -23.456200
H -11.100000 -6.425800 -22.506300
24
Fragment
H -19.145200 -10.534300 -22.506300
H -18.589900 -9.433200 -23.456200
C -18.377900 -10.000600 -22.700900
H -18.166500 -9.493200 -21.912100
N -17.259900 -10.880900 -23.014900
H -16.931300 -11.806300 -21.260900
H -16.861100 -10.482600 -24.987700
C -16.648900 -11.748600 -22.145800
C -16.621900 -10.996900 -24.195600
C -15.659700 -12.354000 -22.847400
N -15.640900 -11.874800 -24.137400
H -15.041600 -13.012600 -22.550600
H -15.203700 -8.904000 -22.550600
N -14.604300 -7.766200 -24.137400
C -14.585600 -8.245400 -22.847400
C -13.623300 -6.888400 -24.195600
C -13.596300 -7.640100 -22.145800
H -13.384100 -6.374000 -24.987700
H -13.314000 -7.697800 -21.260900
N -12.985400 -6.772400 -23.014900
H -12.078700 -5.384700 -21.912100
C -11.867400 -5.892100 -22.700900
H -11.655300 -5.324700 -23.456200
H -11.100000 -6.425800 -22.506300
