12
Fragment
H -19.145200 -10.534300 -22.506300
H -18.589900 -9.433200 -23.456200
C -18.377900 -10.000600 -22.700900
H -18.166500 -9.493200 -21.912100
N -17.259900 -10.880900 -23.014900
H -16.931300 -11.806300 -21.260900
H -16.861100 -10.482600 -24.987700
C -16.648900 -11.748600 -22.145800
C -16.621900 -10.996900 -24.195600
C -15.659700 -12.354000 -22.847400
N -15.640900 -11.874800 -24.137400
H -15.041600 -13.012600 -22.550600
12
Fragment
H -21.252700 -3.421600 -24.864400
N -20.653400 -4.559400 -23.277600
C -20.634600 -4.080200 -24.567600
C -19.672400 -5.437300 -23.219400
C -19.645400 -4.685600 -25.269200
H -19.433200 -5.951600 -22.427300
H -19.363000 -4.627900 -26.154100
N -19.034400 -5.553300 -24.400100
H -18.127800 -6.941000 -25.502900
C -17.916400 -6.433600 -24.714100
H -17.704400 -7.001000 -23.958800
H -17.149100 -5.899900 -24.908700
24
Fragment
H -19.145200 -10.534300 -22.506300
H -18.589900 -9.433200 -23.456200
C -18.377900 -10.000600 -22.700900
H -18.166500 -9.493200 -21.912100
N -17.259900 -10.880900 -23.014900
H -16.931300 -11.806300 -21.260900
H -16.861100 -10.482600 -24.987700
C -16.648900 -11.748600 -22.145800
C -16.621900 -10.996900 -24.195600
C -15.659700 -12.354000 -22.847400
N -15.640900 -11.874800 -24.137400
H -15.041600 -13.012600 -22.550600
H -21.252700 -3.421600 -24.864400
N -20.653400 -4.559400 -23.277600
C -20.634600 -4.080200 -24.567600
C -19.672400 -5.437300 -23.219400
C -19.645400 -4.685600 -25.269200
H -19.433200 -5.951600 -22.427300
H -19.363000 -4.627900 -26.154100
N -19.034400 -5.553300 -24.400100
H -18.127800 -6.941000 -25.502900
C -17.916400 -6.433600 -24.714100
H -17.704400 -7.001000 -23.958800
H -17.149100 -5.899900 -24.908700
