12
Fragment
H -19.145200 -10.534300 -22.506300
H -18.589900 -9.433200 -23.456200
C -18.377900 -10.000600 -22.700900
H -18.166500 -9.493200 -21.912100
N -17.259900 -10.880900 -23.014900
H -16.931300 -11.806300 -21.260900
H -16.861100 -10.482600 -24.987700
C -16.648900 -11.748600 -22.145800
C -16.621900 -10.996900 -24.195600
C -15.659700 -12.354000 -22.847400
N -15.640900 -11.874800 -24.137400
H -15.041600 -13.012600 -22.550600
10
Fragment
H -17.985000 -13.492500 -28.341500
C -17.055200 -13.745400 -28.403800
H -16.937300 -14.642900 -28.091800
H -16.774000 -13.722600 -29.300900
O -16.464300 -11.538100 -27.654000
C -16.211500 -12.746200 -27.652700
N -15.199700 -13.288700 -26.981500
H -14.914500 -14.083300 -27.088200
H -14.679800 -12.280500 -25.537700
O -14.272200 -12.456700 -26.351700
22
Fragment
H -19.145200 -10.534300 -22.506300
H -18.589900 -9.433200 -23.456200
C -18.377900 -10.000600 -22.700900
H -18.166500 -9.493200 -21.912100
N -17.259900 -10.880900 -23.014900
H -16.931300 -11.806300 -21.260900
H -16.861100 -10.482600 -24.987700
C -16.648900 -11.748600 -22.145800
C -16.621900 -10.996900 -24.195600
C -15.659700 -12.354000 -22.847400
N -15.640900 -11.874800 -24.137400
H -15.041600 -13.012600 -22.550600
H -17.985000 -13.492500 -28.341500
C -17.055200 -13.745400 -28.403800
H -16.937300 -14.642900 -28.091800
H -16.774000 -13.722600 -29.300900
O -16.464300 -11.538100 -27.654000
C -16.211500 -12.746200 -27.652700
N -15.199700 -13.288700 -26.981500
H -14.914500 -14.083300 -27.088200
H -14.679800 -12.280500 -25.537700
O -14.272200 -12.456700 -26.351700
