12
Fragment
H -19.145200 -10.534300 -22.506300
H -18.589900 -9.433200 -23.456200
C -18.377900 -10.000600 -22.700900
H -18.166500 -9.493200 -21.912100
N -17.259900 -10.880900 -23.014900
H -16.931300 -11.806300 -21.260900
H -16.861100 -10.482600 -24.987700
C -16.648900 -11.748600 -22.145800
C -16.621900 -10.996900 -24.195600
C -15.659700 -12.354000 -22.847400
N -15.640900 -11.874800 -24.137400
H -15.041600 -13.012600 -22.550600
10
Fragment
O -22.022100 -12.194600 -21.063300
H -21.614500 -12.370800 -21.877300
H -21.379800 -10.568000 -20.326800
N -21.094600 -11.362600 -20.433500
C -20.082800 -11.905100 -19.762300
O -19.830000 -13.113200 -19.761000
H -19.520300 -10.928700 -18.114100
H -19.357000 -10.008400 -19.323200
C -19.239100 -10.905900 -19.011200
H -18.309300 -11.158800 -19.073500
22
Fragment
H -19.145200 -10.534300 -22.506300
H -18.589900 -9.433200 -23.456200
C -18.377900 -10.000600 -22.700900
H -18.166500 -9.493200 -21.912100
N -17.259900 -10.880900 -23.014900
H -16.931300 -11.806300 -21.260900
H -16.861100 -10.482600 -24.987700
C -16.648900 -11.748600 -22.145800
C -16.621900 -10.996900 -24.195600
C -15.659700 -12.354000 -22.847400
N -15.640900 -11.874800 -24.137400
H -15.041600 -13.012600 -22.550600
O -22.022100 -12.194600 -21.063300
H -21.614500 -12.370800 -21.877300
H -21.379800 -10.568000 -20.326800
N -21.094600 -11.362600 -20.433500
C -20.082800 -11.905100 -19.762300
O -19.830000 -13.113200 -19.761000
H -19.520300 -10.928700 -18.114100
H -19.357000 -10.008400 -19.323200
C -19.239100 -10.905900 -19.011200
H -18.309300 -11.158800 -19.073500
