12
Fragment
H -19.145200 -10.534300 -22.506300
H -18.589900 -9.433200 -23.456200
C -18.377900 -10.000600 -22.700900
H -18.166500 -9.493200 -21.912100
N -17.259900 -10.880900 -23.014900
H -16.931300 -11.806300 -21.260900
H -16.861100 -10.482600 -24.987700
C -16.648900 -11.748600 -22.145800
C -16.621900 -10.996900 -24.195600
C -15.659700 -12.354000 -22.847400
N -15.640900 -11.874800 -24.137400
H -15.041600 -13.012600 -22.550600
12
Fragment
H -21.252700 -11.638700 -24.864400
N -20.653400 -12.776500 -23.277600
C -20.634600 -12.297300 -24.567600
C -19.672400 -13.654400 -23.219400
C -19.645400 -12.902700 -25.269200
H -19.433200 -14.168700 -22.427300
H -19.363000 -12.845000 -26.154100
N -19.034400 -13.770400 -24.400100
H -18.127800 -15.158100 -25.502900
C -17.916400 -14.650700 -24.714100
H -17.704400 -15.218100 -23.958800
H -17.149100 -14.117000 -24.908700
24
Fragment
H -19.145200 -10.534300 -22.506300
H -18.589900 -9.433200 -23.456200
C -18.377900 -10.000600 -22.700900
H -18.166500 -9.493200 -21.912100
N -17.259900 -10.880900 -23.014900
H -16.931300 -11.806300 -21.260900
H -16.861100 -10.482600 -24.987700
C -16.648900 -11.748600 -22.145800
C -16.621900 -10.996900 -24.195600
C -15.659700 -12.354000 -22.847400
N -15.640900 -11.874800 -24.137400
H -15.041600 -13.012600 -22.550600
H -21.252700 -11.638700 -24.864400
N -20.653400 -12.776500 -23.277600
C -20.634600 -12.297300 -24.567600
C -19.672400 -13.654400 -23.219400
C -19.645400 -12.902700 -25.269200
H -19.433200 -14.168700 -22.427300
H -19.363000 -12.845000 -26.154100
N -19.034400 -13.770400 -24.400100
H -18.127800 -15.158100 -25.502900
C -17.916400 -14.650700 -24.714100
H -17.704400 -15.218100 -23.958800
H -17.149100 -14.117000 -24.908700
