6
Fragment
H -43.023900 -11.771200 -19.792500
C -42.155200 -12.093200 -19.540400
C -42.077400 -13.482000 -19.789300
H -42.011000 -11.927300 -18.606100
N -41.976200 -14.568700 -20.005900
H -41.483700 -11.637700 -20.053700
36
Fragment
Cl -39.825000 -8.521900 -18.702600
H -39.797400 -9.658200 -21.242100
C -38.957200 -9.282400 -21.111300
C -38.637100 -8.640400 -19.958100
H -38.173100 -9.766500 -22.879300
C -37.987500 -9.348700 -22.069100
N -37.456200 -8.092600 -19.693900
C -36.743100 -8.810800 -21.856700
C -36.543800 -8.179600 -20.631700
H -36.069900 -8.865000 -22.496000
H -35.852600 -6.514200 -18.898400
O -35.325800 -7.630000 -20.434500
C -35.076800 -7.032000 -19.164900
O -34.919100 -9.261800 -18.285600
C -34.779600 -8.062100 -18.105900
N -34.366400 -7.512500 -16.953000
H -34.324100 -6.424600 -19.240400
H -34.297400 -6.658700 -16.880900
N -34.055700 -8.322100 -15.891800
C -33.420400 -7.779700 -14.937300
H -33.312900 -9.440500 -13.761900
H -33.204700 -6.875800 -14.979600
C -33.032600 -8.554400 -13.795300
H -32.538100 -10.675700 -12.074000
C -32.306300 -8.105200 -12.782700
C -32.077100 -10.195100 -11.425500
H -32.056100 -7.210600 -12.830500
C -31.847500 -8.830500 -11.604100
H -31.794200 -11.735800 -10.189100
C -31.627700 -10.828100 -10.300400
C -31.140500 -8.164300 -10.622500
H -30.967500 -7.256200 -10.724600
C -30.937600 -10.147600 -9.338400
C -30.689000 -8.808100 -9.505800
H -30.639100 -10.588100 -8.575700
H -30.213000 -8.339000 -8.859000
42
Fragment
H -43.023900 -11.771200 -19.792500
C -42.155200 -12.093200 -19.540400
C -42.077400 -13.482000 -19.789300
H -42.011000 -11.927300 -18.606100
N -41.976200 -14.568700 -20.005900
H -41.483700 -11.637700 -20.053700
Cl -39.825000 -8.521900 -18.702600
H -39.797400 -9.658200 -21.242100
C -38.957200 -9.282400 -21.111300
C -38.637100 -8.640400 -19.958100
H -38.173100 -9.766500 -22.879300
C -37.987500 -9.348700 -22.069100
N -37.456200 -8.092600 -19.693900
C -36.743100 -8.810800 -21.856700
C -36.543800 -8.179600 -20.631700
H -36.069900 -8.865000 -22.496000
H -35.852600 -6.514200 -18.898400
O -35.325800 -7.630000 -20.434500
C -35.076800 -7.032000 -19.164900
O -34.919100 -9.261800 -18.285600
C -34.779600 -8.062100 -18.105900
N -34.366400 -7.512500 -16.953000
H -34.324100 -6.424600 -19.240400
H -34.297400 -6.658700 -16.880900
N -34.055700 -8.322100 -15.891800
C -33.420400 -7.779700 -14.937300
H -33.312900 -9.440500 -13.761900
H -33.204700 -6.875800 -14.979600
C -33.032600 -8.554400 -13.795300
H -32.538100 -10.675700 -12.074000
C -32.306300 -8.105200 -12.782700
C -32.077100 -10.195100 -11.425500
H -32.056100 -7.210600 -12.830500
C -31.847500 -8.830500 -11.604100
H -31.794200 -11.735800 -10.189100
C -31.627700 -10.828100 -10.300400
C -31.140500 -8.164300 -10.622500
H -30.967500 -7.256200 -10.724600
C -30.937600 -10.147600 -9.338400
C -30.689000 -8.808100 -9.505800
H -30.639100 -10.588100 -8.575700
H -30.213000 -8.339000 -8.859000
