6
Fragment
H -43.023900 -11.771200 -19.792500
C -42.155200 -12.093200 -19.540400
C -42.077400 -13.482000 -19.789300
H -42.011000 -11.927300 -18.606100
N -41.976200 -14.568700 -20.005900
H -41.483700 -11.637700 -20.053700
6
Fragment
H -40.446300 -15.260000 -22.138000
N -39.953800 -12.329000 -22.185800
H -39.919000 -14.970400 -23.585600
C -39.852600 -13.415700 -22.402400
C -39.774800 -14.804500 -22.651300
H -38.906200 -15.126500 -22.399100
12
Fragment
H -43.023900 -11.771200 -19.792500
C -42.155200 -12.093200 -19.540400
C -42.077400 -13.482000 -19.789300
H -42.011000 -11.927300 -18.606100
N -41.976200 -14.568700 -20.005900
H -41.483700 -11.637700 -20.053700
H -40.446300 -15.260000 -22.138000
N -39.953800 -12.329000 -22.185800
H -39.919000 -14.970400 -23.585600
C -39.852600 -13.415700 -22.402400
C -39.774800 -14.804500 -22.651300
H -38.906200 -15.126500 -22.399100
