6
Fragment
H -43.023900 -11.771200 -19.792500
C -42.155200 -12.093200 -19.540400
C -42.077400 -13.482000 -19.789300
H -42.011000 -11.927300 -18.606100
N -41.976200 -14.568700 -20.005900
H -41.483700 -11.637700 -20.053700
36
Fragment
H -38.796500 -14.075700 -19.268800
H -38.370400 -11.826600 -19.552000
C -38.320500 -13.606600 -18.622000
C -38.071900 -12.267100 -18.789400
H -38.042000 -15.158600 -17.403200
C -37.869000 -14.250400 -17.505300
C -37.381800 -11.586600 -17.827400
H -37.215400 -10.678900 -17.938600
C -37.162000 -13.584200 -16.523700
H -36.953400 -15.204200 -15.297300
C -36.932400 -12.219600 -16.702300
C -36.703200 -14.309600 -15.345100
H -36.471500 -11.739100 -16.053800
C -35.976900 -13.860400 -14.332500
H -35.804800 -15.539000 -13.148200
H -35.696600 -12.974300 -14.365800
C -35.589100 -14.635000 -13.190500
N -34.953800 -14.092600 -12.236000
H -34.712100 -15.756000 -11.246900
H -34.685400 -15.990100 -8.887400
N -34.643100 -14.902200 -11.174700
C -34.229900 -14.352600 -10.021900
O -34.090400 -13.153000 -9.842200
C -33.932700 -15.382800 -8.962900
O -33.683700 -14.784800 -7.693200
H -33.156900 -15.900600 -9.229400
H -32.939600 -13.549700 -5.631700
C -32.465700 -14.235200 -7.496100
C -32.266400 -13.604000 -6.271100
N -31.553300 -14.322100 -8.433800
C -31.022000 -13.066000 -6.058700
H -30.836400 -12.648300 -5.248500
C -30.372500 -13.774300 -8.169700
C -30.052300 -13.132400 -7.016500
H -29.212100 -12.756500 -6.885700
Cl -29.184600 -13.892800 -9.425200
42
Fragment
H -43.023900 -11.771200 -19.792500
C -42.155200 -12.093200 -19.540400
C -42.077400 -13.482000 -19.789300
H -42.011000 -11.927300 -18.606100
N -41.976200 -14.568700 -20.005900
H -41.483700 -11.637700 -20.053700
H -38.796500 -14.075700 -19.268800
H -38.370400 -11.826600 -19.552000
C -38.320500 -13.606600 -18.622000
C -38.071900 -12.267100 -18.789400
H -38.042000 -15.158600 -17.403200
C -37.869000 -14.250400 -17.505300
C -37.381800 -11.586600 -17.827400
H -37.215400 -10.678900 -17.938600
C -37.162000 -13.584200 -16.523700
H -36.953400 -15.204200 -15.297300
C -36.932400 -12.219600 -16.702300
C -36.703200 -14.309600 -15.345100
H -36.471500 -11.739100 -16.053800
C -35.976900 -13.860400 -14.332500
H -35.804800 -15.539000 -13.148200
H -35.696600 -12.974300 -14.365800
C -35.589100 -14.635000 -13.190500
N -34.953800 -14.092600 -12.236000
H -34.712100 -15.756000 -11.246900
H -34.685400 -15.990100 -8.887400
N -34.643100 -14.902200 -11.174700
C -34.229900 -14.352600 -10.021900
O -34.090400 -13.153000 -9.842200
C -33.932700 -15.382800 -8.962900
O -33.683700 -14.784800 -7.693200
H -33.156900 -15.900600 -9.229400
H -32.939600 -13.549700 -5.631700
C -32.465700 -14.235200 -7.496100
C -32.266400 -13.604000 -6.271100
N -31.553300 -14.322100 -8.433800
C -31.022000 -13.066000 -6.058700
H -30.836400 -12.648300 -5.248500
C -30.372500 -13.774300 -8.169700
C -30.052300 -13.132400 -7.016500
H -29.212100 -12.756500 -6.885700
Cl -29.184600 -13.892800 -9.425200
