6
Fragment
H -43.023900 -11.771200 -19.792500
C -42.155200 -12.093200 -19.540400
C -42.077400 -13.482000 -19.789300
H -42.011000 -11.927300 -18.606100
N -41.976200 -14.568700 -20.005900
H -41.483700 -11.637700 -20.053700
36
Fragment
H -51.717100 -18.558700 -33.332700
H -51.290900 -16.309600 -33.615900
C -51.241000 -18.089600 -32.685900
C -50.992400 -16.750100 -32.853200
H -50.962500 -19.641500 -31.467100
C -50.789500 -18.733400 -31.569200
C -50.302300 -16.069600 -31.891300
H -50.135900 -15.161900 -32.002500
C -50.082500 -18.067200 -30.587600
H -49.873900 -19.687100 -29.361200
C -49.852900 -16.702600 -30.766200
C -49.623700 -18.792500 -29.409000
H -49.392000 -16.222000 -30.117700
C -48.897500 -18.343300 -28.396400
H -48.725300 -20.021900 -27.212100
H -48.617100 -17.457200 -28.429700
C -48.509700 -19.118000 -27.254400
N -47.874300 -18.575600 -26.299900
H -47.632600 -20.239000 -25.310800
H -47.605900 -20.473100 -22.951300
N -47.563600 -19.385200 -25.238600
C -47.150400 -18.835600 -24.085800
O -47.010900 -17.635900 -23.906100
C -46.853200 -19.865700 -23.026800
O -46.604300 -19.267700 -21.757100
H -46.077400 -20.383500 -23.293300
H -45.860100 -18.032700 -19.695600
C -45.386200 -18.718100 -21.559900
C -45.186900 -18.086900 -20.335000
N -44.473800 -18.805100 -22.497700
C -43.942600 -17.549000 -20.122600
H -43.756900 -17.131200 -19.312400
C -43.293000 -18.257300 -22.233600
C -42.972800 -17.615300 -21.080400
H -42.132600 -17.239500 -20.949600
Cl -42.105100 -18.375800 -23.489100
42
Fragment
H -43.023900 -11.771200 -19.792500
C -42.155200 -12.093200 -19.540400
C -42.077400 -13.482000 -19.789300
H -42.011000 -11.927300 -18.606100
N -41.976200 -14.568700 -20.005900
H -41.483700 -11.637700 -20.053700
H -51.717100 -18.558700 -33.332700
H -51.290900 -16.309600 -33.615900
C -51.241000 -18.089600 -32.685900
C -50.992400 -16.750100 -32.853200
H -50.962500 -19.641500 -31.467100
C -50.789500 -18.733400 -31.569200
C -50.302300 -16.069600 -31.891300
H -50.135900 -15.161900 -32.002500
C -50.082500 -18.067200 -30.587600
H -49.873900 -19.687100 -29.361200
C -49.852900 -16.702600 -30.766200
C -49.623700 -18.792500 -29.409000
H -49.392000 -16.222000 -30.117700
C -48.897500 -18.343300 -28.396400
H -48.725300 -20.021900 -27.212100
H -48.617100 -17.457200 -28.429700
C -48.509700 -19.118000 -27.254400
N -47.874300 -18.575600 -26.299900
H -47.632600 -20.239000 -25.310800
H -47.605900 -20.473100 -22.951300
N -47.563600 -19.385200 -25.238600
C -47.150400 -18.835600 -24.085800
O -47.010900 -17.635900 -23.906100
C -46.853200 -19.865700 -23.026800
O -46.604300 -19.267700 -21.757100
H -46.077400 -20.383500 -23.293300
H -45.860100 -18.032700 -19.695600
C -45.386200 -18.718100 -21.559900
C -45.186900 -18.086900 -20.335000
N -44.473800 -18.805100 -22.497700
C -43.942600 -17.549000 -20.122600
H -43.756900 -17.131200 -19.312400
C -43.293000 -18.257300 -22.233600
C -42.972800 -17.615300 -21.080400
H -42.132600 -17.239500 -20.949600
Cl -42.105100 -18.375800 -23.489100
