37
Fragment
H -14.073800 -28.129400 -26.950200
H -13.827000 -27.567000 -24.740000
C -13.372900 -28.489800 -26.456300
C -13.229100 -28.157300 -25.139400
H -12.599600 -29.564800 -27.944400
C -12.500200 -29.341800 -27.046500
C -12.200400 -28.693300 -24.405000
H -12.104800 -28.465600 -23.508400
C -11.465300 -29.877300 -26.315300
H -11.401200 -36.317400 -24.816200
C -11.312300 -29.563100 -24.984000
H -10.864100 -30.457600 -26.725000
H -10.837600 -36.337100 -27.038500
C -10.722700 -35.767000 -25.132800
C -10.384200 -35.775300 -26.451000
H -10.304100 -32.018900 -24.998000
H -10.274800 -34.925200 -23.376800
C -10.227000 -30.156100 -24.200200
C -10.048300 -34.935700 -24.278200
C -9.836300 -31.444900 -24.394600
N -9.648000 -29.360100 -23.284300
C -9.404800 -34.981500 -26.913400
H -9.184500 -35.005900 -27.816200
C -9.055600 -34.127300 -24.725200
C -8.804900 -31.987200 -23.651300
C -8.713700 -34.126500 -26.067500
N -8.665100 -29.859600 -22.540500
N -8.387700 -33.251000 -23.822300
C -8.263000 -31.089400 -22.702500
N -7.785600 -33.272700 -26.551600
H -7.703800 -33.639200 -23.309200
F -7.563200 -32.485100 -20.989400
H -7.429900 -33.419000 -27.362400
H -7.283300 -32.878200 -26.020000
C -7.172700 -31.508200 -21.789800
F -6.705400 -30.558100 -21.053500
F -6.150800 -32.025400 -22.450800
37
Fragment
H -8.546500 -37.961400 -26.950200
H -8.299700 -37.399000 -24.740000
C -7.845600 -38.321800 -26.456300
C -7.701800 -37.989300 -25.139400
H -7.072300 -39.396800 -27.944400
C -6.972900 -39.173800 -27.046500
C -6.673100 -38.525300 -24.405000
H -6.577500 -38.297600 -23.508400
C -5.938000 -39.709300 -26.315300
H -5.873900 -46.149400 -24.816200
C -5.785000 -39.395100 -24.984000
H -5.336800 -40.289600 -26.725000
H -5.310300 -46.169100 -27.038500
C -5.195400 -45.599000 -25.132800
C -4.856900 -45.607300 -26.451000
H -4.776800 -41.850900 -24.998000
H -4.747500 -44.757200 -23.376800
C -4.699700 -39.988100 -24.200200
C -4.521000 -44.767700 -24.278200
C -4.309000 -41.276900 -24.394600
N -4.120700 -39.192100 -23.284300
C -3.877500 -44.813500 -26.913400
H -3.657200 -44.837900 -27.816200
C -3.528300 -43.959300 -24.725200
C -3.277600 -41.819200 -23.651300
C -3.186400 -43.958500 -26.067500
N -3.137800 -39.691600 -22.540500
N -2.860400 -43.083000 -23.822300
C -2.735700 -40.921400 -22.702500
N -2.258300 -43.104700 -26.551600
H -2.176500 -43.471200 -23.309200
F -2.035900 -42.317100 -20.989400
H -1.902600 -43.251000 -27.362400
H -1.756000 -42.710200 -26.020000
C -1.645400 -41.340200 -21.789800
F -1.178100 -40.390100 -21.053500
F -0.623500 -41.857400 -22.450800
74
Fragment
H -14.073800 -28.129400 -26.950200
H -13.827000 -27.567000 -24.740000
C -13.372900 -28.489800 -26.456300
C -13.229100 -28.157300 -25.139400
H -12.599600 -29.564800 -27.944400
C -12.500200 -29.341800 -27.046500
C -12.200400 -28.693300 -24.405000
H -12.104800 -28.465600 -23.508400
C -11.465300 -29.877300 -26.315300
H -11.401200 -36.317400 -24.816200
C -11.312300 -29.563100 -24.984000
H -10.864100 -30.457600 -26.725000
H -10.837600 -36.337100 -27.038500
C -10.722700 -35.767000 -25.132800
C -10.384200 -35.775300 -26.451000
H -10.304100 -32.018900 -24.998000
H -10.274800 -34.925200 -23.376800
C -10.227000 -30.156100 -24.200200
C -10.048300 -34.935700 -24.278200
C -9.836300 -31.444900 -24.394600
N -9.648000 -29.360100 -23.284300
C -9.404800 -34.981500 -26.913400
H -9.184500 -35.005900 -27.816200
C -9.055600 -34.127300 -24.725200
C -8.804900 -31.987200 -23.651300
C -8.713700 -34.126500 -26.067500
N -8.665100 -29.859600 -22.540500
N -8.387700 -33.251000 -23.822300
C -8.263000 -31.089400 -22.702500
N -7.785600 -33.272700 -26.551600
H -7.703800 -33.639200 -23.309200
F -7.563200 -32.485100 -20.989400
H -7.429900 -33.419000 -27.362400
H -7.283300 -32.878200 -26.020000
C -7.172700 -31.508200 -21.789800
F -6.705400 -30.558100 -21.053500
F -6.150800 -32.025400 -22.450800
H -8.546500 -37.961400 -26.950200
H -8.299700 -37.399000 -24.740000
C -7.845600 -38.321800 -26.456300
C -7.701800 -37.989300 -25.139400
H -7.072300 -39.396800 -27.944400
C -6.972900 -39.173800 -27.046500
C -6.673100 -38.525300 -24.405000
H -6.577500 -38.297600 -23.508400
C -5.938000 -39.709300 -26.315300
H -5.873900 -46.149400 -24.816200
C -5.785000 -39.395100 -24.984000
H -5.336800 -40.289600 -26.725000
H -5.310300 -46.169100 -27.038500
C -5.195400 -45.599000 -25.132800
C -4.856900 -45.607300 -26.451000
H -4.776800 -41.850900 -24.998000
H -4.747500 -44.757200 -23.376800
C -4.699700 -39.988100 -24.200200
C -4.521000 -44.767700 -24.278200
C -4.309000 -41.276900 -24.394600
N -4.120700 -39.192100 -23.284300
C -3.877500 -44.813500 -26.913400
H -3.657200 -44.837900 -27.816200
C -3.528300 -43.959300 -24.725200
C -3.277600 -41.819200 -23.651300
C -3.186400 -43.958500 -26.067500
N -3.137800 -39.691600 -22.540500
N -2.860400 -43.083000 -23.822300
C -2.735700 -40.921400 -22.702500
N -2.258300 -43.104700 -26.551600
H -2.176500 -43.471200 -23.309200
F -2.035900 -42.317100 -20.989400
H -1.902600 -43.251000 -27.362400
H -1.756000 -42.710200 -26.020000
C -1.645400 -41.340200 -21.789800
F -1.178100 -40.390100 -21.053500
F -0.623500 -41.857400 -22.450800
