37
Fragment
H -14.073800 -28.129400 -26.950200
H -13.827000 -27.567000 -24.740000
C -13.372900 -28.489800 -26.456300
C -13.229100 -28.157300 -25.139400
H -12.599600 -29.564800 -27.944400
C -12.500200 -29.341800 -27.046500
C -12.200400 -28.693300 -24.405000
H -12.104800 -28.465600 -23.508400
C -11.465300 -29.877300 -26.315300
H -11.401200 -36.317400 -24.816200
C -11.312300 -29.563100 -24.984000
H -10.864100 -30.457600 -26.725000
H -10.837600 -36.337100 -27.038500
C -10.722700 -35.767000 -25.132800
C -10.384200 -35.775300 -26.451000
H -10.304100 -32.018900 -24.998000
H -10.274800 -34.925200 -23.376800
C -10.227000 -30.156100 -24.200200
C -10.048300 -34.935700 -24.278200
C -9.836300 -31.444900 -24.394600
N -9.648000 -29.360100 -23.284300
C -9.404800 -34.981500 -26.913400
H -9.184500 -35.005900 -27.816200
C -9.055600 -34.127300 -24.725200
C -8.804900 -31.987200 -23.651300
C -8.713700 -34.126500 -26.067500
N -8.665100 -29.859600 -22.540500
N -8.387700 -33.251000 -23.822300
C -8.263000 -31.089400 -22.702500
N -7.785600 -33.272700 -26.551600
H -7.703800 -33.639200 -23.309200
F -7.563200 -32.485100 -20.989400
H -7.429900 -33.419000 -27.362400
H -7.283300 -32.878200 -26.020000
C -7.172700 -31.508200 -21.789800
F -6.705400 -30.558100 -21.053500
F -6.150800 -32.025400 -22.450800
37
Fragment
F -12.361600 -26.966600 -29.513000
F -11.807000 -28.433900 -30.910300
C -11.339800 -27.483800 -30.174000
H -11.229100 -26.113800 -25.943800
H -11.082500 -25.573000 -24.601400
F -10.949300 -26.506900 -30.974400
H -10.808600 -25.352800 -28.654600
N -10.726800 -25.719300 -25.412200
C -10.249400 -27.902600 -29.261300
N -10.124700 -25.741000 -28.141500
N -9.847400 -29.132400 -29.423300
C -9.798700 -24.865500 -25.896300
C -9.707500 -27.004800 -28.312500
C -9.456800 -24.864700 -27.238600
H -9.327900 -23.986100 -24.147600
C -9.107600 -24.010500 -25.050400
N -8.864400 -29.631900 -28.679500
C -8.676100 -27.547100 -27.569200
C -8.464100 -24.056300 -27.685600
C -8.285400 -28.835900 -27.763600
H -8.237600 -24.066800 -28.587000
H -8.208300 -26.973100 -26.965700
C -8.128200 -23.216700 -25.512800
C -7.789700 -23.225000 -26.831000
H -7.674800 -22.654900 -24.925300
H -7.648300 -28.534400 -25.238800
C -7.200100 -29.428900 -26.979800
H -7.111300 -22.674600 -27.147600
C -7.047100 -29.114700 -25.648500
H -6.407600 -30.526400 -28.455400
C -6.312000 -30.298700 -27.558800
C -6.012300 -29.650200 -24.917300
H -5.912800 -29.427200 -24.019400
C -5.283300 -30.834700 -26.824400
C -5.139500 -30.502200 -25.507500
H -4.685400 -31.425000 -27.223800
H -4.438600 -30.862600 -25.013600
74
Fragment
H -14.073800 -28.129400 -26.950200
H -13.827000 -27.567000 -24.740000
C -13.372900 -28.489800 -26.456300
C -13.229100 -28.157300 -25.139400
H -12.599600 -29.564800 -27.944400
C -12.500200 -29.341800 -27.046500
C -12.200400 -28.693300 -24.405000
H -12.104800 -28.465600 -23.508400
C -11.465300 -29.877300 -26.315300
H -11.401200 -36.317400 -24.816200
C -11.312300 -29.563100 -24.984000
H -10.864100 -30.457600 -26.725000
H -10.837600 -36.337100 -27.038500
C -10.722700 -35.767000 -25.132800
C -10.384200 -35.775300 -26.451000
H -10.304100 -32.018900 -24.998000
H -10.274800 -34.925200 -23.376800
C -10.227000 -30.156100 -24.200200
C -10.048300 -34.935700 -24.278200
C -9.836300 -31.444900 -24.394600
N -9.648000 -29.360100 -23.284300
C -9.404800 -34.981500 -26.913400
H -9.184500 -35.005900 -27.816200
C -9.055600 -34.127300 -24.725200
C -8.804900 -31.987200 -23.651300
C -8.713700 -34.126500 -26.067500
N -8.665100 -29.859600 -22.540500
N -8.387700 -33.251000 -23.822300
C -8.263000 -31.089400 -22.702500
N -7.785600 -33.272700 -26.551600
H -7.703800 -33.639200 -23.309200
F -7.563200 -32.485100 -20.989400
H -7.429900 -33.419000 -27.362400
H -7.283300 -32.878200 -26.020000
C -7.172700 -31.508200 -21.789800
F -6.705400 -30.558100 -21.053500
F -6.150800 -32.025400 -22.450800
F -12.361600 -26.966600 -29.513000
F -11.807000 -28.433900 -30.910300
C -11.339800 -27.483800 -30.174000
H -11.229100 -26.113800 -25.943800
H -11.082500 -25.573000 -24.601400
F -10.949300 -26.506900 -30.974400
H -10.808600 -25.352800 -28.654600
N -10.726800 -25.719300 -25.412200
C -10.249400 -27.902600 -29.261300
N -10.124700 -25.741000 -28.141500
N -9.847400 -29.132400 -29.423300
C -9.798700 -24.865500 -25.896300
C -9.707500 -27.004800 -28.312500
C -9.456800 -24.864700 -27.238600
H -9.327900 -23.986100 -24.147600
C -9.107600 -24.010500 -25.050400
N -8.864400 -29.631900 -28.679500
C -8.676100 -27.547100 -27.569200
C -8.464100 -24.056300 -27.685600
C -8.285400 -28.835900 -27.763600
H -8.237600 -24.066800 -28.587000
H -8.208300 -26.973100 -26.965700
C -8.128200 -23.216700 -25.512800
C -7.789700 -23.225000 -26.831000
H -7.674800 -22.654900 -24.925300
H -7.648300 -28.534400 -25.238800
C -7.200100 -29.428900 -26.979800
H -7.111300 -22.674600 -27.147600
C -7.047100 -29.114700 -25.648500
H -6.407600 -30.526400 -28.455400
C -6.312000 -30.298700 -27.558800
C -6.012300 -29.650200 -24.917300
H -5.912800 -29.427200 -24.019400
C -5.283300 -30.834700 -26.824400
C -5.139500 -30.502200 -25.507500
H -4.685400 -31.425000 -27.223800
H -4.438600 -30.862600 -25.013600
