37
Fragment
H -14.073800 -28.129400 -26.950200
H -13.827000 -27.567000 -24.740000
C -13.372900 -28.489800 -26.456300
C -13.229100 -28.157300 -25.139400
H -12.599600 -29.564800 -27.944400
C -12.500200 -29.341800 -27.046500
C -12.200400 -28.693300 -24.405000
H -12.104800 -28.465600 -23.508400
C -11.465300 -29.877300 -26.315300
H -11.401200 -36.317400 -24.816200
C -11.312300 -29.563100 -24.984000
H -10.864100 -30.457600 -26.725000
H -10.837600 -36.337100 -27.038500
C -10.722700 -35.767000 -25.132800
C -10.384200 -35.775300 -26.451000
H -10.304100 -32.018900 -24.998000
H -10.274800 -34.925200 -23.376800
C -10.227000 -30.156100 -24.200200
C -10.048300 -34.935700 -24.278200
C -9.836300 -31.444900 -24.394600
N -9.648000 -29.360100 -23.284300
C -9.404800 -34.981500 -26.913400
H -9.184500 -35.005900 -27.816200
C -9.055600 -34.127300 -24.725200
C -8.804900 -31.987200 -23.651300
C -8.713700 -34.126500 -26.067500
N -8.665100 -29.859600 -22.540500
N -8.387700 -33.251000 -23.822300
C -8.263000 -31.089400 -22.702500
N -7.785600 -33.272700 -26.551600
H -7.703800 -33.639200 -23.309200
F -7.563200 -32.485100 -20.989400
H -7.429900 -33.419000 -27.362400
H -7.283300 -32.878200 -26.020000
C -7.172700 -31.508200 -21.789800
F -6.705400 -30.558100 -21.053500
F -6.150800 -32.025400 -22.450800
37
Fragment
H -22.686500 -30.862600 -35.610800
H -22.439700 -31.425000 -33.400600
C -21.985600 -30.502200 -35.117000
C -21.841800 -30.834700 -33.800000
H -21.212300 -29.427200 -36.605000
C -21.112900 -29.650200 -35.707100
C -20.813100 -30.298700 -33.065600
H -20.717500 -30.526400 -32.169000
C -20.078000 -29.114700 -34.976000
H -20.013900 -22.674600 -33.476800
C -19.925000 -29.428900 -33.644600
H -19.476800 -28.534400 -35.385600
H -19.450300 -22.654900 -35.699100
C -19.335400 -23.225000 -33.793400
C -18.996900 -23.216700 -35.111600
H -18.916800 -26.973100 -33.658700
H -18.887500 -24.066800 -32.037400
C -18.839700 -28.835900 -32.860900
C -18.661000 -24.056300 -32.938800
C -18.449000 -27.547100 -33.055200
N -18.260700 -29.631900 -31.944900
C -18.017500 -24.010500 -35.574100
H -17.797200 -23.986100 -36.476800
C -17.668300 -24.864700 -33.385900
C -17.417600 -27.004800 -32.311900
C -17.326400 -24.865500 -34.728100
N -17.277800 -29.132400 -31.201100
N -17.000400 -25.741000 -32.482900
C -16.875700 -27.902600 -31.363100
N -16.398300 -25.719300 -35.212200
H -16.316500 -25.352800 -31.969900
F -16.175900 -26.506900 -29.650000
H -16.042600 -25.573000 -36.023000
H -15.896000 -26.113800 -34.680600
C -15.785400 -27.483800 -30.450400
F -15.318100 -28.433900 -29.714100
F -14.763500 -26.966600 -31.111400
74
Fragment
H -14.073800 -28.129400 -26.950200
H -13.827000 -27.567000 -24.740000
C -13.372900 -28.489800 -26.456300
C -13.229100 -28.157300 -25.139400
H -12.599600 -29.564800 -27.944400
C -12.500200 -29.341800 -27.046500
C -12.200400 -28.693300 -24.405000
H -12.104800 -28.465600 -23.508400
C -11.465300 -29.877300 -26.315300
H -11.401200 -36.317400 -24.816200
C -11.312300 -29.563100 -24.984000
H -10.864100 -30.457600 -26.725000
H -10.837600 -36.337100 -27.038500
C -10.722700 -35.767000 -25.132800
C -10.384200 -35.775300 -26.451000
H -10.304100 -32.018900 -24.998000
H -10.274800 -34.925200 -23.376800
C -10.227000 -30.156100 -24.200200
C -10.048300 -34.935700 -24.278200
C -9.836300 -31.444900 -24.394600
N -9.648000 -29.360100 -23.284300
C -9.404800 -34.981500 -26.913400
H -9.184500 -35.005900 -27.816200
C -9.055600 -34.127300 -24.725200
C -8.804900 -31.987200 -23.651300
C -8.713700 -34.126500 -26.067500
N -8.665100 -29.859600 -22.540500
N -8.387700 -33.251000 -23.822300
C -8.263000 -31.089400 -22.702500
N -7.785600 -33.272700 -26.551600
H -7.703800 -33.639200 -23.309200
F -7.563200 -32.485100 -20.989400
H -7.429900 -33.419000 -27.362400
H -7.283300 -32.878200 -26.020000
C -7.172700 -31.508200 -21.789800
F -6.705400 -30.558100 -21.053500
F -6.150800 -32.025400 -22.450800
H -22.686500 -30.862600 -35.610800
H -22.439700 -31.425000 -33.400600
C -21.985600 -30.502200 -35.117000
C -21.841800 -30.834700 -33.800000
H -21.212300 -29.427200 -36.605000
C -21.112900 -29.650200 -35.707100
C -20.813100 -30.298700 -33.065600
H -20.717500 -30.526400 -32.169000
C -20.078000 -29.114700 -34.976000
H -20.013900 -22.674600 -33.476800
C -19.925000 -29.428900 -33.644600
H -19.476800 -28.534400 -35.385600
H -19.450300 -22.654900 -35.699100
C -19.335400 -23.225000 -33.793400
C -18.996900 -23.216700 -35.111600
H -18.916800 -26.973100 -33.658700
H -18.887500 -24.066800 -32.037400
C -18.839700 -28.835900 -32.860900
C -18.661000 -24.056300 -32.938800
C -18.449000 -27.547100 -33.055200
N -18.260700 -29.631900 -31.944900
C -18.017500 -24.010500 -35.574100
H -17.797200 -23.986100 -36.476800
C -17.668300 -24.864700 -33.385900
C -17.417600 -27.004800 -32.311900
C -17.326400 -24.865500 -34.728100
N -17.277800 -29.132400 -31.201100
N -17.000400 -25.741000 -32.482900
C -16.875700 -27.902600 -31.363100
N -16.398300 -25.719300 -35.212200
H -16.316500 -25.352800 -31.969900
F -16.175900 -26.506900 -29.650000
H -16.042600 -25.573000 -36.023000
H -15.896000 -26.113800 -34.680600
C -15.785400 -27.483800 -30.450400
F -15.318100 -28.433900 -29.714100
F -14.763500 -26.966600 -31.111400
