37
Fragment
H -14.073800 -28.129400 -26.950200
H -13.827000 -27.567000 -24.740000
C -13.372900 -28.489800 -26.456300
C -13.229100 -28.157300 -25.139400
H -12.599600 -29.564800 -27.944400
C -12.500200 -29.341800 -27.046500
C -12.200400 -28.693300 -24.405000
H -12.104800 -28.465600 -23.508400
C -11.465300 -29.877300 -26.315300
H -11.401200 -36.317400 -24.816200
C -11.312300 -29.563100 -24.984000
H -10.864100 -30.457600 -26.725000
H -10.837600 -36.337100 -27.038500
C -10.722700 -35.767000 -25.132800
C -10.384200 -35.775300 -26.451000
H -10.304100 -32.018900 -24.998000
H -10.274800 -34.925200 -23.376800
C -10.227000 -30.156100 -24.200200
C -10.048300 -34.935700 -24.278200
C -9.836300 -31.444900 -24.394600
N -9.648000 -29.360100 -23.284300
C -9.404800 -34.981500 -26.913400
H -9.184500 -35.005900 -27.816200
C -9.055600 -34.127300 -24.725200
C -8.804900 -31.987200 -23.651300
C -8.713700 -34.126500 -26.067500
N -8.665100 -29.859600 -22.540500
N -8.387700 -33.251000 -23.822300
C -8.263000 -31.089400 -22.702500
N -7.785600 -33.272700 -26.551600
H -7.703800 -33.639200 -23.309200
F -7.563200 -32.485100 -20.989400
H -7.429900 -33.419000 -27.362400
H -7.283300 -32.878200 -26.020000
C -7.172700 -31.508200 -21.789800
F -6.705400 -30.558100 -21.053500
F -6.150800 -32.025400 -22.450800
37
Fragment
F -23.416200 -26.966600 -29.513000
F -22.861600 -28.433900 -30.910300
C -22.394400 -27.483800 -30.174000
H -22.283700 -26.113800 -25.943800
H -22.137100 -25.573000 -24.601400
F -22.003900 -26.506900 -30.974400
H -21.863200 -25.352800 -28.654600
N -21.781400 -25.719300 -25.412200
C -21.304000 -27.902600 -29.261300
N -21.179300 -25.741000 -28.141500
N -20.902000 -29.132400 -29.423300
C -20.853300 -24.865500 -25.896300
C -20.762100 -27.004800 -28.312500
C -20.511400 -24.864700 -27.238600
H -20.382500 -23.986100 -24.147600
C -20.162200 -24.010500 -25.050400
N -19.919000 -29.631900 -28.679500
C -19.730700 -27.547100 -27.569200
C -19.518700 -24.056300 -27.685600
C -19.340000 -28.835900 -27.763600
H -19.292200 -24.066800 -28.587000
H -19.262900 -26.973100 -26.965700
C -19.182800 -23.216700 -25.512800
C -18.844300 -23.225000 -26.831000
H -18.729400 -22.654900 -24.925300
H -18.702900 -28.534400 -25.238800
C -18.254700 -29.428900 -26.979800
H -18.165900 -22.674600 -27.147600
C -18.101700 -29.114700 -25.648500
H -17.462200 -30.526400 -28.455400
C -17.366600 -30.298700 -27.558800
C -17.066900 -29.650200 -24.917300
H -16.967400 -29.427200 -24.019400
C -16.337900 -30.834700 -26.824400
C -16.194100 -30.502200 -25.507500
H -15.740000 -31.425000 -27.223800
H -15.493200 -30.862600 -25.013600
74
Fragment
H -14.073800 -28.129400 -26.950200
H -13.827000 -27.567000 -24.740000
C -13.372900 -28.489800 -26.456300
C -13.229100 -28.157300 -25.139400
H -12.599600 -29.564800 -27.944400
C -12.500200 -29.341800 -27.046500
C -12.200400 -28.693300 -24.405000
H -12.104800 -28.465600 -23.508400
C -11.465300 -29.877300 -26.315300
H -11.401200 -36.317400 -24.816200
C -11.312300 -29.563100 -24.984000
H -10.864100 -30.457600 -26.725000
H -10.837600 -36.337100 -27.038500
C -10.722700 -35.767000 -25.132800
C -10.384200 -35.775300 -26.451000
H -10.304100 -32.018900 -24.998000
H -10.274800 -34.925200 -23.376800
C -10.227000 -30.156100 -24.200200
C -10.048300 -34.935700 -24.278200
C -9.836300 -31.444900 -24.394600
N -9.648000 -29.360100 -23.284300
C -9.404800 -34.981500 -26.913400
H -9.184500 -35.005900 -27.816200
C -9.055600 -34.127300 -24.725200
C -8.804900 -31.987200 -23.651300
C -8.713700 -34.126500 -26.067500
N -8.665100 -29.859600 -22.540500
N -8.387700 -33.251000 -23.822300
C -8.263000 -31.089400 -22.702500
N -7.785600 -33.272700 -26.551600
H -7.703800 -33.639200 -23.309200
F -7.563200 -32.485100 -20.989400
H -7.429900 -33.419000 -27.362400
H -7.283300 -32.878200 -26.020000
C -7.172700 -31.508200 -21.789800
F -6.705400 -30.558100 -21.053500
F -6.150800 -32.025400 -22.450800
F -23.416200 -26.966600 -29.513000
F -22.861600 -28.433900 -30.910300
C -22.394400 -27.483800 -30.174000
H -22.283700 -26.113800 -25.943800
H -22.137100 -25.573000 -24.601400
F -22.003900 -26.506900 -30.974400
H -21.863200 -25.352800 -28.654600
N -21.781400 -25.719300 -25.412200
C -21.304000 -27.902600 -29.261300
N -21.179300 -25.741000 -28.141500
N -20.902000 -29.132400 -29.423300
C -20.853300 -24.865500 -25.896300
C -20.762100 -27.004800 -28.312500
C -20.511400 -24.864700 -27.238600
H -20.382500 -23.986100 -24.147600
C -20.162200 -24.010500 -25.050400
N -19.919000 -29.631900 -28.679500
C -19.730700 -27.547100 -27.569200
C -19.518700 -24.056300 -27.685600
C -19.340000 -28.835900 -27.763600
H -19.292200 -24.066800 -28.587000
H -19.262900 -26.973100 -26.965700
C -19.182800 -23.216700 -25.512800
C -18.844300 -23.225000 -26.831000
H -18.729400 -22.654900 -24.925300
H -18.702900 -28.534400 -25.238800
C -18.254700 -29.428900 -26.979800
H -18.165900 -22.674600 -27.147600
C -18.101700 -29.114700 -25.648500
H -17.462200 -30.526400 -28.455400
C -17.366600 -30.298700 -27.558800
C -17.066900 -29.650200 -24.917300
H -16.967400 -29.427200 -24.019400
C -16.337900 -30.834700 -26.824400
C -16.194100 -30.502200 -25.507500
H -15.740000 -31.425000 -27.223800
H -15.493200 -30.862600 -25.013600
