51
Fragment
H -10.992800 -10.965600 -11.709900
C -10.059900 -11.057900 -11.501600
H -9.961400 -11.577100 -10.700000
H -9.792600 -15.983100 -13.261900
H -9.758400 -16.357500 -10.948500
H -9.695700 -17.722800 -11.715100
H -9.673900 -10.189100 -11.369000
H -9.444100 -12.988800 -16.309500
O -9.386200 -11.723200 -12.592400
C -9.224500 -16.908700 -11.524600
H -9.206900 -13.785100 -14.095700
H -9.032700 -15.210600 -16.310500
C -8.949300 -16.169000 -12.820200
H -8.734100 -13.211100 -17.688500
H -8.606400 -14.370900 -11.868200
C -8.602700 -13.231200 -16.727600
H -8.429300 -16.741800 -13.405600
H -8.392700 -17.114300 -11.090100
C -8.270900 -13.971500 -13.874600
C -8.234600 -14.658900 -16.307700
C -8.196300 -14.854700 -12.615800
C -8.083400 -11.923100 -12.443100
H -8.056000 -7.316300 -17.973800
H -7.998000 -8.935500 -19.605600
C -7.993100 -8.210500 -17.725600
H -7.981000 -7.882400 -15.709600
C -7.947800 -8.538400 -16.367900
C -7.946400 -9.181800 -18.709900
C -7.851200 -9.879500 -16.046000
C -7.822300 -10.524000 -18.367500
N -7.792300 -10.449600 -14.726400
H -7.778000 -11.181000 -19.024600
C -7.766200 -10.859300 -17.024200
C -7.638500 -11.714100 -14.869000
N -7.634100 -14.684700 -14.977900
H -7.610600 -15.031800 -16.949200
C -7.545400 -12.189900 -16.351000
C -7.496600 -12.631000 -13.669900
O -7.468100 -11.632400 -11.452200
C -6.706000 -15.094900 -12.291500
H -6.540900 -16.044400 -12.182800
H -6.473100 -14.648500 -11.462400
C -6.367000 -15.071500 -14.764000
O -6.266600 -12.728100 -16.656900
C -5.996700 -13.012400 -13.462500
C -5.850500 -14.545500 -13.436000
O -5.703200 -15.754600 -15.561000
H -5.690100 -12.164900 -16.507700
H -5.676500 -12.638100 -12.626400
H -5.462800 -12.645000 -14.183800
H -4.911500 -14.796700 -13.311200
6
Fragment
N -7.219800 -13.967800 -19.890600
C -6.173200 -14.099900 -19.455100
H -4.910200 -14.593200 -18.002100
C -4.843000 -14.279000 -18.906100
H -4.376300 -13.440300 -18.919700
H -4.363500 -14.921100 -19.434600
57
Fragment
H -10.992800 -10.965600 -11.709900
C -10.059900 -11.057900 -11.501600
H -9.961400 -11.577100 -10.700000
H -9.792600 -15.983100 -13.261900
H -9.758400 -16.357500 -10.948500
H -9.695700 -17.722800 -11.715100
H -9.673900 -10.189100 -11.369000
H -9.444100 -12.988800 -16.309500
O -9.386200 -11.723200 -12.592400
C -9.224500 -16.908700 -11.524600
H -9.206900 -13.785100 -14.095700
H -9.032700 -15.210600 -16.310500
C -8.949300 -16.169000 -12.820200
H -8.734100 -13.211100 -17.688500
H -8.606400 -14.370900 -11.868200
C -8.602700 -13.231200 -16.727600
H -8.429300 -16.741800 -13.405600
H -8.392700 -17.114300 -11.090100
C -8.270900 -13.971500 -13.874600
C -8.234600 -14.658900 -16.307700
C -8.196300 -14.854700 -12.615800
C -8.083400 -11.923100 -12.443100
H -8.056000 -7.316300 -17.973800
H -7.998000 -8.935500 -19.605600
C -7.993100 -8.210500 -17.725600
H -7.981000 -7.882400 -15.709600
C -7.947800 -8.538400 -16.367900
C -7.946400 -9.181800 -18.709900
C -7.851200 -9.879500 -16.046000
C -7.822300 -10.524000 -18.367500
N -7.792300 -10.449600 -14.726400
H -7.778000 -11.181000 -19.024600
C -7.766200 -10.859300 -17.024200
C -7.638500 -11.714100 -14.869000
N -7.634100 -14.684700 -14.977900
H -7.610600 -15.031800 -16.949200
C -7.545400 -12.189900 -16.351000
C -7.496600 -12.631000 -13.669900
O -7.468100 -11.632400 -11.452200
C -6.706000 -15.094900 -12.291500
H -6.540900 -16.044400 -12.182800
H -6.473100 -14.648500 -11.462400
C -6.367000 -15.071500 -14.764000
O -6.266600 -12.728100 -16.656900
C -5.996700 -13.012400 -13.462500
C -5.850500 -14.545500 -13.436000
O -5.703200 -15.754600 -15.561000
H -5.690100 -12.164900 -16.507700
H -5.676500 -12.638100 -12.626400
H -5.462800 -12.645000 -14.183800
H -4.911500 -14.796700 -13.311200
N -7.219800 -13.967800 -19.890600
C -6.173200 -14.099900 -19.455100
H -4.910200 -14.593200 -18.002100
C -4.843000 -14.279000 -18.906100
H -4.376300 -13.440300 -18.919700
H -4.363500 -14.921100 -19.434600
