51
Fragment
H -10.992800 -10.965600 -11.709900
C -10.059900 -11.057900 -11.501600
H -9.961400 -11.577100 -10.700000
H -9.792600 -15.983100 -13.261900
H -9.758400 -16.357500 -10.948500
H -9.695700 -17.722800 -11.715100
H -9.673900 -10.189100 -11.369000
H -9.444100 -12.988800 -16.309500
O -9.386200 -11.723200 -12.592400
C -9.224500 -16.908700 -11.524600
H -9.206900 -13.785100 -14.095700
H -9.032700 -15.210600 -16.310500
C -8.949300 -16.169000 -12.820200
H -8.734100 -13.211100 -17.688500
H -8.606400 -14.370900 -11.868200
C -8.602700 -13.231200 -16.727600
H -8.429300 -16.741800 -13.405600
H -8.392700 -17.114300 -11.090100
C -8.270900 -13.971500 -13.874600
C -8.234600 -14.658900 -16.307700
C -8.196300 -14.854700 -12.615800
C -8.083400 -11.923100 -12.443100
H -8.056000 -7.316300 -17.973800
H -7.998000 -8.935500 -19.605600
C -7.993100 -8.210500 -17.725600
H -7.981000 -7.882400 -15.709600
C -7.947800 -8.538400 -16.367900
C -7.946400 -9.181800 -18.709900
C -7.851200 -9.879500 -16.046000
C -7.822300 -10.524000 -18.367500
N -7.792300 -10.449600 -14.726400
H -7.778000 -11.181000 -19.024600
C -7.766200 -10.859300 -17.024200
C -7.638500 -11.714100 -14.869000
N -7.634100 -14.684700 -14.977900
H -7.610600 -15.031800 -16.949200
C -7.545400 -12.189900 -16.351000
C -7.496600 -12.631000 -13.669900
O -7.468100 -11.632400 -11.452200
C -6.706000 -15.094900 -12.291500
H -6.540900 -16.044400 -12.182800
H -6.473100 -14.648500 -11.462400
C -6.367000 -15.071500 -14.764000
O -6.266600 -12.728100 -16.656900
C -5.996700 -13.012400 -13.462500
C -5.850500 -14.545500 -13.436000
O -5.703200 -15.754600 -15.561000
H -5.690100 -12.164900 -16.507700
H -5.676500 -12.638100 -12.626400
H -5.462800 -12.645000 -14.183800
H -4.911500 -14.796700 -13.311200
51
Fragment
H -7.654600 -10.965600 -22.196900
C -6.721700 -11.057900 -21.988700
H -6.623200 -11.577100 -21.187000
H -6.454400 -15.983100 -23.749000
H -6.420200 -16.357500 -21.435600
H -6.357500 -17.722800 -22.202200
H -6.335700 -10.189100 -21.856100
H -6.105900 -12.988800 -26.796600
O -6.048000 -11.723200 -23.079500
C -5.886300 -16.908700 -22.011600
H -5.868700 -13.785100 -24.582700
H -5.694500 -15.210600 -26.797600
C -5.611100 -16.169000 -23.307300
H -5.395900 -13.211100 -28.175600
H -5.268200 -14.370900 -22.355300
C -5.264500 -13.231200 -27.214700
H -5.091100 -16.741800 -23.892700
H -5.054500 -17.114300 -21.577100
C -4.932700 -13.971500 -24.361700
C -4.896400 -14.658900 -26.794800
C -4.858100 -14.854700 -23.102900
C -4.745200 -11.923100 -22.930200
H -4.717800 -7.316300 -28.460800
H -4.659800 -8.935500 -30.092600
C -4.654900 -8.210500 -28.212600
H -4.642800 -7.882400 -26.196700
C -4.609600 -8.538400 -26.855000
C -4.608200 -9.181800 -29.196900
C -4.513000 -9.879500 -26.533100
C -4.484100 -10.524000 -28.854500
N -4.454100 -10.449600 -25.213400
H -4.439800 -11.181000 -29.511700
C -4.428000 -10.859300 -27.511200
C -4.300300 -11.714100 -25.356000
N -4.295900 -14.684700 -25.465000
H -4.272400 -15.031800 -27.436300
C -4.207200 -12.189900 -26.838100
C -4.158400 -12.631000 -24.157000
O -4.129900 -11.632400 -21.939300
C -3.367800 -15.094900 -22.778500
H -3.202700 -16.044400 -22.669900
H -3.134900 -14.648500 -21.949400
C -3.028800 -15.071500 -25.251100
O -2.928400 -12.728100 -27.144000
C -2.658500 -13.012400 -23.949500
C -2.512300 -14.545500 -23.923100
O -2.365000 -15.754600 -26.048100
H -2.351900 -12.164900 -26.994800
H -2.338300 -12.638100 -23.113500
H -2.124600 -12.645000 -24.670800
H -1.573300 -14.796700 -23.798300
102
Fragment
H -10.992800 -10.965600 -11.709900
C -10.059900 -11.057900 -11.501600
H -9.961400 -11.577100 -10.700000
H -9.792600 -15.983100 -13.261900
H -9.758400 -16.357500 -10.948500
H -9.695700 -17.722800 -11.715100
H -9.673900 -10.189100 -11.369000
H -9.444100 -12.988800 -16.309500
O -9.386200 -11.723200 -12.592400
C -9.224500 -16.908700 -11.524600
H -9.206900 -13.785100 -14.095700
H -9.032700 -15.210600 -16.310500
C -8.949300 -16.169000 -12.820200
H -8.734100 -13.211100 -17.688500
H -8.606400 -14.370900 -11.868200
C -8.602700 -13.231200 -16.727600
H -8.429300 -16.741800 -13.405600
H -8.392700 -17.114300 -11.090100
C -8.270900 -13.971500 -13.874600
C -8.234600 -14.658900 -16.307700
C -8.196300 -14.854700 -12.615800
C -8.083400 -11.923100 -12.443100
H -8.056000 -7.316300 -17.973800
H -7.998000 -8.935500 -19.605600
C -7.993100 -8.210500 -17.725600
H -7.981000 -7.882400 -15.709600
C -7.947800 -8.538400 -16.367900
C -7.946400 -9.181800 -18.709900
C -7.851200 -9.879500 -16.046000
C -7.822300 -10.524000 -18.367500
N -7.792300 -10.449600 -14.726400
H -7.778000 -11.181000 -19.024600
C -7.766200 -10.859300 -17.024200
C -7.638500 -11.714100 -14.869000
N -7.634100 -14.684700 -14.977900
H -7.610600 -15.031800 -16.949200
C -7.545400 -12.189900 -16.351000
C -7.496600 -12.631000 -13.669900
O -7.468100 -11.632400 -11.452200
C -6.706000 -15.094900 -12.291500
H -6.540900 -16.044400 -12.182800
H -6.473100 -14.648500 -11.462400
C -6.367000 -15.071500 -14.764000
O -6.266600 -12.728100 -16.656900
C -5.996700 -13.012400 -13.462500
C -5.850500 -14.545500 -13.436000
O -5.703200 -15.754600 -15.561000
H -5.690100 -12.164900 -16.507700
H -5.676500 -12.638100 -12.626400
H -5.462800 -12.645000 -14.183800
H -4.911500 -14.796700 -13.311200
H -7.654600 -10.965600 -22.196900
C -6.721700 -11.057900 -21.988700
H -6.623200 -11.577100 -21.187000
H -6.454400 -15.983100 -23.749000
H -6.420200 -16.357500 -21.435600
H -6.357500 -17.722800 -22.202200
H -6.335700 -10.189100 -21.856100
H -6.105900 -12.988800 -26.796600
O -6.048000 -11.723200 -23.079500
C -5.886300 -16.908700 -22.011600
H -5.868700 -13.785100 -24.582700
H -5.694500 -15.210600 -26.797600
C -5.611100 -16.169000 -23.307300
H -5.395900 -13.211100 -28.175600
H -5.268200 -14.370900 -22.355300
C -5.264500 -13.231200 -27.214700
H -5.091100 -16.741800 -23.892700
H -5.054500 -17.114300 -21.577100
C -4.932700 -13.971500 -24.361700
C -4.896400 -14.658900 -26.794800
C -4.858100 -14.854700 -23.102900
C -4.745200 -11.923100 -22.930200
H -4.717800 -7.316300 -28.460800
H -4.659800 -8.935500 -30.092600
C -4.654900 -8.210500 -28.212600
H -4.642800 -7.882400 -26.196700
C -4.609600 -8.538400 -26.855000
C -4.608200 -9.181800 -29.196900
C -4.513000 -9.879500 -26.533100
C -4.484100 -10.524000 -28.854500
N -4.454100 -10.449600 -25.213400
H -4.439800 -11.181000 -29.511700
C -4.428000 -10.859300 -27.511200
C -4.300300 -11.714100 -25.356000
N -4.295900 -14.684700 -25.465000
H -4.272400 -15.031800 -27.436300
C -4.207200 -12.189900 -26.838100
C -4.158400 -12.631000 -24.157000
O -4.129900 -11.632400 -21.939300
C -3.367800 -15.094900 -22.778500
H -3.202700 -16.044400 -22.669900
H -3.134900 -14.648500 -21.949400
C -3.028800 -15.071500 -25.251100
O -2.928400 -12.728100 -27.144000
C -2.658500 -13.012400 -23.949500
C -2.512300 -14.545500 -23.923100
O -2.365000 -15.754600 -26.048100
H -2.351900 -12.164900 -26.994800
H -2.338300 -12.638100 -23.113500
H -2.124600 -12.645000 -24.670800
H -1.573300 -14.796700 -23.798300
