51
Fragment
H -10.992800 -10.965600 -11.709900
C -10.059900 -11.057900 -11.501600
H -9.961400 -11.577100 -10.700000
H -9.792600 -15.983100 -13.261900
H -9.758400 -16.357500 -10.948500
H -9.695700 -17.722800 -11.715100
H -9.673900 -10.189100 -11.369000
H -9.444100 -12.988800 -16.309500
O -9.386200 -11.723200 -12.592400
C -9.224500 -16.908700 -11.524600
H -9.206900 -13.785100 -14.095700
H -9.032700 -15.210600 -16.310500
C -8.949300 -16.169000 -12.820200
H -8.734100 -13.211100 -17.688500
H -8.606400 -14.370900 -11.868200
C -8.602700 -13.231200 -16.727600
H -8.429300 -16.741800 -13.405600
H -8.392700 -17.114300 -11.090100
C -8.270900 -13.971500 -13.874600
C -8.234600 -14.658900 -16.307700
C -8.196300 -14.854700 -12.615800
C -8.083400 -11.923100 -12.443100
H -8.056000 -7.316300 -17.973800
H -7.998000 -8.935500 -19.605600
C -7.993100 -8.210500 -17.725600
H -7.981000 -7.882400 -15.709600
C -7.947800 -8.538400 -16.367900
C -7.946400 -9.181800 -18.709900
C -7.851200 -9.879500 -16.046000
C -7.822300 -10.524000 -18.367500
N -7.792300 -10.449600 -14.726400
H -7.778000 -11.181000 -19.024600
C -7.766200 -10.859300 -17.024200
C -7.638500 -11.714100 -14.869000
N -7.634100 -14.684700 -14.977900
H -7.610600 -15.031800 -16.949200
C -7.545400 -12.189900 -16.351000
C -7.496600 -12.631000 -13.669900
O -7.468100 -11.632400 -11.452200
C -6.706000 -15.094900 -12.291500
H -6.540900 -16.044400 -12.182800
H -6.473100 -14.648500 -11.462400
C -6.367000 -15.071500 -14.764000
O -6.266600 -12.728100 -16.656900
C -5.996700 -13.012400 -13.462500
C -5.850500 -14.545500 -13.436000
O -5.703200 -15.754600 -15.561000
H -5.690100 -12.164900 -16.507700
H -5.676500 -12.638100 -12.626400
H -5.462800 -12.645000 -14.183800
H -4.911500 -14.796700 -13.311200
51
Fragment
H -15.294100 -9.857200 -18.150000
H -14.742800 -7.705600 -17.277400
H -14.529100 -7.698700 -18.834800
H -14.515500 -7.225400 -14.953500
O -14.502400 -10.815200 -15.900200
C -14.355100 -9.606100 -18.025200
C -14.208900 -8.073000 -17.998700
O -13.939000 -7.788600 -14.804300
C -13.838600 -10.132000 -16.697200
H -13.732500 -9.709000 -19.998800
H -13.664700 -11.104900 -19.278400
C -13.499600 -10.155400 -19.169700
O -12.737500 -6.693000 -20.009000
C -12.709000 -7.691500 -17.791300
C -12.660200 -7.250400 -15.110200
H -12.595000 -10.092300 -14.512000
N -12.571500 -9.745300 -16.483300
C -12.567100 -6.774700 -16.592200
C -12.439400 -5.919900 -14.437000
H -12.427600 -6.241500 -12.436600
N -12.413300 -5.510200 -16.734800
C -12.383300 -5.584600 -13.093700
C -12.354400 -4.940100 -15.415100
C -12.259200 -4.242300 -12.751300
C -12.257800 -3.598900 -15.093300
H -12.224600 -2.942900 -15.751600
C -12.212500 -3.271000 -13.735600
H -12.207600 -3.996000 -11.855600
H -12.149600 -2.376900 -13.487400
C -12.122200 -6.983600 -19.018100
C -12.009300 -9.915300 -18.845400
C -11.971000 -9.719500 -15.153500
C -11.934700 -9.032000 -17.586600
H -11.812900 -12.174800 -20.371100
H -11.776300 -11.802400 -18.055600
C -11.602900 -8.291800 -14.733600
H -11.599200 -9.431400 -19.593000
H -11.471500 -8.271600 -13.772700
C -11.256300 -11.229600 -18.641000
H -11.172900 -10.271100 -15.150700
H -10.998700 -8.845600 -17.365500
C -10.981100 -11.969200 -19.936600
O -10.819400 -6.783800 -18.868700
H -10.761500 -8.049400 -15.151700
H -10.531700 -5.249700 -20.092200
H -10.509900 -12.783300 -19.746100
H -10.447200 -11.418100 -20.512700
H -10.413000 -11.043700 -18.199300
H -10.244200 -6.637700 -20.761200
C -10.145700 -6.118400 -19.959600
H -9.212800 -6.026100 -19.751300
102
Fragment
H -10.992800 -10.965600 -11.709900
C -10.059900 -11.057900 -11.501600
H -9.961400 -11.577100 -10.700000
H -9.792600 -15.983100 -13.261900
H -9.758400 -16.357500 -10.948500
H -9.695700 -17.722800 -11.715100
H -9.673900 -10.189100 -11.369000
H -9.444100 -12.988800 -16.309500
O -9.386200 -11.723200 -12.592400
C -9.224500 -16.908700 -11.524600
H -9.206900 -13.785100 -14.095700
H -9.032700 -15.210600 -16.310500
C -8.949300 -16.169000 -12.820200
H -8.734100 -13.211100 -17.688500
H -8.606400 -14.370900 -11.868200
C -8.602700 -13.231200 -16.727600
H -8.429300 -16.741800 -13.405600
H -8.392700 -17.114300 -11.090100
C -8.270900 -13.971500 -13.874600
C -8.234600 -14.658900 -16.307700
C -8.196300 -14.854700 -12.615800
C -8.083400 -11.923100 -12.443100
H -8.056000 -7.316300 -17.973800
H -7.998000 -8.935500 -19.605600
C -7.993100 -8.210500 -17.725600
H -7.981000 -7.882400 -15.709600
C -7.947800 -8.538400 -16.367900
C -7.946400 -9.181800 -18.709900
C -7.851200 -9.879500 -16.046000
C -7.822300 -10.524000 -18.367500
N -7.792300 -10.449600 -14.726400
H -7.778000 -11.181000 -19.024600
C -7.766200 -10.859300 -17.024200
C -7.638500 -11.714100 -14.869000
N -7.634100 -14.684700 -14.977900
H -7.610600 -15.031800 -16.949200
C -7.545400 -12.189900 -16.351000
C -7.496600 -12.631000 -13.669900
O -7.468100 -11.632400 -11.452200
C -6.706000 -15.094900 -12.291500
H -6.540900 -16.044400 -12.182800
H -6.473100 -14.648500 -11.462400
C -6.367000 -15.071500 -14.764000
O -6.266600 -12.728100 -16.656900
C -5.996700 -13.012400 -13.462500
C -5.850500 -14.545500 -13.436000
O -5.703200 -15.754600 -15.561000
H -5.690100 -12.164900 -16.507700
H -5.676500 -12.638100 -12.626400
H -5.462800 -12.645000 -14.183800
H -4.911500 -14.796700 -13.311200
H -15.294100 -9.857200 -18.150000
H -14.742800 -7.705600 -17.277400
H -14.529100 -7.698700 -18.834800
H -14.515500 -7.225400 -14.953500
O -14.502400 -10.815200 -15.900200
C -14.355100 -9.606100 -18.025200
C -14.208900 -8.073000 -17.998700
O -13.939000 -7.788600 -14.804300
C -13.838600 -10.132000 -16.697200
H -13.732500 -9.709000 -19.998800
H -13.664700 -11.104900 -19.278400
C -13.499600 -10.155400 -19.169700
O -12.737500 -6.693000 -20.009000
C -12.709000 -7.691500 -17.791300
C -12.660200 -7.250400 -15.110200
H -12.595000 -10.092300 -14.512000
N -12.571500 -9.745300 -16.483300
C -12.567100 -6.774700 -16.592200
C -12.439400 -5.919900 -14.437000
H -12.427600 -6.241500 -12.436600
N -12.413300 -5.510200 -16.734800
C -12.383300 -5.584600 -13.093700
C -12.354400 -4.940100 -15.415100
C -12.259200 -4.242300 -12.751300
C -12.257800 -3.598900 -15.093300
H -12.224600 -2.942900 -15.751600
C -12.212500 -3.271000 -13.735600
H -12.207600 -3.996000 -11.855600
H -12.149600 -2.376900 -13.487400
C -12.122200 -6.983600 -19.018100
C -12.009300 -9.915300 -18.845400
C -11.971000 -9.719500 -15.153500
C -11.934700 -9.032000 -17.586600
H -11.812900 -12.174800 -20.371100
H -11.776300 -11.802400 -18.055600
C -11.602900 -8.291800 -14.733600
H -11.599200 -9.431400 -19.593000
H -11.471500 -8.271600 -13.772700
C -11.256300 -11.229600 -18.641000
H -11.172900 -10.271100 -15.150700
H -10.998700 -8.845600 -17.365500
C -10.981100 -11.969200 -19.936600
O -10.819400 -6.783800 -18.868700
H -10.761500 -8.049400 -15.151700
H -10.531700 -5.249700 -20.092200
H -10.509900 -12.783300 -19.746100
H -10.447200 -11.418100 -20.512700
H -10.413000 -11.043700 -18.199300
H -10.244200 -6.637700 -20.761200
C -10.145700 -6.118400 -19.959600
H -9.212800 -6.026100 -19.751300
