30
Fragment
N -23.353800 -10.908000 -20.999800
Cl -23.232600 -10.940700 -28.702700
C -22.502300 -11.278800 -21.661700
H -22.439600 -11.282400 -26.045800
C -21.780600 -11.513500 -27.946400
C -21.702400 -11.560300 -26.576400
N -21.486900 -11.656100 -23.789000
C -21.382400 -11.760500 -22.470300
H -20.762300 -11.875700 -29.680400
C -20.697600 -11.912400 -28.732500
C -20.520900 -12.021800 -25.963600
C -20.434700 -12.091700 -24.511500
N -20.296000 -12.592100 -19.283900
C -20.258000 -12.327800 -21.859600
C -20.243200 -12.495600 -20.422300
C -19.532800 -12.359500 -28.142600
C -19.408200 -12.422200 -26.744300
C -19.269400 -12.604300 -23.894700
N -19.204500 -12.750500 -22.555500
H -18.804100 -12.628800 -28.689100
C -18.173900 -12.879400 -26.100600
C -18.113700 -12.980900 -24.689800
H -17.029900 -13.142900 -27.782200
C -17.010000 -13.207700 -26.835000
C -16.925500 -13.418600 -24.068900
H -16.888500 -13.502900 -23.123700
C -15.855000 -13.616600 -26.219100
C -15.822500 -13.722500 -24.826400
H -15.084400 -13.825400 -26.734200
Cl -14.352300 -14.262300 -24.067000
30
Fragment
Cl -17.336300 -10.662300 -18.955500
H -16.604100 -10.225400 -16.288300
C -15.866000 -10.122500 -18.196100
C -15.833600 -10.016600 -16.803400
H -14.800000 -9.902900 -19.898800
C -14.763000 -9.818600 -18.953700
C -14.678500 -9.607700 -16.187500
H -14.658600 -9.542900 -15.240300
C -13.574800 -9.380900 -18.332800
C -13.514600 -9.279400 -16.922000
H -12.884400 -9.028800 -14.333400
N -12.484000 -9.150500 -20.467000
C -12.419200 -9.004300 -19.127800
C -12.280300 -8.822200 -16.278200
C -12.155700 -8.759500 -14.879900
C -11.445300 -8.895600 -22.600200
C -11.430500 -8.727800 -21.162900
N -11.392500 -8.992100 -23.738600
C -11.253800 -8.491700 -18.511000
C -11.167600 -8.421800 -17.058900
C -10.991000 -8.312400 -14.290000
H -10.926200 -8.275700 -13.342100
C -10.306100 -8.160500 -20.552200
N -10.201600 -8.056100 -19.233500
C -9.986100 -7.960300 -16.446100
C -9.907900 -7.913500 -15.076100
H -9.249000 -7.682400 -16.976700
C -9.186200 -7.678800 -21.360900
Cl -8.456000 -7.340700 -14.319800
N -8.334700 -7.308000 -22.022700
60
Fragment
N -23.353800 -10.908000 -20.999800
Cl -23.232600 -10.940700 -28.702700
C -22.502300 -11.278800 -21.661700
H -22.439600 -11.282400 -26.045800
C -21.780600 -11.513500 -27.946400
C -21.702400 -11.560300 -26.576400
N -21.486900 -11.656100 -23.789000
C -21.382400 -11.760500 -22.470300
H -20.762300 -11.875700 -29.680400
C -20.697600 -11.912400 -28.732500
C -20.520900 -12.021800 -25.963600
C -20.434700 -12.091700 -24.511500
N -20.296000 -12.592100 -19.283900
C -20.258000 -12.327800 -21.859600
C -20.243200 -12.495600 -20.422300
C -19.532800 -12.359500 -28.142600
C -19.408200 -12.422200 -26.744300
C -19.269400 -12.604300 -23.894700
N -19.204500 -12.750500 -22.555500
H -18.804100 -12.628800 -28.689100
C -18.173900 -12.879400 -26.100600
C -18.113700 -12.980900 -24.689800
H -17.029900 -13.142900 -27.782200
C -17.010000 -13.207700 -26.835000
C -16.925500 -13.418600 -24.068900
H -16.888500 -13.502900 -23.123700
C -15.855000 -13.616600 -26.219100
C -15.822500 -13.722500 -24.826400
H -15.084400 -13.825400 -26.734200
Cl -14.352300 -14.262300 -24.067000
Cl -17.336300 -10.662300 -18.955500
H -16.604100 -10.225400 -16.288300
C -15.866000 -10.122500 -18.196100
C -15.833600 -10.016600 -16.803400
H -14.800000 -9.902900 -19.898800
C -14.763000 -9.818600 -18.953700
C -14.678500 -9.607700 -16.187500
H -14.658600 -9.542900 -15.240300
C -13.574800 -9.380900 -18.332800
C -13.514600 -9.279400 -16.922000
H -12.884400 -9.028800 -14.333400
N -12.484000 -9.150500 -20.467000
C -12.419200 -9.004300 -19.127800
C -12.280300 -8.822200 -16.278200
C -12.155700 -8.759500 -14.879900
C -11.445300 -8.895600 -22.600200
C -11.430500 -8.727800 -21.162900
N -11.392500 -8.992100 -23.738600
C -11.253800 -8.491700 -18.511000
C -11.167600 -8.421800 -17.058900
C -10.991000 -8.312400 -14.290000
H -10.926200 -8.275700 -13.342100
C -10.306100 -8.160500 -20.552200
N -10.201600 -8.056100 -19.233500
C -9.986100 -7.960300 -16.446100
C -9.907900 -7.913500 -15.076100
H -9.249000 -7.682400 -16.976700
C -9.186200 -7.678800 -21.360900
Cl -8.456000 -7.340700 -14.319800
N -8.334700 -7.308000 -22.022700
