10
Fragment
H -12.741500 -4.411000 -16.009100
O -12.223600 -6.336800 -17.442000
N -11.914100 -4.643300 -15.971300
C -11.480200 -5.668400 -16.690500
H -11.368900 -4.210300 -15.466600
N -10.185800 -5.997300 -16.609900
H -9.902300 -6.706900 -17.003300
N -9.284300 -5.193600 -15.887900
H -8.821300 -5.679500 -15.337500
H -8.738200 -4.793100 -16.432100
10
Fragment
H -12.741500 0.390300 -16.009100
O -12.223600 -1.535500 -17.442000
N -11.914100 0.158000 -15.971300
C -11.480200 -0.867100 -16.690500
H -11.368900 0.591000 -15.466600
N -10.185800 -1.196000 -16.609900
H -9.902300 -1.905600 -17.003300
N -9.284300 -0.392300 -15.887900
H -8.821300 -0.878200 -15.337500
H -8.738200 0.008200 -16.432100
20
Fragment
H -12.741500 -4.411000 -16.009100
O -12.223600 -6.336800 -17.442000
N -11.914100 -4.643300 -15.971300
C -11.480200 -5.668400 -16.690500
H -11.368900 -4.210300 -15.466600
N -10.185800 -5.997300 -16.609900
H -9.902300 -6.706900 -17.003300
N -9.284300 -5.193600 -15.887900
H -8.821300 -5.679500 -15.337500
H -8.738200 -4.793100 -16.432100
H -12.741500 0.390300 -16.009100
O -12.223600 -1.535500 -17.442000
N -11.914100 0.158000 -15.971300
C -11.480200 -0.867100 -16.690500
H -11.368900 0.591000 -15.466600
N -10.185800 -1.196000 -16.609900
H -9.902300 -1.905600 -17.003300
N -9.284300 -0.392300 -15.887900
H -8.821300 -0.878200 -15.337500
H -8.738200 0.008200 -16.432100
