10
Fragment
H -12.741500 -4.411000 -16.009100
O -12.223600 -6.336800 -17.442000
N -11.914100 -4.643300 -15.971300
C -11.480200 -5.668400 -16.690500
H -11.368900 -4.210300 -15.466600
N -10.185800 -5.997300 -16.609900
H -9.902300 -6.706900 -17.003300
N -9.284300 -5.193600 -15.887900
H -8.821300 -5.679500 -15.337500
H -8.738200 -4.793100 -16.432100
14
Fragment
H -14.912100 -4.382600 -12.266400
N -14.074400 -4.539100 -12.149700
N -13.888300 -6.326700 -13.715500
N -13.688800 -2.855800 -10.502900
C -13.409500 -5.511400 -12.839900
C -13.313100 -3.831000 -11.258500
O -12.800100 -7.125100 -14.093700
O -12.527800 -2.477500 -9.805900
C -12.014800 -5.771600 -12.641100
C -11.918400 -4.091200 -11.059600
N -11.639100 -6.746800 -13.396600
N -11.439700 -3.275900 -10.184100
N -11.253500 -5.063500 -11.749800
H -10.415900 -5.220000 -11.633100
24
Fragment
H -12.741500 -4.411000 -16.009100
O -12.223600 -6.336800 -17.442000
N -11.914100 -4.643300 -15.971300
C -11.480200 -5.668400 -16.690500
H -11.368900 -4.210300 -15.466600
N -10.185800 -5.997300 -16.609900
H -9.902300 -6.706900 -17.003300
N -9.284300 -5.193600 -15.887900
H -8.821300 -5.679500 -15.337500
H -8.738200 -4.793100 -16.432100
H -14.912100 -4.382600 -12.266400
N -14.074400 -4.539100 -12.149700
N -13.888300 -6.326700 -13.715500
N -13.688800 -2.855800 -10.502900
C -13.409500 -5.511400 -12.839900
C -13.313100 -3.831000 -11.258500
O -12.800100 -7.125100 -14.093700
O -12.527800 -2.477500 -9.805900
C -12.014800 -5.771600 -12.641100
C -11.918400 -4.091200 -11.059600
N -11.639100 -6.746800 -13.396600
N -11.439700 -3.275900 -10.184100
N -11.253500 -5.063500 -11.749800
H -10.415900 -5.220000 -11.633100
