33
Fragment
H -32.780400 -0.841800 -36.738300
O -32.656900 -0.881500 -35.929600
C -31.484900 -1.523000 -35.679900
H -31.310400 -0.725800 -33.822900
H -31.308100 -2.516000 -37.452700
C -30.910600 -2.377700 -36.622100
C -30.904400 -1.295500 -34.435800
C -29.736500 -1.913300 -34.126000
C -29.731300 -3.009400 -36.279100
H -29.408100 -5.301900 -39.086000
O -29.173500 -3.824400 -37.215500
H -29.140800 -6.181600 -41.671900
O -29.137500 -1.711200 -32.928100
C -29.103900 -2.796200 -35.056700
O -29.098700 -6.803500 -41.138100
C -28.553600 -5.667700 -39.111000
H -28.451600 -2.158200 -32.887200
C -28.180200 -6.500100 -40.147100
C -28.016100 -4.527900 -36.962000
C -27.890100 -3.491600 -34.763000
C -27.632400 -5.380900 -38.100000
C -27.402600 -4.384300 -35.770100
O -27.263500 -3.365800 -33.662700
C -26.913300 -7.056900 -40.211800
O -26.654400 -7.878100 -41.262700
C -26.340600 -5.921100 -38.175600
O -26.295000 -5.129300 -35.445400
H -26.216000 -4.916000 -34.614300
C -25.986100 -6.719200 -39.243600
H -25.887500 -8.161000 -41.205200
H -25.721900 -5.741300 -37.505600
O -24.717000 -7.252700 -39.362900
H -24.183100 -6.736100 -38.871900
24
Fragment
H -26.856800 -6.218200 -44.416500
H -26.715600 -5.989800 -42.872200
H -26.446900 -4.808500 -43.868000
C -26.365400 -5.755600 -43.734300
O -25.319500 -7.459700 -45.598300
N -24.942800 -6.139700 -43.808100
C -24.517700 -6.985500 -44.791200
N -24.283200 -4.726400 -41.933100
C -24.030300 -5.603500 -42.934000
H -23.507800 -8.434900 -46.475500
N -23.173600 -7.295500 -44.840500
C -23.063700 -4.511400 -41.406500
H -22.913700 -3.937300 -40.690400
C -22.744100 -8.185500 -45.948700
C -22.702000 -5.926000 -43.014100
H -22.333000 -8.973700 -45.585500
C -22.164700 -6.829300 -43.976800
H -22.110600 -7.722400 -46.504400
N -22.087100 -5.199700 -42.007700
O -20.997900 -7.194300 -44.078000
C -20.649900 -5.102900 -41.744000
H -20.501700 -4.531000 -40.986300
H -20.298700 -5.977300 -41.556400
H -20.206900 -4.737600 -42.511400
57
Fragment
H -32.780400 -0.841800 -36.738300
O -32.656900 -0.881500 -35.929600
C -31.484900 -1.523000 -35.679900
H -31.310400 -0.725800 -33.822900
H -31.308100 -2.516000 -37.452700
C -30.910600 -2.377700 -36.622100
C -30.904400 -1.295500 -34.435800
C -29.736500 -1.913300 -34.126000
C -29.731300 -3.009400 -36.279100
H -29.408100 -5.301900 -39.086000
O -29.173500 -3.824400 -37.215500
H -29.140800 -6.181600 -41.671900
O -29.137500 -1.711200 -32.928100
C -29.103900 -2.796200 -35.056700
O -29.098700 -6.803500 -41.138100
C -28.553600 -5.667700 -39.111000
H -28.451600 -2.158200 -32.887200
C -28.180200 -6.500100 -40.147100
C -28.016100 -4.527900 -36.962000
C -27.890100 -3.491600 -34.763000
C -27.632400 -5.380900 -38.100000
C -27.402600 -4.384300 -35.770100
O -27.263500 -3.365800 -33.662700
C -26.913300 -7.056900 -40.211800
O -26.654400 -7.878100 -41.262700
C -26.340600 -5.921100 -38.175600
O -26.295000 -5.129300 -35.445400
H -26.216000 -4.916000 -34.614300
C -25.986100 -6.719200 -39.243600
H -25.887500 -8.161000 -41.205200
H -25.721900 -5.741300 -37.505600
O -24.717000 -7.252700 -39.362900
H -24.183100 -6.736100 -38.871900
H -26.856800 -6.218200 -44.416500
H -26.715600 -5.989800 -42.872200
H -26.446900 -4.808500 -43.868000
C -26.365400 -5.755600 -43.734300
O -25.319500 -7.459700 -45.598300
N -24.942800 -6.139700 -43.808100
C -24.517700 -6.985500 -44.791200
N -24.283200 -4.726400 -41.933100
C -24.030300 -5.603500 -42.934000
H -23.507800 -8.434900 -46.475500
N -23.173600 -7.295500 -44.840500
C -23.063700 -4.511400 -41.406500
H -22.913700 -3.937300 -40.690400
C -22.744100 -8.185500 -45.948700
C -22.702000 -5.926000 -43.014100
H -22.333000 -8.973700 -45.585500
C -22.164700 -6.829300 -43.976800
H -22.110600 -7.722400 -46.504400
N -22.087100 -5.199700 -42.007700
O -20.997900 -7.194300 -44.078000
C -20.649900 -5.102900 -41.744000
H -20.501700 -4.531000 -40.986300
H -20.298700 -5.977300 -41.556400
H -20.206900 -4.737600 -42.511400
