33
Fragment
H -32.780400 -0.841800 -36.738300
O -32.656900 -0.881500 -35.929600
C -31.484900 -1.523000 -35.679900
H -31.310400 -0.725800 -33.822900
H -31.308100 -2.516000 -37.452700
C -30.910600 -2.377700 -36.622100
C -30.904400 -1.295500 -34.435800
C -29.736500 -1.913300 -34.126000
C -29.731300 -3.009400 -36.279100
H -29.408100 -5.301900 -39.086000
O -29.173500 -3.824400 -37.215500
H -29.140800 -6.181600 -41.671900
O -29.137500 -1.711200 -32.928100
C -29.103900 -2.796200 -35.056700
O -29.098700 -6.803500 -41.138100
C -28.553600 -5.667700 -39.111000
H -28.451600 -2.158200 -32.887200
C -28.180200 -6.500100 -40.147100
C -28.016100 -4.527900 -36.962000
C -27.890100 -3.491600 -34.763000
C -27.632400 -5.380900 -38.100000
C -27.402600 -4.384300 -35.770100
O -27.263500 -3.365800 -33.662700
C -26.913300 -7.056900 -40.211800
O -26.654400 -7.878100 -41.262700
C -26.340600 -5.921100 -38.175600
O -26.295000 -5.129300 -35.445400
H -26.216000 -4.916000 -34.614300
C -25.986100 -6.719200 -39.243600
H -25.887500 -8.161000 -41.205200
H -25.721900 -5.741300 -37.505600
O -24.717000 -7.252700 -39.362900
H -24.183100 -6.736100 -38.871900
24
Fragment
H -38.127200 -6.968100 -41.679100
H -38.035400 -8.207800 -42.634000
H -37.832500 -6.761500 -43.204100
C -37.684200 -7.333400 -42.446400
O -37.336200 -9.424800 -40.112400
N -36.247000 -7.430200 -42.182800
H -36.223500 -9.952900 -37.686000
C -36.169400 -9.059800 -40.213700
H -36.001100 -11.204200 -38.604900
C -35.632200 -8.156500 -41.176300
C -35.590000 -10.416000 -38.241700
H -35.420400 -6.167800 -43.500000
C -35.270400 -6.741900 -42.783900
N -35.160500 -9.526000 -39.349900
H -34.826400 -10.665400 -37.714900
C -34.303800 -7.834000 -41.256400
N -34.050900 -6.956900 -42.257300
C -33.816400 -9.216000 -39.399200
N -33.391300 -8.370200 -40.382300
O -33.014700 -9.690200 -38.592200
C -31.968700 -7.986100 -40.456200
H -31.887200 -7.039000 -40.322400
H -31.618500 -8.220300 -41.318300
H -31.477300 -8.448700 -39.774000
57
Fragment
H -32.780400 -0.841800 -36.738300
O -32.656900 -0.881500 -35.929600
C -31.484900 -1.523000 -35.679900
H -31.310400 -0.725800 -33.822900
H -31.308100 -2.516000 -37.452700
C -30.910600 -2.377700 -36.622100
C -30.904400 -1.295500 -34.435800
C -29.736500 -1.913300 -34.126000
C -29.731300 -3.009400 -36.279100
H -29.408100 -5.301900 -39.086000
O -29.173500 -3.824400 -37.215500
H -29.140800 -6.181600 -41.671900
O -29.137500 -1.711200 -32.928100
C -29.103900 -2.796200 -35.056700
O -29.098700 -6.803500 -41.138100
C -28.553600 -5.667700 -39.111000
H -28.451600 -2.158200 -32.887200
C -28.180200 -6.500100 -40.147100
C -28.016100 -4.527900 -36.962000
C -27.890100 -3.491600 -34.763000
C -27.632400 -5.380900 -38.100000
C -27.402600 -4.384300 -35.770100
O -27.263500 -3.365800 -33.662700
C -26.913300 -7.056900 -40.211800
O -26.654400 -7.878100 -41.262700
C -26.340600 -5.921100 -38.175600
O -26.295000 -5.129300 -35.445400
H -26.216000 -4.916000 -34.614300
C -25.986100 -6.719200 -39.243600
H -25.887500 -8.161000 -41.205200
H -25.721900 -5.741300 -37.505600
O -24.717000 -7.252700 -39.362900
H -24.183100 -6.736100 -38.871900
H -38.127200 -6.968100 -41.679100
H -38.035400 -8.207800 -42.634000
H -37.832500 -6.761500 -43.204100
C -37.684200 -7.333400 -42.446400
O -37.336200 -9.424800 -40.112400
N -36.247000 -7.430200 -42.182800
H -36.223500 -9.952900 -37.686000
C -36.169400 -9.059800 -40.213700
H -36.001100 -11.204200 -38.604900
C -35.632200 -8.156500 -41.176300
C -35.590000 -10.416000 -38.241700
H -35.420400 -6.167800 -43.500000
C -35.270400 -6.741900 -42.783900
N -35.160500 -9.526000 -39.349900
H -34.826400 -10.665400 -37.714900
C -34.303800 -7.834000 -41.256400
N -34.050900 -6.956900 -42.257300
C -33.816400 -9.216000 -39.399200
N -33.391300 -8.370200 -40.382300
O -33.014700 -9.690200 -38.592200
C -31.968700 -7.986100 -40.456200
H -31.887200 -7.039000 -40.322400
H -31.618500 -8.220300 -41.318300
H -31.477300 -8.448700 -39.774000
