24
Fragment
O -10.076700 -32.721200 -2.297500
N -9.518100 -33.971600 -2.244800
N -9.380000 -31.903100 -3.208400
H -8.697500 -36.296600 -2.119300
C -8.526900 -33.961300 -3.087800
O -8.503700 -38.600500 -4.057000
C -8.428300 -32.665200 -3.690700
H -8.226900 -40.757600 -4.783700
N -8.008800 -36.248500 -2.679000
N -7.656200 -41.332800 -4.615000
H -7.650100 -42.131700 -4.835600
C -7.648100 -35.133800 -3.318700
C -7.530700 -38.480200 -3.318700
H -7.528700 -31.482300 -4.835600
N -7.522600 -32.281200 -4.615000
N -7.170000 -37.365500 -2.679000
H -6.951900 -32.856400 -4.783700
C -6.750500 -40.948800 -3.690700
O -6.675100 -35.013500 -4.057000
C -6.651900 -39.652700 -3.087800
H -6.481300 -37.317400 -2.119300
N -5.798800 -41.710900 -3.208400
N -5.660700 -39.642400 -2.244800
O -5.102100 -40.892800 -2.297500
24
Fragment
O -7.546900 -53.161800 -6.352900
N -6.988300 -51.911400 -6.405600
N -6.850200 -53.979900 -5.442000
H -6.167700 -49.586400 -6.531100
C -5.997100 -51.921700 -5.562600
O -5.973900 -47.282500 -4.593400
C -5.898500 -53.217800 -4.959700
H -5.697100 -45.125400 -3.866700
N -5.479000 -49.634500 -5.971400
N -5.126400 -44.550200 -4.035400
H -5.120300 -43.751300 -3.814800
C -5.118300 -50.749200 -5.331700
C -5.000900 -47.402800 -5.331700
H -4.998900 -54.400700 -3.814800
N -4.992800 -53.601800 -4.035400
N -4.640200 -48.517500 -5.971400
H -4.422100 -53.026600 -3.866700
C -4.220700 -44.934200 -4.959700
O -4.145300 -50.869500 -4.593400
C -4.122100 -46.230300 -5.562600
H -3.951500 -48.565600 -6.531100
N -3.269000 -44.172100 -5.442000
N -3.130900 -46.240600 -6.405600
O -2.572300 -44.990200 -6.352900
48
Fragment
O -10.076700 -32.721200 -2.297500
N -9.518100 -33.971600 -2.244800
N -9.380000 -31.903100 -3.208400
H -8.697500 -36.296600 -2.119300
C -8.526900 -33.961300 -3.087800
O -8.503700 -38.600500 -4.057000
C -8.428300 -32.665200 -3.690700
H -8.226900 -40.757600 -4.783700
N -8.008800 -36.248500 -2.679000
N -7.656200 -41.332800 -4.615000
H -7.650100 -42.131700 -4.835600
C -7.648100 -35.133800 -3.318700
C -7.530700 -38.480200 -3.318700
H -7.528700 -31.482300 -4.835600
N -7.522600 -32.281200 -4.615000
N -7.170000 -37.365500 -2.679000
H -6.951900 -32.856400 -4.783700
C -6.750500 -40.948800 -3.690700
O -6.675100 -35.013500 -4.057000
C -6.651900 -39.652700 -3.087800
H -6.481300 -37.317400 -2.119300
N -5.798800 -41.710900 -3.208400
N -5.660700 -39.642400 -2.244800
O -5.102100 -40.892800 -2.297500
O -7.546900 -53.161800 -6.352900
N -6.988300 -51.911400 -6.405600
N -6.850200 -53.979900 -5.442000
H -6.167700 -49.586400 -6.531100
C -5.997100 -51.921700 -5.562600
O -5.973900 -47.282500 -4.593400
C -5.898500 -53.217800 -4.959700
H -5.697100 -45.125400 -3.866700
N -5.479000 -49.634500 -5.971400
N -5.126400 -44.550200 -4.035400
H -5.120300 -43.751300 -3.814800
C -5.118300 -50.749200 -5.331700
C -5.000900 -47.402800 -5.331700
H -4.998900 -54.400700 -3.814800
N -4.992800 -53.601800 -4.035400
N -4.640200 -48.517500 -5.971400
H -4.422100 -53.026600 -3.866700
C -4.220700 -44.934200 -4.959700
O -4.145300 -50.869500 -4.593400
C -4.122100 -46.230300 -5.562600
H -3.951500 -48.565600 -6.531100
N -3.269000 -44.172100 -5.442000
N -3.130900 -46.240600 -6.405600
O -2.572300 -44.990200 -6.352900
