24
Fragment
O -10.076700 -32.721200 -2.297500
N -9.518100 -33.971600 -2.244800
N -9.380000 -31.903100 -3.208400
H -8.697500 -36.296600 -2.119300
C -8.526900 -33.961300 -3.087800
O -8.503700 -38.600500 -4.057000
C -8.428300 -32.665200 -3.690700
H -8.226900 -40.757600 -4.783700
N -8.008800 -36.248500 -2.679000
N -7.656200 -41.332800 -4.615000
H -7.650100 -42.131700 -4.835600
C -7.648100 -35.133800 -3.318700
C -7.530700 -38.480200 -3.318700
H -7.528700 -31.482300 -4.835600
N -7.522600 -32.281200 -4.615000
N -7.170000 -37.365500 -2.679000
H -6.951900 -32.856400 -4.783700
C -6.750500 -40.948800 -3.690700
O -6.675100 -35.013500 -4.057000
C -6.651900 -39.652700 -3.087800
H -6.481300 -37.317400 -2.119300
N -5.798800 -41.710900 -3.208400
N -5.660700 -39.642400 -2.244800
O -5.102100 -40.892800 -2.297500
24
Fragment
O -5.017100 -32.721200 -2.297500
N -4.458500 -33.971600 -2.244800
N -4.320400 -31.903100 -3.208400
H -3.637900 -36.296600 -2.119300
C -3.467300 -33.961300 -3.087800
O -3.444100 -38.600500 -4.057000
C -3.368700 -32.665200 -3.690700
H -3.167300 -40.757600 -4.783700
N -2.949200 -36.248500 -2.679000
N -2.596600 -41.332800 -4.615000
H -2.590500 -42.131700 -4.835600
C -2.588500 -35.133800 -3.318700
C -2.471100 -38.480200 -3.318700
H -2.469100 -31.482300 -4.835600
N -2.463000 -32.281200 -4.615000
N -2.110400 -37.365500 -2.679000
H -1.892300 -32.856400 -4.783700
C -1.690900 -40.948800 -3.690700
O -1.615500 -35.013500 -4.057000
C -1.592300 -39.652700 -3.087800
H -1.421700 -37.317400 -2.119300
N -0.739200 -41.710900 -3.208400
N -0.601100 -39.642400 -2.244800
O -0.042500 -40.892800 -2.297500
48
Fragment
O -10.076700 -32.721200 -2.297500
N -9.518100 -33.971600 -2.244800
N -9.380000 -31.903100 -3.208400
H -8.697500 -36.296600 -2.119300
C -8.526900 -33.961300 -3.087800
O -8.503700 -38.600500 -4.057000
C -8.428300 -32.665200 -3.690700
H -8.226900 -40.757600 -4.783700
N -8.008800 -36.248500 -2.679000
N -7.656200 -41.332800 -4.615000
H -7.650100 -42.131700 -4.835600
C -7.648100 -35.133800 -3.318700
C -7.530700 -38.480200 -3.318700
H -7.528700 -31.482300 -4.835600
N -7.522600 -32.281200 -4.615000
N -7.170000 -37.365500 -2.679000
H -6.951900 -32.856400 -4.783700
C -6.750500 -40.948800 -3.690700
O -6.675100 -35.013500 -4.057000
C -6.651900 -39.652700 -3.087800
H -6.481300 -37.317400 -2.119300
N -5.798800 -41.710900 -3.208400
N -5.660700 -39.642400 -2.244800
O -5.102100 -40.892800 -2.297500
O -5.017100 -32.721200 -2.297500
N -4.458500 -33.971600 -2.244800
N -4.320400 -31.903100 -3.208400
H -3.637900 -36.296600 -2.119300
C -3.467300 -33.961300 -3.087800
O -3.444100 -38.600500 -4.057000
C -3.368700 -32.665200 -3.690700
H -3.167300 -40.757600 -4.783700
N -2.949200 -36.248500 -2.679000
N -2.596600 -41.332800 -4.615000
H -2.590500 -42.131700 -4.835600
C -2.588500 -35.133800 -3.318700
C -2.471100 -38.480200 -3.318700
H -2.469100 -31.482300 -4.835600
N -2.463000 -32.281200 -4.615000
N -2.110400 -37.365500 -2.679000
H -1.892300 -32.856400 -4.783700
C -1.690900 -40.948800 -3.690700
O -1.615500 -35.013500 -4.057000
C -1.592300 -39.652700 -3.087800
H -1.421700 -37.317400 -2.119300
N -0.739200 -41.710900 -3.208400
N -0.601100 -39.642400 -2.244800
O -0.042500 -40.892800 -2.297500
