32
Fragment
H -13.788600 -30.998300 -24.062700
C -12.876800 -30.771200 -24.200800
H -12.849000 -28.692600 -24.379700
C -12.368800 -29.512300 -24.368700
N -11.841600 -31.626500 -24.268000
H -11.806300 -32.551900 -24.065200
C -10.984200 -29.693500 -24.521200
N -10.658300 -30.991200 -24.456100
N -10.070500 -28.651900 -24.716700
C -8.812900 -28.897100 -24.860400
H -8.611400 -30.890600 -24.694400
H -8.593300 -26.042800 -25.022200
H -8.361400 -34.602000 -24.933100
N -8.195200 -30.134400 -24.865300
C -7.787100 -26.521500 -25.172200
C -7.750700 -27.909900 -25.113400
N -7.664800 -32.738900 -24.936800
N -7.634700 -34.081700 -25.076900
C -6.846800 -30.047700 -25.169800
C -6.600500 -25.860600 -25.458300
H -6.596400 -24.911700 -25.503900
C -6.563100 -28.609200 -25.317000
C -6.463100 -34.509000 -25.557200
C -6.440000 -32.332900 -25.308000
H -6.231200 -35.409100 -25.754700
N -6.013100 -31.003300 -25.362900
C -5.663600 -33.419700 -25.712900
C -5.415400 -26.557800 -25.679700
C -5.376400 -27.942200 -25.610800
H -4.768400 -33.402000 -26.030600
H -4.621300 -26.077300 -25.881200
H -4.568600 -28.419100 -25.759100
32
Fragment
H -15.109800 -41.667500 -26.989000
H -14.392500 -41.565700 -24.587200
C -14.348700 -41.217900 -26.641400
C -13.964500 -41.164000 -25.334100
H -13.483400 -40.408800 -28.217700
N -13.445000 -40.513200 -27.344600
C -12.795200 -40.383500 -25.335200
N -12.469500 -39.981900 -26.572700
N -12.071000 -40.037600 -24.191000
H -11.410300 -36.442700 -29.360900
C -11.276000 -39.027500 -24.190200
H -11.247500 -38.247400 -26.063500
H -11.097300 -39.753600 -21.441000
N -11.045500 -36.073400 -28.650600
N -10.958200 -38.149200 -25.211000
H -10.918100 -34.104200 -29.219900
C -10.753700 -34.766200 -28.558800
N -10.716800 -36.762000 -27.533300
C -10.621300 -38.967400 -21.681300
C -10.577400 -38.528900 -22.995100
C -10.181300 -35.830100 -26.731500
C -10.179000 -34.566800 -27.340700
C -10.148300 -37.114000 -24.774800
H -9.965000 -38.496000 -19.823500
C -9.947300 -38.220100 -20.732400
C -9.879900 -37.368100 -23.354800
H -9.848300 -33.751300 -26.982400
N -9.745900 -36.073400 -25.422200
C -9.246000 -37.072100 -21.083100
C -9.202100 -36.624000 -22.403800
H -8.786500 -36.583300 -20.410200
H -8.725000 -35.837500 -22.641600
64
Fragment
H -13.788600 -30.998300 -24.062700
C -12.876800 -30.771200 -24.200800
H -12.849000 -28.692600 -24.379700
C -12.368800 -29.512300 -24.368700
N -11.841600 -31.626500 -24.268000
H -11.806300 -32.551900 -24.065200
C -10.984200 -29.693500 -24.521200
N -10.658300 -30.991200 -24.456100
N -10.070500 -28.651900 -24.716700
C -8.812900 -28.897100 -24.860400
H -8.611400 -30.890600 -24.694400
H -8.593300 -26.042800 -25.022200
H -8.361400 -34.602000 -24.933100
N -8.195200 -30.134400 -24.865300
C -7.787100 -26.521500 -25.172200
C -7.750700 -27.909900 -25.113400
N -7.664800 -32.738900 -24.936800
N -7.634700 -34.081700 -25.076900
C -6.846800 -30.047700 -25.169800
C -6.600500 -25.860600 -25.458300
H -6.596400 -24.911700 -25.503900
C -6.563100 -28.609200 -25.317000
C -6.463100 -34.509000 -25.557200
C -6.440000 -32.332900 -25.308000
H -6.231200 -35.409100 -25.754700
N -6.013100 -31.003300 -25.362900
C -5.663600 -33.419700 -25.712900
C -5.415400 -26.557800 -25.679700
C -5.376400 -27.942200 -25.610800
H -4.768400 -33.402000 -26.030600
H -4.621300 -26.077300 -25.881200
H -4.568600 -28.419100 -25.759100
H -15.109800 -41.667500 -26.989000
H -14.392500 -41.565700 -24.587200
C -14.348700 -41.217900 -26.641400
C -13.964500 -41.164000 -25.334100
H -13.483400 -40.408800 -28.217700
N -13.445000 -40.513200 -27.344600
C -12.795200 -40.383500 -25.335200
N -12.469500 -39.981900 -26.572700
N -12.071000 -40.037600 -24.191000
H -11.410300 -36.442700 -29.360900
C -11.276000 -39.027500 -24.190200
H -11.247500 -38.247400 -26.063500
H -11.097300 -39.753600 -21.441000
N -11.045500 -36.073400 -28.650600
N -10.958200 -38.149200 -25.211000
H -10.918100 -34.104200 -29.219900
C -10.753700 -34.766200 -28.558800
N -10.716800 -36.762000 -27.533300
C -10.621300 -38.967400 -21.681300
C -10.577400 -38.528900 -22.995100
C -10.181300 -35.830100 -26.731500
C -10.179000 -34.566800 -27.340700
C -10.148300 -37.114000 -24.774800
H -9.965000 -38.496000 -19.823500
C -9.947300 -38.220100 -20.732400
C -9.879900 -37.368100 -23.354800
H -9.848300 -33.751300 -26.982400
N -9.745900 -36.073400 -25.422200
C -9.246000 -37.072100 -21.083100
C -9.202100 -36.624000 -22.403800
H -8.786500 -36.583300 -20.410200
H -8.725000 -35.837500 -22.641600
