32
Fragment
H -13.788600 -30.998300 -24.062700
C -12.876800 -30.771200 -24.200800
H -12.849000 -28.692600 -24.379700
C -12.368800 -29.512300 -24.368700
N -11.841600 -31.626500 -24.268000
H -11.806300 -32.551900 -24.065200
C -10.984200 -29.693500 -24.521200
N -10.658300 -30.991200 -24.456100
N -10.070500 -28.651900 -24.716700
C -8.812900 -28.897100 -24.860400
H -8.611400 -30.890600 -24.694400
H -8.593300 -26.042800 -25.022200
H -8.361400 -34.602000 -24.933100
N -8.195200 -30.134400 -24.865300
C -7.787100 -26.521500 -25.172200
C -7.750700 -27.909900 -25.113400
N -7.664800 -32.738900 -24.936800
N -7.634700 -34.081700 -25.076900
C -6.846800 -30.047700 -25.169800
C -6.600500 -25.860600 -25.458300
H -6.596400 -24.911700 -25.503900
C -6.563100 -28.609200 -25.317000
C -6.463100 -34.509000 -25.557200
C -6.440000 -32.332900 -25.308000
H -6.231200 -35.409100 -25.754700
N -6.013100 -31.003300 -25.362900
C -5.663600 -33.419700 -25.712900
C -5.415400 -26.557800 -25.679700
C -5.376400 -27.942200 -25.610800
H -4.768400 -33.402000 -26.030600
H -4.621300 -26.077300 -25.881200
H -4.568600 -28.419100 -25.759100
32
Fragment
H -19.189800 -27.291800 -21.406100
H -19.137100 -29.633600 -21.283900
H -18.989900 -22.308900 -21.134500
C -18.381900 -27.768700 -21.554300
C -18.342900 -29.153100 -21.485500
C -18.094700 -22.291200 -21.452300
N -17.745200 -24.707600 -21.802200
H -17.527200 -20.301800 -21.410500
C -17.318400 -23.378000 -21.857100
C -17.295200 -21.201900 -21.607900
C -17.195200 -27.101700 -21.848200
H -17.162000 -30.799200 -21.661200
C -17.157900 -29.850300 -21.706800
C -16.911600 -25.663200 -21.995300
N -16.123600 -21.629200 -22.088200
N -16.093500 -22.972000 -22.228300
C -16.007700 -27.801000 -22.051800
C -15.971300 -29.189400 -21.993000
N -15.563100 -25.576500 -22.299800
H -15.396900 -21.108900 -22.232100
H -15.165000 -29.668100 -22.142900
H -15.146900 -24.820300 -22.470700
C -14.945500 -26.813800 -22.304700
N -13.687800 -27.059000 -22.448400
N -13.100100 -24.719700 -22.709100
C -12.774200 -26.017400 -22.644000
H -11.952000 -23.159000 -23.099900
N -11.916700 -24.084400 -22.897100
C -11.389500 -26.198600 -22.796500
H -10.909300 -27.018300 -22.785500
C -10.881500 -24.939700 -22.964400
H -9.969700 -24.712600 -23.102400
64
Fragment
H -13.788600 -30.998300 -24.062700
C -12.876800 -30.771200 -24.200800
H -12.849000 -28.692600 -24.379700
C -12.368800 -29.512300 -24.368700
N -11.841600 -31.626500 -24.268000
H -11.806300 -32.551900 -24.065200
C -10.984200 -29.693500 -24.521200
N -10.658300 -30.991200 -24.456100
N -10.070500 -28.651900 -24.716700
C -8.812900 -28.897100 -24.860400
H -8.611400 -30.890600 -24.694400
H -8.593300 -26.042800 -25.022200
H -8.361400 -34.602000 -24.933100
N -8.195200 -30.134400 -24.865300
C -7.787100 -26.521500 -25.172200
C -7.750700 -27.909900 -25.113400
N -7.664800 -32.738900 -24.936800
N -7.634700 -34.081700 -25.076900
C -6.846800 -30.047700 -25.169800
C -6.600500 -25.860600 -25.458300
H -6.596400 -24.911700 -25.503900
C -6.563100 -28.609200 -25.317000
C -6.463100 -34.509000 -25.557200
C -6.440000 -32.332900 -25.308000
H -6.231200 -35.409100 -25.754700
N -6.013100 -31.003300 -25.362900
C -5.663600 -33.419700 -25.712900
C -5.415400 -26.557800 -25.679700
C -5.376400 -27.942200 -25.610800
H -4.768400 -33.402000 -26.030600
H -4.621300 -26.077300 -25.881200
H -4.568600 -28.419100 -25.759100
H -19.189800 -27.291800 -21.406100
H -19.137100 -29.633600 -21.283900
H -18.989900 -22.308900 -21.134500
C -18.381900 -27.768700 -21.554300
C -18.342900 -29.153100 -21.485500
C -18.094700 -22.291200 -21.452300
N -17.745200 -24.707600 -21.802200
H -17.527200 -20.301800 -21.410500
C -17.318400 -23.378000 -21.857100
C -17.295200 -21.201900 -21.607900
C -17.195200 -27.101700 -21.848200
H -17.162000 -30.799200 -21.661200
C -17.157900 -29.850300 -21.706800
C -16.911600 -25.663200 -21.995300
N -16.123600 -21.629200 -22.088200
N -16.093500 -22.972000 -22.228300
C -16.007700 -27.801000 -22.051800
C -15.971300 -29.189400 -21.993000
N -15.563100 -25.576500 -22.299800
H -15.396900 -21.108900 -22.232100
H -15.165000 -29.668100 -22.142900
H -15.146900 -24.820300 -22.470700
C -14.945500 -26.813800 -22.304700
N -13.687800 -27.059000 -22.448400
N -13.100100 -24.719700 -22.709100
C -12.774200 -26.017400 -22.644000
H -11.952000 -23.159000 -23.099900
N -11.916700 -24.084400 -22.897100
C -11.389500 -26.198600 -22.796500
H -10.909300 -27.018300 -22.785500
C -10.881500 -24.939700 -22.964400
H -9.969700 -24.712600 -23.102400
