32
Fragment
H -13.788600 -30.998300 -24.062700
C -12.876800 -30.771200 -24.200800
H -12.849000 -28.692600 -24.379700
C -12.368800 -29.512300 -24.368700
N -11.841600 -31.626500 -24.268000
H -11.806300 -32.551900 -24.065200
C -10.984200 -29.693500 -24.521200
N -10.658300 -30.991200 -24.456100
N -10.070500 -28.651900 -24.716700
C -8.812900 -28.897100 -24.860400
H -8.611400 -30.890600 -24.694400
H -8.593300 -26.042800 -25.022200
H -8.361400 -34.602000 -24.933100
N -8.195200 -30.134400 -24.865300
C -7.787100 -26.521500 -25.172200
C -7.750700 -27.909900 -25.113400
N -7.664800 -32.738900 -24.936800
N -7.634700 -34.081700 -25.076900
C -6.846800 -30.047700 -25.169800
C -6.600500 -25.860600 -25.458300
H -6.596400 -24.911700 -25.503900
C -6.563100 -28.609200 -25.317000
C -6.463100 -34.509000 -25.557200
C -6.440000 -32.332900 -25.308000
H -6.231200 -35.409100 -25.754700
N -6.013100 -31.003300 -25.362900
C -5.663600 -33.419700 -25.712900
C -5.415400 -26.557800 -25.679700
C -5.376400 -27.942200 -25.610800
H -4.768400 -33.402000 -26.030600
H -4.621300 -26.077300 -25.881200
H -4.568600 -28.419100 -25.759100
32
Fragment
H -4.741500 -38.443700 -24.523500
H -4.680000 -37.697900 -26.754900
C -4.264400 -37.657200 -24.761400
C -4.220600 -37.209100 -26.082000
N -3.720700 -38.207800 -21.743000
H -3.618200 -40.529900 -20.182800
C -3.586700 -36.913100 -23.810400
C -3.519300 -36.061100 -26.432800
H -3.501500 -35.785200 -27.341600
C -3.318200 -37.167200 -22.390400
C -3.287600 -39.714400 -19.824500
C -3.285200 -38.451100 -20.433700
C -2.889100 -35.752300 -24.170100
C -2.845300 -35.313800 -25.483800
N -2.749800 -37.519200 -19.631900
C -2.712900 -39.515000 -18.606300
H -2.548500 -40.177000 -17.945200
N -2.508300 -36.132000 -21.954100
N -2.421100 -38.207800 -18.514500
H -2.369200 -34.527600 -25.724200
H -2.219000 -36.033800 -21.101700
C -2.190600 -35.253700 -22.974900
H -2.056300 -37.838500 -17.804200
N -1.395500 -34.243600 -22.974100
N -0.997000 -34.299300 -20.592500
C -0.671400 -33.897700 -21.829900
N -0.021600 -33.768000 -19.820500
H 0.016800 -33.872400 -18.947500
C 0.497900 -33.117200 -21.831000
C 0.882200 -33.063300 -20.523800
H 0.926000 -32.715500 -22.578000
H 1.643300 -32.613700 -20.176200
64
Fragment
H -13.788600 -30.998300 -24.062700
C -12.876800 -30.771200 -24.200800
H -12.849000 -28.692600 -24.379700
C -12.368800 -29.512300 -24.368700
N -11.841600 -31.626500 -24.268000
H -11.806300 -32.551900 -24.065200
C -10.984200 -29.693500 -24.521200
N -10.658300 -30.991200 -24.456100
N -10.070500 -28.651900 -24.716700
C -8.812900 -28.897100 -24.860400
H -8.611400 -30.890600 -24.694400
H -8.593300 -26.042800 -25.022200
H -8.361400 -34.602000 -24.933100
N -8.195200 -30.134400 -24.865300
C -7.787100 -26.521500 -25.172200
C -7.750700 -27.909900 -25.113400
N -7.664800 -32.738900 -24.936800
N -7.634700 -34.081700 -25.076900
C -6.846800 -30.047700 -25.169800
C -6.600500 -25.860600 -25.458300
H -6.596400 -24.911700 -25.503900
C -6.563100 -28.609200 -25.317000
C -6.463100 -34.509000 -25.557200
C -6.440000 -32.332900 -25.308000
H -6.231200 -35.409100 -25.754700
N -6.013100 -31.003300 -25.362900
C -5.663600 -33.419700 -25.712900
C -5.415400 -26.557800 -25.679700
C -5.376400 -27.942200 -25.610800
H -4.768400 -33.402000 -26.030600
H -4.621300 -26.077300 -25.881200
H -4.568600 -28.419100 -25.759100
H -4.741500 -38.443700 -24.523500
H -4.680000 -37.697900 -26.754900
C -4.264400 -37.657200 -24.761400
C -4.220600 -37.209100 -26.082000
N -3.720700 -38.207800 -21.743000
H -3.618200 -40.529900 -20.182800
C -3.586700 -36.913100 -23.810400
C -3.519300 -36.061100 -26.432800
H -3.501500 -35.785200 -27.341600
C -3.318200 -37.167200 -22.390400
C -3.287600 -39.714400 -19.824500
C -3.285200 -38.451100 -20.433700
C -2.889100 -35.752300 -24.170100
C -2.845300 -35.313800 -25.483800
N -2.749800 -37.519200 -19.631900
C -2.712900 -39.515000 -18.606300
H -2.548500 -40.177000 -17.945200
N -2.508300 -36.132000 -21.954100
N -2.421100 -38.207800 -18.514500
H -2.369200 -34.527600 -25.724200
H -2.219000 -36.033800 -21.101700
C -2.190600 -35.253700 -22.974900
H -2.056300 -37.838500 -17.804200
N -1.395500 -34.243600 -22.974100
N -0.997000 -34.299300 -20.592500
C -0.671400 -33.897700 -21.829900
N -0.021600 -33.768000 -19.820500
H 0.016800 -33.872400 -18.947500
C 0.497900 -33.117200 -21.831000
C 0.882200 -33.063300 -20.523800
H 0.926000 -32.715500 -22.578000
H 1.643300 -32.613700 -20.176200
