32
Fragment
H -13.788600 -30.998300 -24.062700
C -12.876800 -30.771200 -24.200800
H -12.849000 -28.692600 -24.379700
C -12.368800 -29.512300 -24.368700
N -11.841600 -31.626500 -24.268000
H -11.806300 -32.551900 -24.065200
C -10.984200 -29.693500 -24.521200
N -10.658300 -30.991200 -24.456100
N -10.070500 -28.651900 -24.716700
C -8.812900 -28.897100 -24.860400
H -8.611400 -30.890600 -24.694400
H -8.593300 -26.042800 -25.022200
H -8.361400 -34.602000 -24.933100
N -8.195200 -30.134400 -24.865300
C -7.787100 -26.521500 -25.172200
C -7.750700 -27.909900 -25.113400
N -7.664800 -32.738900 -24.936800
N -7.634700 -34.081700 -25.076900
C -6.846800 -30.047700 -25.169800
C -6.600500 -25.860600 -25.458300
H -6.596400 -24.911700 -25.503900
C -6.563100 -28.609200 -25.317000
C -6.463100 -34.509000 -25.557200
C -6.440000 -32.332900 -25.308000
H -6.231200 -35.409100 -25.754700
N -6.013100 -31.003300 -25.362900
C -5.663600 -33.419700 -25.712900
C -5.415400 -26.557800 -25.679700
C -5.376400 -27.942200 -25.610800
H -4.768400 -33.402000 -26.030600
H -4.621300 -26.077300 -25.881200
H -4.568600 -28.419100 -25.759100
32
Fragment
H -7.711800 -19.133900 -29.266900
H -7.659100 -16.792200 -29.144800
H -7.511900 -24.116900 -28.995400
C -6.903900 -18.657000 -29.415200
C -6.864900 -17.272600 -29.346300
C -6.616800 -24.134500 -29.313100
N -6.267200 -21.718200 -29.663100
H -6.049200 -26.124000 -29.271300
C -5.840400 -23.047800 -29.718000
C -5.817300 -25.223900 -29.468800
C -5.717200 -19.324100 -29.709000
H -5.684000 -15.626500 -29.522100
C -5.679900 -16.575500 -29.567700
C -5.433600 -20.762500 -29.856200
N -4.645600 -24.796600 -29.949100
N -4.615500 -23.453700 -30.089200
C -4.529700 -18.624700 -29.912600
C -4.493300 -17.236400 -29.853800
N -4.085100 -20.849200 -30.160700
H -3.918900 -25.316900 -30.092900
H -3.687000 -16.757700 -30.003800
H -3.669000 -21.605400 -30.331600
C -3.467500 -19.611900 -30.165600
N -2.209900 -19.366800 -30.309300
N -1.622100 -21.706100 -30.569900
C -1.296200 -20.408400 -30.504800
H -0.474000 -23.266700 -30.960800
N -0.438800 -22.341400 -30.758000
C 0.088400 -20.227100 -30.657300
H 0.568600 -19.407400 -30.646300
C 0.596500 -21.486000 -30.825300
H 1.508200 -21.713100 -30.963300
64
Fragment
H -13.788600 -30.998300 -24.062700
C -12.876800 -30.771200 -24.200800
H -12.849000 -28.692600 -24.379700
C -12.368800 -29.512300 -24.368700
N -11.841600 -31.626500 -24.268000
H -11.806300 -32.551900 -24.065200
C -10.984200 -29.693500 -24.521200
N -10.658300 -30.991200 -24.456100
N -10.070500 -28.651900 -24.716700
C -8.812900 -28.897100 -24.860400
H -8.611400 -30.890600 -24.694400
H -8.593300 -26.042800 -25.022200
H -8.361400 -34.602000 -24.933100
N -8.195200 -30.134400 -24.865300
C -7.787100 -26.521500 -25.172200
C -7.750700 -27.909900 -25.113400
N -7.664800 -32.738900 -24.936800
N -7.634700 -34.081700 -25.076900
C -6.846800 -30.047700 -25.169800
C -6.600500 -25.860600 -25.458300
H -6.596400 -24.911700 -25.503900
C -6.563100 -28.609200 -25.317000
C -6.463100 -34.509000 -25.557200
C -6.440000 -32.332900 -25.308000
H -6.231200 -35.409100 -25.754700
N -6.013100 -31.003300 -25.362900
C -5.663600 -33.419700 -25.712900
C -5.415400 -26.557800 -25.679700
C -5.376400 -27.942200 -25.610800
H -4.768400 -33.402000 -26.030600
H -4.621300 -26.077300 -25.881200
H -4.568600 -28.419100 -25.759100
H -7.711800 -19.133900 -29.266900
H -7.659100 -16.792200 -29.144800
H -7.511900 -24.116900 -28.995400
C -6.903900 -18.657000 -29.415200
C -6.864900 -17.272600 -29.346300
C -6.616800 -24.134500 -29.313100
N -6.267200 -21.718200 -29.663100
H -6.049200 -26.124000 -29.271300
C -5.840400 -23.047800 -29.718000
C -5.817300 -25.223900 -29.468800
C -5.717200 -19.324100 -29.709000
H -5.684000 -15.626500 -29.522100
C -5.679900 -16.575500 -29.567700
C -5.433600 -20.762500 -29.856200
N -4.645600 -24.796600 -29.949100
N -4.615500 -23.453700 -30.089200
C -4.529700 -18.624700 -29.912600
C -4.493300 -17.236400 -29.853800
N -4.085100 -20.849200 -30.160700
H -3.918900 -25.316900 -30.092900
H -3.687000 -16.757700 -30.003800
H -3.669000 -21.605400 -30.331600
C -3.467500 -19.611900 -30.165600
N -2.209900 -19.366800 -30.309300
N -1.622100 -21.706100 -30.569900
C -1.296200 -20.408400 -30.504800
H -0.474000 -23.266700 -30.960800
N -0.438800 -22.341400 -30.758000
C 0.088400 -20.227100 -30.657300
H 0.568600 -19.407400 -30.646300
C 0.596500 -21.486000 -30.825300
H 1.508200 -21.713100 -30.963300
