32
Fragment
H -13.788600 -30.998300 -24.062700
C -12.876800 -30.771200 -24.200800
H -12.849000 -28.692600 -24.379700
C -12.368800 -29.512300 -24.368700
N -11.841600 -31.626500 -24.268000
H -11.806300 -32.551900 -24.065200
C -10.984200 -29.693500 -24.521200
N -10.658300 -30.991200 -24.456100
N -10.070500 -28.651900 -24.716700
C -8.812900 -28.897100 -24.860400
H -8.611400 -30.890600 -24.694400
H -8.593300 -26.042800 -25.022200
H -8.361400 -34.602000 -24.933100
N -8.195200 -30.134400 -24.865300
C -7.787100 -26.521500 -25.172200
C -7.750700 -27.909900 -25.113400
N -7.664800 -32.738900 -24.936800
N -7.634700 -34.081700 -25.076900
C -6.846800 -30.047700 -25.169800
C -6.600500 -25.860600 -25.458300
H -6.596400 -24.911700 -25.503900
C -6.563100 -28.609200 -25.317000
C -6.463100 -34.509000 -25.557200
C -6.440000 -32.332900 -25.308000
H -6.231200 -35.409100 -25.754700
N -6.013100 -31.003300 -25.362900
C -5.663600 -33.419700 -25.712900
C -5.415400 -26.557800 -25.679700
C -5.376400 -27.942200 -25.610800
H -4.768400 -33.402000 -26.030600
H -4.621300 -26.077300 -25.881200
H -4.568600 -28.419100 -25.759100
12
Fragment
H -5.449100 -29.948500 -28.178300
H -5.119500 -29.701200 -29.724700
C -4.730600 -29.822000 -28.833600
H -4.313300 -31.544400 -30.643400
H -4.206500 -29.030000 -28.594700
N -3.859500 -31.002900 -28.836300
C -3.807000 -31.775600 -29.872800
H -3.779200 -31.408100 -26.894800
C -3.145800 -31.198100 -27.612100
O -3.096400 -32.842300 -29.896400
H -2.655900 -30.379700 -27.386300
H -2.513400 -31.938900 -27.717500
44
Fragment
H -13.788600 -30.998300 -24.062700
C -12.876800 -30.771200 -24.200800
H -12.849000 -28.692600 -24.379700
C -12.368800 -29.512300 -24.368700
N -11.841600 -31.626500 -24.268000
H -11.806300 -32.551900 -24.065200
C -10.984200 -29.693500 -24.521200
N -10.658300 -30.991200 -24.456100
N -10.070500 -28.651900 -24.716700
C -8.812900 -28.897100 -24.860400
H -8.611400 -30.890600 -24.694400
H -8.593300 -26.042800 -25.022200
H -8.361400 -34.602000 -24.933100
N -8.195200 -30.134400 -24.865300
C -7.787100 -26.521500 -25.172200
C -7.750700 -27.909900 -25.113400
N -7.664800 -32.738900 -24.936800
N -7.634700 -34.081700 -25.076900
C -6.846800 -30.047700 -25.169800
C -6.600500 -25.860600 -25.458300
H -6.596400 -24.911700 -25.503900
C -6.563100 -28.609200 -25.317000
C -6.463100 -34.509000 -25.557200
C -6.440000 -32.332900 -25.308000
H -6.231200 -35.409100 -25.754700
N -6.013100 -31.003300 -25.362900
C -5.663600 -33.419700 -25.712900
C -5.415400 -26.557800 -25.679700
C -5.376400 -27.942200 -25.610800
H -4.768400 -33.402000 -26.030600
H -4.621300 -26.077300 -25.881200
H -4.568600 -28.419100 -25.759100
H -5.449100 -29.948500 -28.178300
H -5.119500 -29.701200 -29.724700
C -4.730600 -29.822000 -28.833600
H -4.313300 -31.544400 -30.643400
H -4.206500 -29.030000 -28.594700
N -3.859500 -31.002900 -28.836300
C -3.807000 -31.775600 -29.872800
H -3.779200 -31.408100 -26.894800
C -3.145800 -31.198100 -27.612100
O -3.096400 -32.842300 -29.896400
H -2.655900 -30.379700 -27.386300
H -2.513400 -31.938900 -27.717500
