32
Fragment
H -13.788600 -30.998300 -24.062700
C -12.876800 -30.771200 -24.200800
H -12.849000 -28.692600 -24.379700
C -12.368800 -29.512300 -24.368700
N -11.841600 -31.626500 -24.268000
H -11.806300 -32.551900 -24.065200
C -10.984200 -29.693500 -24.521200
N -10.658300 -30.991200 -24.456100
N -10.070500 -28.651900 -24.716700
C -8.812900 -28.897100 -24.860400
H -8.611400 -30.890600 -24.694400
H -8.593300 -26.042800 -25.022200
H -8.361400 -34.602000 -24.933100
N -8.195200 -30.134400 -24.865300
C -7.787100 -26.521500 -25.172200
C -7.750700 -27.909900 -25.113400
N -7.664800 -32.738900 -24.936800
N -7.634700 -34.081700 -25.076900
C -6.846800 -30.047700 -25.169800
C -6.600500 -25.860600 -25.458300
H -6.596400 -24.911700 -25.503900
C -6.563100 -28.609200 -25.317000
C -6.463100 -34.509000 -25.557200
C -6.440000 -32.332900 -25.308000
H -6.231200 -35.409100 -25.754700
N -6.013100 -31.003300 -25.362900
C -5.663600 -33.419700 -25.712900
C -5.415400 -26.557800 -25.679700
C -5.376400 -27.942200 -25.610800
H -4.768400 -33.402000 -26.030600
H -4.621300 -26.077300 -25.881200
H -4.568600 -28.419100 -25.759100
32
Fragment
H -16.296000 -23.328600 -19.128100
H -15.578700 -23.430300 -16.726300
C -15.534900 -23.778200 -18.780500
C -15.150700 -23.832000 -17.473300
H -14.669500 -24.587300 -20.356800
N -14.631200 -24.482900 -19.483800
C -13.981300 -24.612500 -17.474400
N -13.655700 -25.014200 -18.711800
N -13.257200 -24.958500 -16.330100
H -12.596400 -28.553300 -21.500100
C -12.462200 -25.968500 -16.329400
H -12.433700 -26.748700 -18.202600
H -12.283500 -25.242400 -13.580100
N -12.231600 -28.922700 -20.789800
N -12.144400 -26.846900 -17.350200
H -12.104300 -30.891900 -21.359100
C -11.939800 -30.229800 -20.698000
N -11.902900 -28.234100 -19.672400
C -11.807400 -26.028700 -13.820500
C -11.763600 -26.467100 -15.134200
C -11.367500 -29.166000 -18.870600
C -11.365100 -30.429300 -19.479800
C -11.334500 -27.882000 -16.913900
H -11.151200 -26.500000 -11.962700
C -11.133500 -26.776000 -12.871500
C -11.066100 -27.628000 -15.493900
H -11.034500 -31.244700 -19.121500
N -10.932000 -28.922700 -17.561300
C -10.432200 -27.924000 -13.222300
C -10.388300 -28.372100 -14.542900
H -9.972700 -28.412700 -12.549400
H -9.911200 -29.158500 -14.780800
64
Fragment
H -13.788600 -30.998300 -24.062700
C -12.876800 -30.771200 -24.200800
H -12.849000 -28.692600 -24.379700
C -12.368800 -29.512300 -24.368700
N -11.841600 -31.626500 -24.268000
H -11.806300 -32.551900 -24.065200
C -10.984200 -29.693500 -24.521200
N -10.658300 -30.991200 -24.456100
N -10.070500 -28.651900 -24.716700
C -8.812900 -28.897100 -24.860400
H -8.611400 -30.890600 -24.694400
H -8.593300 -26.042800 -25.022200
H -8.361400 -34.602000 -24.933100
N -8.195200 -30.134400 -24.865300
C -7.787100 -26.521500 -25.172200
C -7.750700 -27.909900 -25.113400
N -7.664800 -32.738900 -24.936800
N -7.634700 -34.081700 -25.076900
C -6.846800 -30.047700 -25.169800
C -6.600500 -25.860600 -25.458300
H -6.596400 -24.911700 -25.503900
C -6.563100 -28.609200 -25.317000
C -6.463100 -34.509000 -25.557200
C -6.440000 -32.332900 -25.308000
H -6.231200 -35.409100 -25.754700
N -6.013100 -31.003300 -25.362900
C -5.663600 -33.419700 -25.712900
C -5.415400 -26.557800 -25.679700
C -5.376400 -27.942200 -25.610800
H -4.768400 -33.402000 -26.030600
H -4.621300 -26.077300 -25.881200
H -4.568600 -28.419100 -25.759100
H -16.296000 -23.328600 -19.128100
H -15.578700 -23.430300 -16.726300
C -15.534900 -23.778200 -18.780500
C -15.150700 -23.832000 -17.473300
H -14.669500 -24.587300 -20.356800
N -14.631200 -24.482900 -19.483800
C -13.981300 -24.612500 -17.474400
N -13.655700 -25.014200 -18.711800
N -13.257200 -24.958500 -16.330100
H -12.596400 -28.553300 -21.500100
C -12.462200 -25.968500 -16.329400
H -12.433700 -26.748700 -18.202600
H -12.283500 -25.242400 -13.580100
N -12.231600 -28.922700 -20.789800
N -12.144400 -26.846900 -17.350200
H -12.104300 -30.891900 -21.359100
C -11.939800 -30.229800 -20.698000
N -11.902900 -28.234100 -19.672400
C -11.807400 -26.028700 -13.820500
C -11.763600 -26.467100 -15.134200
C -11.367500 -29.166000 -18.870600
C -11.365100 -30.429300 -19.479800
C -11.334500 -27.882000 -16.913900
H -11.151200 -26.500000 -11.962700
C -11.133500 -26.776000 -12.871500
C -11.066100 -27.628000 -15.493900
H -11.034500 -31.244700 -19.121500
N -10.932000 -28.922700 -17.561300
C -10.432200 -27.924000 -13.222300
C -10.388300 -28.372100 -14.542900
H -9.972700 -28.412700 -12.549400
H -9.911200 -29.158500 -14.780800
