32
Fragment
H -13.788600 -30.998300 -24.062700
C -12.876800 -30.771200 -24.200800
H -12.849000 -28.692600 -24.379700
C -12.368800 -29.512300 -24.368700
N -11.841600 -31.626500 -24.268000
H -11.806300 -32.551900 -24.065200
C -10.984200 -29.693500 -24.521200
N -10.658300 -30.991200 -24.456100
N -10.070500 -28.651900 -24.716700
C -8.812900 -28.897100 -24.860400
H -8.611400 -30.890600 -24.694400
H -8.593300 -26.042800 -25.022200
H -8.361400 -34.602000 -24.933100
N -8.195200 -30.134400 -24.865300
C -7.787100 -26.521500 -25.172200
C -7.750700 -27.909900 -25.113400
N -7.664800 -32.738900 -24.936800
N -7.634700 -34.081700 -25.076900
C -6.846800 -30.047700 -25.169800
C -6.600500 -25.860600 -25.458300
H -6.596400 -24.911700 -25.503900
C -6.563100 -28.609200 -25.317000
C -6.463100 -34.509000 -25.557200
C -6.440000 -32.332900 -25.308000
H -6.231200 -35.409100 -25.754700
N -6.013100 -31.003300 -25.362900
C -5.663600 -33.419700 -25.712900
C -5.415400 -26.557800 -25.679700
C -5.376400 -27.942200 -25.610800
H -4.768400 -33.402000 -26.030600
H -4.621300 -26.077300 -25.881200
H -4.568600 -28.419100 -25.759100
32
Fragment
H -13.923600 -23.328600 -34.849900
H -13.206400 -23.430300 -32.448100
C -13.162500 -23.778200 -34.502300
C -12.778300 -23.832000 -33.195000
H -12.297200 -24.587300 -36.078500
N -12.258800 -24.482900 -35.205500
C -11.609000 -24.612500 -33.196100
N -11.283300 -25.014200 -34.433500
N -10.884800 -24.958500 -32.051900
H -10.224100 -28.553300 -37.221800
C -10.089800 -25.968500 -32.051100
H -10.061300 -26.748700 -33.924300
H -9.911100 -25.242400 -29.301800
N -9.859300 -28.922700 -36.511500
N -9.772000 -26.846900 -33.071900
H -9.731900 -30.891900 -37.080800
C -9.567500 -30.229800 -36.419700
N -9.530600 -28.234100 -35.394100
C -9.435100 -26.028700 -29.542200
C -9.391200 -26.467100 -30.855900
C -8.995200 -29.166000 -34.592300
C -8.992800 -30.429300 -35.201600
C -8.962100 -27.882000 -32.635600
H -8.778900 -26.500000 -27.684400
C -8.761100 -26.776000 -28.593200
C -8.693700 -27.628000 -31.215600
H -8.662100 -31.244700 -34.843300
N -8.559700 -28.922700 -33.283000
C -8.059800 -27.924000 -28.944000
C -8.015900 -28.372100 -30.264600
H -7.600300 -28.412700 -28.271100
H -7.538800 -29.158500 -30.502500
64
Fragment
H -13.788600 -30.998300 -24.062700
C -12.876800 -30.771200 -24.200800
H -12.849000 -28.692600 -24.379700
C -12.368800 -29.512300 -24.368700
N -11.841600 -31.626500 -24.268000
H -11.806300 -32.551900 -24.065200
C -10.984200 -29.693500 -24.521200
N -10.658300 -30.991200 -24.456100
N -10.070500 -28.651900 -24.716700
C -8.812900 -28.897100 -24.860400
H -8.611400 -30.890600 -24.694400
H -8.593300 -26.042800 -25.022200
H -8.361400 -34.602000 -24.933100
N -8.195200 -30.134400 -24.865300
C -7.787100 -26.521500 -25.172200
C -7.750700 -27.909900 -25.113400
N -7.664800 -32.738900 -24.936800
N -7.634700 -34.081700 -25.076900
C -6.846800 -30.047700 -25.169800
C -6.600500 -25.860600 -25.458300
H -6.596400 -24.911700 -25.503900
C -6.563100 -28.609200 -25.317000
C -6.463100 -34.509000 -25.557200
C -6.440000 -32.332900 -25.308000
H -6.231200 -35.409100 -25.754700
N -6.013100 -31.003300 -25.362900
C -5.663600 -33.419700 -25.712900
C -5.415400 -26.557800 -25.679700
C -5.376400 -27.942200 -25.610800
H -4.768400 -33.402000 -26.030600
H -4.621300 -26.077300 -25.881200
H -4.568600 -28.419100 -25.759100
H -13.923600 -23.328600 -34.849900
H -13.206400 -23.430300 -32.448100
C -13.162500 -23.778200 -34.502300
C -12.778300 -23.832000 -33.195000
H -12.297200 -24.587300 -36.078500
N -12.258800 -24.482900 -35.205500
C -11.609000 -24.612500 -33.196100
N -11.283300 -25.014200 -34.433500
N -10.884800 -24.958500 -32.051900
H -10.224100 -28.553300 -37.221800
C -10.089800 -25.968500 -32.051100
H -10.061300 -26.748700 -33.924300
H -9.911100 -25.242400 -29.301800
N -9.859300 -28.922700 -36.511500
N -9.772000 -26.846900 -33.071900
H -9.731900 -30.891900 -37.080800
C -9.567500 -30.229800 -36.419700
N -9.530600 -28.234100 -35.394100
C -9.435100 -26.028700 -29.542200
C -9.391200 -26.467100 -30.855900
C -8.995200 -29.166000 -34.592300
C -8.992800 -30.429300 -35.201600
C -8.962100 -27.882000 -32.635600
H -8.778900 -26.500000 -27.684400
C -8.761100 -26.776000 -28.593200
C -8.693700 -27.628000 -31.215600
H -8.662100 -31.244700 -34.843300
N -8.559700 -28.922700 -33.283000
C -8.059800 -27.924000 -28.944000
C -8.015900 -28.372100 -30.264600
H -7.600300 -28.412700 -28.271100
H -7.538800 -29.158500 -30.502500
