32
Fragment
H -13.788600 -30.998300 -24.062700
C -12.876800 -30.771200 -24.200800
H -12.849000 -28.692600 -24.379700
C -12.368800 -29.512300 -24.368700
N -11.841600 -31.626500 -24.268000
H -11.806300 -32.551900 -24.065200
C -10.984200 -29.693500 -24.521200
N -10.658300 -30.991200 -24.456100
N -10.070500 -28.651900 -24.716700
C -8.812900 -28.897100 -24.860400
H -8.611400 -30.890600 -24.694400
H -8.593300 -26.042800 -25.022200
H -8.361400 -34.602000 -24.933100
N -8.195200 -30.134400 -24.865300
C -7.787100 -26.521500 -25.172200
C -7.750700 -27.909900 -25.113400
N -7.664800 -32.738900 -24.936800
N -7.634700 -34.081700 -25.076900
C -6.846800 -30.047700 -25.169800
C -6.600500 -25.860600 -25.458300
H -6.596400 -24.911700 -25.503900
C -6.563100 -28.609200 -25.317000
C -6.463100 -34.509000 -25.557200
C -6.440000 -32.332900 -25.308000
H -6.231200 -35.409100 -25.754700
N -6.013100 -31.003300 -25.362900
C -5.663600 -33.419700 -25.712900
C -5.415400 -26.557800 -25.679700
C -5.376400 -27.942200 -25.610800
H -4.768400 -33.402000 -26.030600
H -4.621300 -26.077300 -25.881200
H -4.568600 -28.419100 -25.759100
32
Fragment
H -3.555400 -26.552400 -32.384400
H -3.493900 -27.298200 -34.615800
C -3.078300 -27.338800 -32.622200
C -3.034400 -27.786900 -33.942900
N -2.534500 -26.788200 -29.603800
H -2.432000 -24.466200 -28.043600
C -2.400500 -28.082900 -31.671200
C -2.333100 -28.934900 -34.293600
H -2.315300 -29.210900 -35.202500
C -2.132100 -27.828900 -30.251300
C -2.101400 -25.281600 -27.685300
C -2.099000 -26.544900 -28.294500
C -1.703000 -29.243800 -32.031000
C -1.659100 -29.682200 -33.344700
N -1.563600 -27.476800 -27.492700
C -1.526700 -25.481100 -26.467200
H -1.362300 -24.819000 -25.806100
N -1.322200 -28.864000 -29.815000
N -1.234900 -26.788200 -26.375400
H -1.183100 -30.468500 -33.585000
H -1.032800 -28.962200 -28.962500
C -1.004400 -29.742400 -30.835800
H -0.870100 -27.157600 -25.665100
N -0.209400 -30.752400 -30.835000
N 0.189100 -30.696700 -28.453300
C 0.514800 -31.098400 -29.690800
N 1.164600 -31.228000 -27.681400
H 1.203000 -31.123600 -26.808400
C 1.684100 -31.878900 -29.691900
C 2.068300 -31.932700 -28.384600
H 2.112200 -32.280600 -30.438800
H 2.829500 -32.382300 -28.037000
64
Fragment
H -13.788600 -30.998300 -24.062700
C -12.876800 -30.771200 -24.200800
H -12.849000 -28.692600 -24.379700
C -12.368800 -29.512300 -24.368700
N -11.841600 -31.626500 -24.268000
H -11.806300 -32.551900 -24.065200
C -10.984200 -29.693500 -24.521200
N -10.658300 -30.991200 -24.456100
N -10.070500 -28.651900 -24.716700
C -8.812900 -28.897100 -24.860400
H -8.611400 -30.890600 -24.694400
H -8.593300 -26.042800 -25.022200
H -8.361400 -34.602000 -24.933100
N -8.195200 -30.134400 -24.865300
C -7.787100 -26.521500 -25.172200
C -7.750700 -27.909900 -25.113400
N -7.664800 -32.738900 -24.936800
N -7.634700 -34.081700 -25.076900
C -6.846800 -30.047700 -25.169800
C -6.600500 -25.860600 -25.458300
H -6.596400 -24.911700 -25.503900
C -6.563100 -28.609200 -25.317000
C -6.463100 -34.509000 -25.557200
C -6.440000 -32.332900 -25.308000
H -6.231200 -35.409100 -25.754700
N -6.013100 -31.003300 -25.362900
C -5.663600 -33.419700 -25.712900
C -5.415400 -26.557800 -25.679700
C -5.376400 -27.942200 -25.610800
H -4.768400 -33.402000 -26.030600
H -4.621300 -26.077300 -25.881200
H -4.568600 -28.419100 -25.759100
H -3.555400 -26.552400 -32.384400
H -3.493900 -27.298200 -34.615800
C -3.078300 -27.338800 -32.622200
C -3.034400 -27.786900 -33.942900
N -2.534500 -26.788200 -29.603800
H -2.432000 -24.466200 -28.043600
C -2.400500 -28.082900 -31.671200
C -2.333100 -28.934900 -34.293600
H -2.315300 -29.210900 -35.202500
C -2.132100 -27.828900 -30.251300
C -2.101400 -25.281600 -27.685300
C -2.099000 -26.544900 -28.294500
C -1.703000 -29.243800 -32.031000
C -1.659100 -29.682200 -33.344700
N -1.563600 -27.476800 -27.492700
C -1.526700 -25.481100 -26.467200
H -1.362300 -24.819000 -25.806100
N -1.322200 -28.864000 -29.815000
N -1.234900 -26.788200 -26.375400
H -1.183100 -30.468500 -33.585000
H -1.032800 -28.962200 -28.962500
C -1.004400 -29.742400 -30.835800
H -0.870100 -27.157600 -25.665100
N -0.209400 -30.752400 -30.835000
N 0.189100 -30.696700 -28.453300
C 0.514800 -31.098400 -29.690800
N 1.164600 -31.228000 -27.681400
H 1.203000 -31.123600 -26.808400
C 1.684100 -31.878900 -29.691900
C 2.068300 -31.932700 -28.384600
H 2.112200 -32.280600 -30.438800
H 2.829500 -32.382300 -28.037000
