29
Fragment
H -32.643200 -30.117400 -6.697100
H -32.039000 -27.903600 -7.636600
H -31.921000 -32.142500 -5.691500
C -31.594100 -29.822200 -6.756500
C -31.262600 -28.587500 -7.281300
O -30.963500 -31.894000 -5.756700
C -30.610600 -30.696900 -6.296000
C -29.918800 -28.236100 -7.360900
Cl -29.838000 -34.364300 -3.855600
Cl -29.481700 -26.667400 -7.955300
H -29.380300 -32.664100 -5.497400
C -29.250800 -30.351500 -6.397700
C -28.925900 -29.104400 -6.942800
N -28.392600 -32.420700 -5.471400
C -28.139100 -34.425200 -4.194500
C -28.085700 -31.183800 -5.946200
H -27.903800 -36.271100 -3.102000
H -27.879800 -28.811200 -7.042600
C -27.545100 -33.405700 -4.957400
C -27.419900 -35.474400 -3.678900
O -26.942800 -30.752900 -5.994000
C -26.165600 -33.447400 -5.146400
C -26.053100 -35.483300 -3.908000
O -25.850500 -37.596200 -3.006900
H -25.673200 -32.657800 -5.718700
C -25.419500 -34.485400 -4.613400
N -25.261300 -36.589200 -3.361300
H -24.336800 -34.506800 -4.752000
O -24.052200 -36.460900 -3.290700
29
Fragment
O -25.961900 -27.154000 2.532800
H -25.677200 -29.108000 1.071500
N -24.752800 -27.025700 2.462200
C -24.594500 -29.129500 1.210100
H -24.340800 -30.957100 0.104800
O -24.163600 -26.018700 2.816600
C -23.960900 -28.131600 1.915600
C -23.848500 -30.167400 0.677100
O -23.071300 -32.862000 -0.170400
C -22.594100 -28.140500 2.144600
C -22.468900 -30.209200 0.866200
H -22.134200 -34.803700 -1.219100
H -22.110200 -27.343800 2.721500
C -21.928400 -32.431100 -0.122700
C -21.874900 -29.189700 1.629000
N -21.621500 -31.194200 0.352100
C -21.088100 -34.510400 -1.119300
C -20.763200 -33.263400 -0.574200
H -20.633800 -30.950800 0.326100
Cl -20.532400 -36.947500 -2.131800
Cl -20.176100 -29.250500 1.968000
C -20.095200 -35.378800 -1.537400
C -19.403500 -32.917900 -0.472500
O -19.050600 -31.720900 0.066800
C -18.751500 -35.027400 -1.457800
C -18.420000 -33.792600 -0.932900
H -18.093100 -31.472400 0.132000
H -17.975000 -35.711300 -1.813100
H -17.370900 -33.497500 -0.873500
58
Fragment
H -32.643200 -30.117400 -6.697100
H -32.039000 -27.903600 -7.636600
H -31.921000 -32.142500 -5.691500
C -31.594100 -29.822200 -6.756500
C -31.262600 -28.587500 -7.281300
O -30.963500 -31.894000 -5.756700
C -30.610600 -30.696900 -6.296000
C -29.918800 -28.236100 -7.360900
Cl -29.838000 -34.364300 -3.855600
Cl -29.481700 -26.667400 -7.955300
H -29.380300 -32.664100 -5.497400
C -29.250800 -30.351500 -6.397700
C -28.925900 -29.104400 -6.942800
N -28.392600 -32.420700 -5.471400
C -28.139100 -34.425200 -4.194500
C -28.085700 -31.183800 -5.946200
H -27.903800 -36.271100 -3.102000
H -27.879800 -28.811200 -7.042600
C -27.545100 -33.405700 -4.957400
C -27.419900 -35.474400 -3.678900
O -26.942800 -30.752900 -5.994000
C -26.165600 -33.447400 -5.146400
C -26.053100 -35.483300 -3.908000
O -25.850500 -37.596200 -3.006900
H -25.673200 -32.657800 -5.718700
C -25.419500 -34.485400 -4.613400
N -25.261300 -36.589200 -3.361300
H -24.336800 -34.506800 -4.752000
O -24.052200 -36.460900 -3.290700
O -25.961900 -27.154000 2.532800
H -25.677200 -29.108000 1.071500
N -24.752800 -27.025700 2.462200
C -24.594500 -29.129500 1.210100
H -24.340800 -30.957100 0.104800
O -24.163600 -26.018700 2.816600
C -23.960900 -28.131600 1.915600
C -23.848500 -30.167400 0.677100
O -23.071300 -32.862000 -0.170400
C -22.594100 -28.140500 2.144600
C -22.468900 -30.209200 0.866200
H -22.134200 -34.803700 -1.219100
H -22.110200 -27.343800 2.721500
C -21.928400 -32.431100 -0.122700
C -21.874900 -29.189700 1.629000
N -21.621500 -31.194200 0.352100
C -21.088100 -34.510400 -1.119300
C -20.763200 -33.263400 -0.574200
H -20.633800 -30.950800 0.326100
Cl -20.532400 -36.947500 -2.131800
Cl -20.176100 -29.250500 1.968000
C -20.095200 -35.378800 -1.537400
C -19.403500 -32.917900 -0.472500
O -19.050600 -31.720900 0.066800
C -18.751500 -35.027400 -1.457800
C -18.420000 -33.792600 -0.932900
H -18.093100 -31.472400 0.132000
H -17.975000 -35.711300 -1.813100
H -17.370900 -33.497500 -0.873500
