29
Fragment
H -32.643200 -30.117400 -6.697100
H -32.039000 -27.903600 -7.636600
H -31.921000 -32.142500 -5.691500
C -31.594100 -29.822200 -6.756500
C -31.262600 -28.587500 -7.281300
O -30.963500 -31.894000 -5.756700
C -30.610600 -30.696900 -6.296000
C -29.918800 -28.236100 -7.360900
Cl -29.838000 -34.364300 -3.855600
Cl -29.481700 -26.667400 -7.955300
H -29.380300 -32.664100 -5.497400
C -29.250800 -30.351500 -6.397700
C -28.925900 -29.104400 -6.942800
N -28.392600 -32.420700 -5.471400
C -28.139100 -34.425200 -4.194500
C -28.085700 -31.183800 -5.946200
H -27.903800 -36.271100 -3.102000
H -27.879800 -28.811200 -7.042600
C -27.545100 -33.405700 -4.957400
C -27.419900 -35.474400 -3.678900
O -26.942800 -30.752900 -5.994000
C -26.165600 -33.447400 -5.146400
C -26.053100 -35.483300 -3.908000
O -25.850500 -37.596200 -3.006900
H -25.673200 -32.657800 -5.718700
C -25.419500 -34.485400 -4.613400
N -25.261300 -36.589200 -3.361300
H -24.336800 -34.506800 -4.752000
O -24.052200 -36.460900 -3.290700
29
Fragment
O -35.964700 -47.063300 -10.297500
H -35.680000 -45.109300 -8.836200
N -34.755600 -47.191600 -10.226900
C -34.597300 -45.087900 -8.974800
H -34.343600 -43.260200 -7.869500
O -34.166400 -48.198700 -10.581300
C -33.963700 -46.085800 -9.680300
C -33.851300 -44.049900 -8.441800
O -33.074100 -41.355400 -7.594300
C -32.597000 -46.076900 -9.909300
C -32.471700 -44.008100 -8.630900
H -32.137000 -39.413700 -6.545600
H -32.113000 -46.873600 -10.486200
C -31.931200 -41.786300 -7.642000
C -31.877800 -45.027700 -9.393700
N -31.624300 -43.023200 -8.116800
C -31.090900 -39.706900 -6.645400
C -30.766000 -40.954000 -7.190500
H -30.636600 -43.266600 -8.090800
Cl -30.535200 -37.269800 -5.632900
Cl -30.178900 -44.966800 -9.732700
C -30.098100 -38.838600 -6.227300
C -29.406300 -41.299400 -7.292200
O -29.053400 -42.496400 -7.831500
C -28.754300 -39.189900 -6.306900
C -28.422800 -40.424700 -6.831800
H -28.095900 -42.745000 -7.896700
H -27.977900 -38.506100 -5.951600
H -27.373700 -40.719900 -6.891200
58
Fragment
H -32.643200 -30.117400 -6.697100
H -32.039000 -27.903600 -7.636600
H -31.921000 -32.142500 -5.691500
C -31.594100 -29.822200 -6.756500
C -31.262600 -28.587500 -7.281300
O -30.963500 -31.894000 -5.756700
C -30.610600 -30.696900 -6.296000
C -29.918800 -28.236100 -7.360900
Cl -29.838000 -34.364300 -3.855600
Cl -29.481700 -26.667400 -7.955300
H -29.380300 -32.664100 -5.497400
C -29.250800 -30.351500 -6.397700
C -28.925900 -29.104400 -6.942800
N -28.392600 -32.420700 -5.471400
C -28.139100 -34.425200 -4.194500
C -28.085700 -31.183800 -5.946200
H -27.903800 -36.271100 -3.102000
H -27.879800 -28.811200 -7.042600
C -27.545100 -33.405700 -4.957400
C -27.419900 -35.474400 -3.678900
O -26.942800 -30.752900 -5.994000
C -26.165600 -33.447400 -5.146400
C -26.053100 -35.483300 -3.908000
O -25.850500 -37.596200 -3.006900
H -25.673200 -32.657800 -5.718700
C -25.419500 -34.485400 -4.613400
N -25.261300 -36.589200 -3.361300
H -24.336800 -34.506800 -4.752000
O -24.052200 -36.460900 -3.290700
O -35.964700 -47.063300 -10.297500
H -35.680000 -45.109300 -8.836200
N -34.755600 -47.191600 -10.226900
C -34.597300 -45.087900 -8.974800
H -34.343600 -43.260200 -7.869500
O -34.166400 -48.198700 -10.581300
C -33.963700 -46.085800 -9.680300
C -33.851300 -44.049900 -8.441800
O -33.074100 -41.355400 -7.594300
C -32.597000 -46.076900 -9.909300
C -32.471700 -44.008100 -8.630900
H -32.137000 -39.413700 -6.545600
H -32.113000 -46.873600 -10.486200
C -31.931200 -41.786300 -7.642000
C -31.877800 -45.027700 -9.393700
N -31.624300 -43.023200 -8.116800
C -31.090900 -39.706900 -6.645400
C -30.766000 -40.954000 -7.190500
H -30.636600 -43.266600 -8.090800
Cl -30.535200 -37.269800 -5.632900
Cl -30.178900 -44.966800 -9.732700
C -30.098100 -38.838600 -6.227300
C -29.406300 -41.299400 -7.292200
O -29.053400 -42.496400 -7.831500
C -28.754300 -39.189900 -6.306900
C -28.422800 -40.424700 -6.831800
H -28.095900 -42.745000 -7.896700
H -27.977900 -38.506100 -5.951600
H -27.373700 -40.719900 -6.891200
