29
Fragment
H -32.643200 -30.117400 -6.697100
H -32.039000 -27.903600 -7.636600
H -31.921000 -32.142500 -5.691500
C -31.594100 -29.822200 -6.756500
C -31.262600 -28.587500 -7.281300
O -30.963500 -31.894000 -5.756700
C -30.610600 -30.696900 -6.296000
C -29.918800 -28.236100 -7.360900
Cl -29.838000 -34.364300 -3.855600
Cl -29.481700 -26.667400 -7.955300
H -29.380300 -32.664100 -5.497400
C -29.250800 -30.351500 -6.397700
C -28.925900 -29.104400 -6.942800
N -28.392600 -32.420700 -5.471400
C -28.139100 -34.425200 -4.194500
C -28.085700 -31.183800 -5.946200
H -27.903800 -36.271100 -3.102000
H -27.879800 -28.811200 -7.042600
C -27.545100 -33.405700 -4.957400
C -27.419900 -35.474400 -3.678900
O -26.942800 -30.752900 -5.994000
C -26.165600 -33.447400 -5.146400
C -26.053100 -35.483300 -3.908000
O -25.850500 -37.596200 -3.006900
H -25.673200 -32.657800 -5.718700
C -25.419500 -34.485400 -4.613400
N -25.261300 -36.589200 -3.361300
H -24.336800 -34.506800 -4.752000
O -24.052200 -36.460900 -3.290700
29
Fragment
H -32.643200 -30.117400 -2.814700
H -32.039000 -27.903600 -3.754200
H -31.921000 -32.142500 -1.809200
C -31.594100 -29.822200 -2.874100
C -31.262600 -28.587500 -3.399000
O -30.963500 -31.894000 -1.874400
C -30.610600 -30.696900 -2.413700
C -29.918800 -28.236100 -3.478600
Cl -29.838000 -34.364300 0.026800
Cl -29.481700 -26.667400 -4.073000
H -29.380300 -32.664100 -1.615100
C -29.250800 -30.351500 -2.515400
C -28.925900 -29.104400 -3.060500
N -28.392600 -32.420700 -1.589000
C -28.139100 -34.425200 -0.312100
C -28.085700 -31.183800 -2.063900
H -27.903800 -36.271100 0.780400
H -27.879800 -28.811200 -3.160200
C -27.545100 -33.405700 -1.075000
C -27.419900 -35.474400 0.203400
O -26.942800 -30.752900 -2.111600
C -26.165600 -33.447400 -1.264100
C -26.053100 -35.483300 -0.025600
O -25.850500 -37.596200 0.875500
H -25.673200 -32.657800 -1.836400
C -25.419500 -34.485400 -0.731000
N -25.261300 -36.589200 0.521000
H -24.336800 -34.506800 -0.869600
O -24.052200 -36.460900 0.591700
58
Fragment
H -32.643200 -30.117400 -6.697100
H -32.039000 -27.903600 -7.636600
H -31.921000 -32.142500 -5.691500
C -31.594100 -29.822200 -6.756500
C -31.262600 -28.587500 -7.281300
O -30.963500 -31.894000 -5.756700
C -30.610600 -30.696900 -6.296000
C -29.918800 -28.236100 -7.360900
Cl -29.838000 -34.364300 -3.855600
Cl -29.481700 -26.667400 -7.955300
H -29.380300 -32.664100 -5.497400
C -29.250800 -30.351500 -6.397700
C -28.925900 -29.104400 -6.942800
N -28.392600 -32.420700 -5.471400
C -28.139100 -34.425200 -4.194500
C -28.085700 -31.183800 -5.946200
H -27.903800 -36.271100 -3.102000
H -27.879800 -28.811200 -7.042600
C -27.545100 -33.405700 -4.957400
C -27.419900 -35.474400 -3.678900
O -26.942800 -30.752900 -5.994000
C -26.165600 -33.447400 -5.146400
C -26.053100 -35.483300 -3.908000
O -25.850500 -37.596200 -3.006900
H -25.673200 -32.657800 -5.718700
C -25.419500 -34.485400 -4.613400
N -25.261300 -36.589200 -3.361300
H -24.336800 -34.506800 -4.752000
O -24.052200 -36.460900 -3.290700
H -32.643200 -30.117400 -2.814700
H -32.039000 -27.903600 -3.754200
H -31.921000 -32.142500 -1.809200
C -31.594100 -29.822200 -2.874100
C -31.262600 -28.587500 -3.399000
O -30.963500 -31.894000 -1.874400
C -30.610600 -30.696900 -2.413700
C -29.918800 -28.236100 -3.478600
Cl -29.838000 -34.364300 0.026800
Cl -29.481700 -26.667400 -4.073000
H -29.380300 -32.664100 -1.615100
C -29.250800 -30.351500 -2.515400
C -28.925900 -29.104400 -3.060500
N -28.392600 -32.420700 -1.589000
C -28.139100 -34.425200 -0.312100
C -28.085700 -31.183800 -2.063900
H -27.903800 -36.271100 0.780400
H -27.879800 -28.811200 -3.160200
C -27.545100 -33.405700 -1.075000
C -27.419900 -35.474400 0.203400
O -26.942800 -30.752900 -2.111600
C -26.165600 -33.447400 -1.264100
C -26.053100 -35.483300 -0.025600
O -25.850500 -37.596200 0.875500
H -25.673200 -32.657800 -1.836400
C -25.419500 -34.485400 -0.731000
N -25.261300 -36.589200 0.521000
H -24.336800 -34.506800 -0.869600
O -24.052200 -36.460900 0.591700
