45
Fragment
H -37.419600 -10.920600 -26.415500
H -37.218400 -12.094800 -25.434800
N -37.146100 -11.765200 -26.268200
C -36.368700 -12.417600 -27.151300
N -36.175100 -11.838500 -28.354800
H -35.927200 -8.674500 -32.072200
N -35.845400 -13.601800 -26.739100
H -35.657800 -9.342800 -33.469800
N -35.551800 -10.766600 -30.773600
C -35.382900 -12.545000 -29.180000
C -35.298600 -9.179700 -32.593400
H -35.239300 -14.033700 -32.228300
H -35.129700 -16.181500 -27.258500
N -35.091200 -12.049800 -30.407000
C -35.089600 -14.187700 -27.670500
C -35.032000 -10.475400 -31.904300
N -34.822000 -13.745800 -28.889600
H -34.539100 -11.871700 -33.280700
H -34.481600 -8.686200 -32.689300
C -34.452300 -15.501700 -27.265300
C -34.363100 -13.976300 -31.839700
H -34.326800 -17.270900 -29.376100
H -34.280400 -14.584600 -31.102500
C -34.134300 -11.526400 -32.481200
H -34.099200 -15.431800 -26.375100
C -34.033700 -12.573300 -31.350600
H -33.706000 -14.160200 -32.514800
C -33.528400 -16.749100 -29.259700
N -33.402300 -15.915300 -28.183400
H -33.269600 -11.177700 -32.705800
C -32.667900 -12.495000 -30.682300
H -32.624400 -13.069200 -29.914200
N -32.481400 -16.774900 -30.055600
H -32.450800 -11.584600 -30.468900
C -32.159000 -15.315300 -28.310300
H -32.015200 -12.747200 -31.339400
H -31.905000 -14.012900 -26.735100
C -31.591600 -15.866200 -29.468700
C -31.511700 -14.364100 -27.536800
C -30.322700 -15.469200 -29.882400
C -30.252700 -13.982100 -27.958100
H -29.983500 -15.892800 -30.674600
H -29.776600 -13.323900 -27.447700
C -29.665000 -14.527200 -29.103400
H -28.783200 -14.246800 -29.361400
45
Fragment
H -33.478200 -22.568500 -34.918900
C -32.596400 -22.848900 -35.176900
H -32.484900 -21.645600 -36.832600
H -32.278000 -24.214500 -33.605700
C -32.008800 -22.303800 -36.322200
C -31.938800 -23.790900 -34.397900
C -30.749800 -22.685800 -36.743500
C -30.669800 -24.187900 -34.811600
H -30.356400 -22.334600 -37.545200
H -30.246300 -21.068900 -32.940900
C -30.102500 -23.637000 -35.970000
H -29.810600 -19.906300 -33.811400
N -29.780100 -25.096600 -34.224700
H -29.637100 -21.390900 -34.366100
C -29.593600 -20.816700 -33.598000
H -28.991900 -19.499400 -31.574500
N -28.859200 -24.237000 -36.096900
C -28.733000 -25.070800 -35.020600
H -28.555500 -22.481900 -31.765500
C -28.227800 -20.895000 -32.929700
H -28.162300 -23.753500 -37.905200
C -28.127200 -19.848100 -31.799100
H -27.981100 -22.906300 -33.177800
H -27.934700 -25.592600 -34.904200
C -27.898400 -22.298000 -32.440600
C -27.809200 -23.823400 -37.015000
H -27.779900 -17.007900 -31.591000
H -27.722400 -20.193400 -30.999600
N -27.439500 -22.067500 -35.390700
C -27.229500 -18.797100 -32.376000
C -27.171900 -22.509400 -36.609800
N -27.170300 -20.371500 -33.873300
H -27.131700 -24.503200 -37.021800
H -27.022100 -22.355400 -32.052000
C -26.962800 -17.501400 -31.686900
C -26.878600 -20.866700 -35.100400
N -26.709600 -19.088300 -33.506800
H -26.603700 -17.664500 -30.810500
N -26.416100 -21.923500 -37.541200
H -26.334300 -16.996200 -32.208100
N -26.086400 -20.160200 -35.925500
C -25.892700 -20.739300 -37.129000
N -25.115400 -20.086900 -38.012100
H -25.043100 -20.416500 -38.845500
H -24.841900 -19.242300 -37.864800
90
Fragment
H -37.419600 -10.920600 -26.415500
H -37.218400 -12.094800 -25.434800
N -37.146100 -11.765200 -26.268200
C -36.368700 -12.417600 -27.151300
N -36.175100 -11.838500 -28.354800
H -35.927200 -8.674500 -32.072200
N -35.845400 -13.601800 -26.739100
H -35.657800 -9.342800 -33.469800
N -35.551800 -10.766600 -30.773600
C -35.382900 -12.545000 -29.180000
C -35.298600 -9.179700 -32.593400
H -35.239300 -14.033700 -32.228300
H -35.129700 -16.181500 -27.258500
N -35.091200 -12.049800 -30.407000
C -35.089600 -14.187700 -27.670500
C -35.032000 -10.475400 -31.904300
N -34.822000 -13.745800 -28.889600
H -34.539100 -11.871700 -33.280700
H -34.481600 -8.686200 -32.689300
C -34.452300 -15.501700 -27.265300
C -34.363100 -13.976300 -31.839700
H -34.326800 -17.270900 -29.376100
H -34.280400 -14.584600 -31.102500
C -34.134300 -11.526400 -32.481200
H -34.099200 -15.431800 -26.375100
C -34.033700 -12.573300 -31.350600
H -33.706000 -14.160200 -32.514800
C -33.528400 -16.749100 -29.259700
N -33.402300 -15.915300 -28.183400
H -33.269600 -11.177700 -32.705800
C -32.667900 -12.495000 -30.682300
H -32.624400 -13.069200 -29.914200
N -32.481400 -16.774900 -30.055600
H -32.450800 -11.584600 -30.468900
C -32.159000 -15.315300 -28.310300
H -32.015200 -12.747200 -31.339400
H -31.905000 -14.012900 -26.735100
C -31.591600 -15.866200 -29.468700
C -31.511700 -14.364100 -27.536800
C -30.322700 -15.469200 -29.882400
C -30.252700 -13.982100 -27.958100
H -29.983500 -15.892800 -30.674600
H -29.776600 -13.323900 -27.447700
C -29.665000 -14.527200 -29.103400
H -28.783200 -14.246800 -29.361400
H -33.478200 -22.568500 -34.918900
C -32.596400 -22.848900 -35.176900
H -32.484900 -21.645600 -36.832600
H -32.278000 -24.214500 -33.605700
C -32.008800 -22.303800 -36.322200
C -31.938800 -23.790900 -34.397900
C -30.749800 -22.685800 -36.743500
C -30.669800 -24.187900 -34.811600
H -30.356400 -22.334600 -37.545200
H -30.246300 -21.068900 -32.940900
C -30.102500 -23.637000 -35.970000
H -29.810600 -19.906300 -33.811400
N -29.780100 -25.096600 -34.224700
H -29.637100 -21.390900 -34.366100
C -29.593600 -20.816700 -33.598000
H -28.991900 -19.499400 -31.574500
N -28.859200 -24.237000 -36.096900
C -28.733000 -25.070800 -35.020600
H -28.555500 -22.481900 -31.765500
C -28.227800 -20.895000 -32.929700
H -28.162300 -23.753500 -37.905200
C -28.127200 -19.848100 -31.799100
H -27.981100 -22.906300 -33.177800
H -27.934700 -25.592600 -34.904200
C -27.898400 -22.298000 -32.440600
C -27.809200 -23.823400 -37.015000
H -27.779900 -17.007900 -31.591000
H -27.722400 -20.193400 -30.999600
N -27.439500 -22.067500 -35.390700
C -27.229500 -18.797100 -32.376000
C -27.171900 -22.509400 -36.609800
N -27.170300 -20.371500 -33.873300
H -27.131700 -24.503200 -37.021800
H -27.022100 -22.355400 -32.052000
C -26.962800 -17.501400 -31.686900
C -26.878600 -20.866700 -35.100400
N -26.709600 -19.088300 -33.506800
H -26.603700 -17.664500 -30.810500
N -26.416100 -21.923500 -37.541200
H -26.334300 -16.996200 -32.208100
N -26.086400 -20.160200 -35.925500
C -25.892700 -20.739300 -37.129000
N -25.115400 -20.086900 -38.012100
H -25.043100 -20.416500 -38.845500
H -24.841900 -19.242300 -37.864800
