45
Fragment
H -37.419600 -10.920600 -26.415500
H -37.218400 -12.094800 -25.434800
N -37.146100 -11.765200 -26.268200
C -36.368700 -12.417600 -27.151300
N -36.175100 -11.838500 -28.354800
H -35.927200 -8.674500 -32.072200
N -35.845400 -13.601800 -26.739100
H -35.657800 -9.342800 -33.469800
N -35.551800 -10.766600 -30.773600
C -35.382900 -12.545000 -29.180000
C -35.298600 -9.179700 -32.593400
H -35.239300 -14.033700 -32.228300
H -35.129700 -16.181500 -27.258500
N -35.091200 -12.049800 -30.407000
C -35.089600 -14.187700 -27.670500
C -35.032000 -10.475400 -31.904300
N -34.822000 -13.745800 -28.889600
H -34.539100 -11.871700 -33.280700
H -34.481600 -8.686200 -32.689300
C -34.452300 -15.501700 -27.265300
C -34.363100 -13.976300 -31.839700
H -34.326800 -17.270900 -29.376100
H -34.280400 -14.584600 -31.102500
C -34.134300 -11.526400 -32.481200
H -34.099200 -15.431800 -26.375100
C -34.033700 -12.573300 -31.350600
H -33.706000 -14.160200 -32.514800
C -33.528400 -16.749100 -29.259700
N -33.402300 -15.915300 -28.183400
H -33.269600 -11.177700 -32.705800
C -32.667900 -12.495000 -30.682300
H -32.624400 -13.069200 -29.914200
N -32.481400 -16.774900 -30.055600
H -32.450800 -11.584600 -30.468900
C -32.159000 -15.315300 -28.310300
H -32.015200 -12.747200 -31.339400
H -31.905000 -14.012900 -26.735100
C -31.591600 -15.866200 -29.468700
C -31.511700 -14.364100 -27.536800
C -30.322700 -15.469200 -29.882400
C -30.252700 -13.982100 -27.958100
H -29.983500 -15.892800 -30.674600
H -29.776600 -13.323900 -27.447700
C -29.665000 -14.527200 -29.103400
H -28.783200 -14.246800 -29.361400
45
Fragment
H -34.227900 -10.718300 -25.736000
C -33.346100 -10.437900 -25.994000
H -33.234500 -11.641200 -27.649700
H -33.027700 -9.072300 -24.422800
C -32.758400 -10.983000 -27.139300
C -32.688500 -9.495900 -25.215000
C -31.499400 -10.601000 -27.560600
C -31.419500 -9.098900 -25.628700
H -31.106100 -10.952200 -28.362300
H -30.995900 -12.217900 -23.758000
C -30.852100 -9.649800 -26.787100
H -30.560300 -13.380500 -24.628500
N -30.529700 -8.190200 -25.041800
H -30.386700 -11.895900 -25.183200
C -30.343200 -12.470100 -24.415100
H -29.741500 -13.787400 -22.391600
N -29.608800 -9.049800 -26.914000
C -29.482700 -8.216000 -25.837700
H -29.305100 -10.804900 -22.582600
C -28.977400 -12.391800 -23.746800
H -28.911900 -9.533300 -28.722300
C -28.876800 -13.438700 -22.616200
H -28.730800 -10.380500 -23.994900
H -28.684300 -7.694200 -25.721300
C -28.648100 -10.988800 -23.257700
C -28.558800 -9.463400 -27.832100
H -28.529500 -16.278900 -22.408100
H -28.472000 -13.093400 -21.816700
N -28.189200 -11.219300 -26.207800
C -27.979100 -14.489700 -23.193100
C -27.921500 -10.777400 -27.426900
N -27.919900 -12.915300 -24.690400
H -27.881400 -8.783600 -27.838900
H -27.771800 -10.931400 -22.869100
C -27.712500 -15.785400 -22.504000
C -27.628200 -12.420100 -25.917500
N -27.459300 -14.198500 -24.323900
H -27.353300 -15.622300 -21.627600
N -27.165700 -11.363300 -28.358300
H -27.083900 -16.290600 -23.025200
N -26.836100 -13.126600 -26.742600
C -26.642400 -12.547500 -27.946100
N -25.865100 -13.199900 -28.829200
H -25.792800 -12.870300 -29.662600
H -25.591500 -14.044500 -28.681900
90
Fragment
H -37.419600 -10.920600 -26.415500
H -37.218400 -12.094800 -25.434800
N -37.146100 -11.765200 -26.268200
C -36.368700 -12.417600 -27.151300
N -36.175100 -11.838500 -28.354800
H -35.927200 -8.674500 -32.072200
N -35.845400 -13.601800 -26.739100
H -35.657800 -9.342800 -33.469800
N -35.551800 -10.766600 -30.773600
C -35.382900 -12.545000 -29.180000
C -35.298600 -9.179700 -32.593400
H -35.239300 -14.033700 -32.228300
H -35.129700 -16.181500 -27.258500
N -35.091200 -12.049800 -30.407000
C -35.089600 -14.187700 -27.670500
C -35.032000 -10.475400 -31.904300
N -34.822000 -13.745800 -28.889600
H -34.539100 -11.871700 -33.280700
H -34.481600 -8.686200 -32.689300
C -34.452300 -15.501700 -27.265300
C -34.363100 -13.976300 -31.839700
H -34.326800 -17.270900 -29.376100
H -34.280400 -14.584600 -31.102500
C -34.134300 -11.526400 -32.481200
H -34.099200 -15.431800 -26.375100
C -34.033700 -12.573300 -31.350600
H -33.706000 -14.160200 -32.514800
C -33.528400 -16.749100 -29.259700
N -33.402300 -15.915300 -28.183400
H -33.269600 -11.177700 -32.705800
C -32.667900 -12.495000 -30.682300
H -32.624400 -13.069200 -29.914200
N -32.481400 -16.774900 -30.055600
H -32.450800 -11.584600 -30.468900
C -32.159000 -15.315300 -28.310300
H -32.015200 -12.747200 -31.339400
H -31.905000 -14.012900 -26.735100
C -31.591600 -15.866200 -29.468700
C -31.511700 -14.364100 -27.536800
C -30.322700 -15.469200 -29.882400
C -30.252700 -13.982100 -27.958100
H -29.983500 -15.892800 -30.674600
H -29.776600 -13.323900 -27.447700
C -29.665000 -14.527200 -29.103400
H -28.783200 -14.246800 -29.361400
H -34.227900 -10.718300 -25.736000
C -33.346100 -10.437900 -25.994000
H -33.234500 -11.641200 -27.649700
H -33.027700 -9.072300 -24.422800
C -32.758400 -10.983000 -27.139300
C -32.688500 -9.495900 -25.215000
C -31.499400 -10.601000 -27.560600
C -31.419500 -9.098900 -25.628700
H -31.106100 -10.952200 -28.362300
H -30.995900 -12.217900 -23.758000
C -30.852100 -9.649800 -26.787100
H -30.560300 -13.380500 -24.628500
N -30.529700 -8.190200 -25.041800
H -30.386700 -11.895900 -25.183200
C -30.343200 -12.470100 -24.415100
H -29.741500 -13.787400 -22.391600
N -29.608800 -9.049800 -26.914000
C -29.482700 -8.216000 -25.837700
H -29.305100 -10.804900 -22.582600
C -28.977400 -12.391800 -23.746800
H -28.911900 -9.533300 -28.722300
C -28.876800 -13.438700 -22.616200
H -28.730800 -10.380500 -23.994900
H -28.684300 -7.694200 -25.721300
C -28.648100 -10.988800 -23.257700
C -28.558800 -9.463400 -27.832100
H -28.529500 -16.278900 -22.408100
H -28.472000 -13.093400 -21.816700
N -28.189200 -11.219300 -26.207800
C -27.979100 -14.489700 -23.193100
C -27.921500 -10.777400 -27.426900
N -27.919900 -12.915300 -24.690400
H -27.881400 -8.783600 -27.838900
H -27.771800 -10.931400 -22.869100
C -27.712500 -15.785400 -22.504000
C -27.628200 -12.420100 -25.917500
N -27.459300 -14.198500 -24.323900
H -27.353300 -15.622300 -21.627600
N -27.165700 -11.363300 -28.358300
H -27.083900 -16.290600 -23.025200
N -26.836100 -13.126600 -26.742600
C -26.642400 -12.547500 -27.946100
N -25.865100 -13.199900 -28.829200
H -25.792800 -12.870300 -29.662600
H -25.591500 -14.044500 -28.681900
