45
Fragment
H -37.419600 -10.920600 -26.415500
H -37.218400 -12.094800 -25.434800
N -37.146100 -11.765200 -26.268200
C -36.368700 -12.417600 -27.151300
N -36.175100 -11.838500 -28.354800
H -35.927200 -8.674500 -32.072200
N -35.845400 -13.601800 -26.739100
H -35.657800 -9.342800 -33.469800
N -35.551800 -10.766600 -30.773600
C -35.382900 -12.545000 -29.180000
C -35.298600 -9.179700 -32.593400
H -35.239300 -14.033700 -32.228300
H -35.129700 -16.181500 -27.258500
N -35.091200 -12.049800 -30.407000
C -35.089600 -14.187700 -27.670500
C -35.032000 -10.475400 -31.904300
N -34.822000 -13.745800 -28.889600
H -34.539100 -11.871700 -33.280700
H -34.481600 -8.686200 -32.689300
C -34.452300 -15.501700 -27.265300
C -34.363100 -13.976300 -31.839700
H -34.326800 -17.270900 -29.376100
H -34.280400 -14.584600 -31.102500
C -34.134300 -11.526400 -32.481200
H -34.099200 -15.431800 -26.375100
C -34.033700 -12.573300 -31.350600
H -33.706000 -14.160200 -32.514800
C -33.528400 -16.749100 -29.259700
N -33.402300 -15.915300 -28.183400
H -33.269600 -11.177700 -32.705800
C -32.667900 -12.495000 -30.682300
H -32.624400 -13.069200 -29.914200
N -32.481400 -16.774900 -30.055600
H -32.450800 -11.584600 -30.468900
C -32.159000 -15.315300 -28.310300
H -32.015200 -12.747200 -31.339400
H -31.905000 -14.012900 -26.735100
C -31.591600 -15.866200 -29.468700
C -31.511700 -14.364100 -27.536800
C -30.322700 -15.469200 -29.882400
C -30.252700 -13.982100 -27.958100
H -29.983500 -15.892800 -30.674600
H -29.776600 -13.323900 -27.447700
C -29.665000 -14.527200 -29.103400
H -28.783200 -14.246800 -29.361400
45
Fragment
H -45.479400 -14.879200 -25.736000
C -44.597600 -14.598800 -25.994000
H -44.486000 -15.802100 -27.649700
H -44.279200 -13.233200 -24.422800
C -44.009900 -15.143800 -27.139300
C -43.940000 -13.656700 -25.215000
C -42.750900 -14.761900 -27.560600
C -42.671000 -13.259800 -25.628700
H -42.357600 -15.113000 -28.362300
H -42.247400 -16.378800 -23.758000
C -42.103600 -13.810700 -26.787100
H -41.811800 -17.541300 -24.628500
N -41.781200 -12.351100 -25.041800
H -41.638200 -16.056700 -25.183200
C -41.594700 -16.630900 -24.415100
H -40.993000 -17.948200 -22.391600
N -40.860300 -13.210700 -26.914000
C -40.734200 -12.376900 -25.837700
H -40.556600 -14.965700 -22.582600
C -40.228900 -16.552700 -23.746800
H -40.163400 -13.694200 -28.722300
C -40.128300 -17.599600 -22.616200
H -39.982300 -14.541300 -23.994900
H -39.935800 -11.855100 -25.721300
C -39.899600 -15.149700 -23.257700
C -39.810300 -13.624300 -27.832100
H -39.781000 -20.439800 -22.408100
H -39.723500 -17.254200 -21.816700
N -39.440700 -15.380200 -26.207800
C -39.230600 -18.650600 -23.193100
C -39.173000 -14.938300 -27.426900
N -39.171400 -17.076100 -24.690400
H -39.132900 -12.944400 -27.838900
H -39.023300 -15.092200 -22.869100
C -38.964000 -19.946300 -22.504000
C -38.879700 -16.581000 -25.917500
N -38.710800 -18.359300 -24.323900
H -38.604800 -19.783200 -21.627600
N -38.417200 -15.524100 -28.358300
H -38.335400 -20.451400 -23.025200
N -38.087600 -17.287500 -26.742600
C -37.893900 -16.708300 -27.946100
N -37.116600 -17.360700 -28.829200
H -37.044300 -17.031200 -29.662600
H -36.843000 -18.205400 -28.681900
90
Fragment
H -37.419600 -10.920600 -26.415500
H -37.218400 -12.094800 -25.434800
N -37.146100 -11.765200 -26.268200
C -36.368700 -12.417600 -27.151300
N -36.175100 -11.838500 -28.354800
H -35.927200 -8.674500 -32.072200
N -35.845400 -13.601800 -26.739100
H -35.657800 -9.342800 -33.469800
N -35.551800 -10.766600 -30.773600
C -35.382900 -12.545000 -29.180000
C -35.298600 -9.179700 -32.593400
H -35.239300 -14.033700 -32.228300
H -35.129700 -16.181500 -27.258500
N -35.091200 -12.049800 -30.407000
C -35.089600 -14.187700 -27.670500
C -35.032000 -10.475400 -31.904300
N -34.822000 -13.745800 -28.889600
H -34.539100 -11.871700 -33.280700
H -34.481600 -8.686200 -32.689300
C -34.452300 -15.501700 -27.265300
C -34.363100 -13.976300 -31.839700
H -34.326800 -17.270900 -29.376100
H -34.280400 -14.584600 -31.102500
C -34.134300 -11.526400 -32.481200
H -34.099200 -15.431800 -26.375100
C -34.033700 -12.573300 -31.350600
H -33.706000 -14.160200 -32.514800
C -33.528400 -16.749100 -29.259700
N -33.402300 -15.915300 -28.183400
H -33.269600 -11.177700 -32.705800
C -32.667900 -12.495000 -30.682300
H -32.624400 -13.069200 -29.914200
N -32.481400 -16.774900 -30.055600
H -32.450800 -11.584600 -30.468900
C -32.159000 -15.315300 -28.310300
H -32.015200 -12.747200 -31.339400
H -31.905000 -14.012900 -26.735100
C -31.591600 -15.866200 -29.468700
C -31.511700 -14.364100 -27.536800
C -30.322700 -15.469200 -29.882400
C -30.252700 -13.982100 -27.958100
H -29.983500 -15.892800 -30.674600
H -29.776600 -13.323900 -27.447700
C -29.665000 -14.527200 -29.103400
H -28.783200 -14.246800 -29.361400
H -45.479400 -14.879200 -25.736000
C -44.597600 -14.598800 -25.994000
H -44.486000 -15.802100 -27.649700
H -44.279200 -13.233200 -24.422800
C -44.009900 -15.143800 -27.139300
C -43.940000 -13.656700 -25.215000
C -42.750900 -14.761900 -27.560600
C -42.671000 -13.259800 -25.628700
H -42.357600 -15.113000 -28.362300
H -42.247400 -16.378800 -23.758000
C -42.103600 -13.810700 -26.787100
H -41.811800 -17.541300 -24.628500
N -41.781200 -12.351100 -25.041800
H -41.638200 -16.056700 -25.183200
C -41.594700 -16.630900 -24.415100
H -40.993000 -17.948200 -22.391600
N -40.860300 -13.210700 -26.914000
C -40.734200 -12.376900 -25.837700
H -40.556600 -14.965700 -22.582600
C -40.228900 -16.552700 -23.746800
H -40.163400 -13.694200 -28.722300
C -40.128300 -17.599600 -22.616200
H -39.982300 -14.541300 -23.994900
H -39.935800 -11.855100 -25.721300
C -39.899600 -15.149700 -23.257700
C -39.810300 -13.624300 -27.832100
H -39.781000 -20.439800 -22.408100
H -39.723500 -17.254200 -21.816700
N -39.440700 -15.380200 -26.207800
C -39.230600 -18.650600 -23.193100
C -39.173000 -14.938300 -27.426900
N -39.171400 -17.076100 -24.690400
H -39.132900 -12.944400 -27.838900
H -39.023300 -15.092200 -22.869100
C -38.964000 -19.946300 -22.504000
C -38.879700 -16.581000 -25.917500
N -38.710800 -18.359300 -24.323900
H -38.604800 -19.783200 -21.627600
N -38.417200 -15.524100 -28.358300
H -38.335400 -20.451400 -23.025200
N -38.087600 -17.287500 -26.742600
C -37.893900 -16.708300 -27.946100
N -37.116600 -17.360700 -28.829200
H -37.044300 -17.031200 -29.662600
H -36.843000 -18.205400 -28.681900
