45
Fragment
H -37.419600 -10.920600 -26.415500
H -37.218400 -12.094800 -25.434800
N -37.146100 -11.765200 -26.268200
C -36.368700 -12.417600 -27.151300
N -36.175100 -11.838500 -28.354800
H -35.927200 -8.674500 -32.072200
N -35.845400 -13.601800 -26.739100
H -35.657800 -9.342800 -33.469800
N -35.551800 -10.766600 -30.773600
C -35.382900 -12.545000 -29.180000
C -35.298600 -9.179700 -32.593400
H -35.239300 -14.033700 -32.228300
H -35.129700 -16.181500 -27.258500
N -35.091200 -12.049800 -30.407000
C -35.089600 -14.187700 -27.670500
C -35.032000 -10.475400 -31.904300
N -34.822000 -13.745800 -28.889600
H -34.539100 -11.871700 -33.280700
H -34.481600 -8.686200 -32.689300
C -34.452300 -15.501700 -27.265300
C -34.363100 -13.976300 -31.839700
H -34.326800 -17.270900 -29.376100
H -34.280400 -14.584600 -31.102500
C -34.134300 -11.526400 -32.481200
H -34.099200 -15.431800 -26.375100
C -34.033700 -12.573300 -31.350600
H -33.706000 -14.160200 -32.514800
C -33.528400 -16.749100 -29.259700
N -33.402300 -15.915300 -28.183400
H -33.269600 -11.177700 -32.705800
C -32.667900 -12.495000 -30.682300
H -32.624400 -13.069200 -29.914200
N -32.481400 -16.774900 -30.055600
H -32.450800 -11.584600 -30.468900
C -32.159000 -15.315300 -28.310300
H -32.015200 -12.747200 -31.339400
H -31.905000 -14.012900 -26.735100
C -31.591600 -15.866200 -29.468700
C -31.511700 -14.364100 -27.536800
C -30.322700 -15.469200 -29.882400
C -30.252700 -13.982100 -27.958100
H -29.983500 -15.892800 -30.674600
H -29.776600 -13.323900 -27.447700
C -29.665000 -14.527200 -29.103400
H -28.783200 -14.246800 -29.361400
45
Fragment
H -37.419600 -19.242300 -26.415500
H -37.218400 -20.416500 -25.434800
N -37.146100 -20.086900 -26.268200
C -36.368700 -20.739300 -27.151300
N -36.175100 -20.160200 -28.354800
H -35.927200 -16.996200 -32.072200
N -35.845400 -21.923500 -26.739100
H -35.657800 -17.664500 -33.469800
N -35.551800 -19.088300 -30.773600
C -35.382900 -20.866700 -29.180000
C -35.298600 -17.501400 -32.593400
H -35.239300 -22.355400 -32.228300
H -35.129700 -24.503200 -27.258500
N -35.091200 -20.371500 -30.407000
C -35.089600 -22.509400 -27.670500
C -35.032000 -18.797100 -31.904300
N -34.822000 -22.067500 -28.889600
H -34.539100 -20.193400 -33.280700
H -34.481600 -17.007900 -32.689300
C -34.452300 -23.823400 -27.265300
C -34.363100 -22.298000 -31.839700
H -34.326800 -25.592600 -29.376100
H -34.280400 -22.906300 -31.102500
C -34.134300 -19.848100 -32.481200
H -34.099200 -23.753500 -26.375100
C -34.033700 -20.895000 -31.350600
H -33.706000 -22.481900 -32.514800
C -33.528400 -25.070800 -29.259700
N -33.402300 -24.237000 -28.183400
H -33.269600 -19.499400 -32.705800
C -32.667900 -20.816700 -30.682300
H -32.624400 -21.390900 -29.914200
N -32.481400 -25.096600 -30.055600
H -32.450800 -19.906300 -30.468900
C -32.159000 -23.637000 -28.310300
H -32.015200 -21.068900 -31.339400
H -31.905000 -22.334600 -26.735100
C -31.591600 -24.187900 -29.468700
C -31.511700 -22.685800 -27.536800
C -30.322700 -23.790900 -29.882400
C -30.252700 -22.303800 -27.958100
H -29.983500 -24.214500 -30.674600
H -29.776600 -21.645600 -27.447700
C -29.665000 -22.848900 -29.103400
H -28.783200 -22.568500 -29.361400
90
Fragment
H -37.419600 -10.920600 -26.415500
H -37.218400 -12.094800 -25.434800
N -37.146100 -11.765200 -26.268200
C -36.368700 -12.417600 -27.151300
N -36.175100 -11.838500 -28.354800
H -35.927200 -8.674500 -32.072200
N -35.845400 -13.601800 -26.739100
H -35.657800 -9.342800 -33.469800
N -35.551800 -10.766600 -30.773600
C -35.382900 -12.545000 -29.180000
C -35.298600 -9.179700 -32.593400
H -35.239300 -14.033700 -32.228300
H -35.129700 -16.181500 -27.258500
N -35.091200 -12.049800 -30.407000
C -35.089600 -14.187700 -27.670500
C -35.032000 -10.475400 -31.904300
N -34.822000 -13.745800 -28.889600
H -34.539100 -11.871700 -33.280700
H -34.481600 -8.686200 -32.689300
C -34.452300 -15.501700 -27.265300
C -34.363100 -13.976300 -31.839700
H -34.326800 -17.270900 -29.376100
H -34.280400 -14.584600 -31.102500
C -34.134300 -11.526400 -32.481200
H -34.099200 -15.431800 -26.375100
C -34.033700 -12.573300 -31.350600
H -33.706000 -14.160200 -32.514800
C -33.528400 -16.749100 -29.259700
N -33.402300 -15.915300 -28.183400
H -33.269600 -11.177700 -32.705800
C -32.667900 -12.495000 -30.682300
H -32.624400 -13.069200 -29.914200
N -32.481400 -16.774900 -30.055600
H -32.450800 -11.584600 -30.468900
C -32.159000 -15.315300 -28.310300
H -32.015200 -12.747200 -31.339400
H -31.905000 -14.012900 -26.735100
C -31.591600 -15.866200 -29.468700
C -31.511700 -14.364100 -27.536800
C -30.322700 -15.469200 -29.882400
C -30.252700 -13.982100 -27.958100
H -29.983500 -15.892800 -30.674600
H -29.776600 -13.323900 -27.447700
C -29.665000 -14.527200 -29.103400
H -28.783200 -14.246800 -29.361400
H -37.419600 -19.242300 -26.415500
H -37.218400 -20.416500 -25.434800
N -37.146100 -20.086900 -26.268200
C -36.368700 -20.739300 -27.151300
N -36.175100 -20.160200 -28.354800
H -35.927200 -16.996200 -32.072200
N -35.845400 -21.923500 -26.739100
H -35.657800 -17.664500 -33.469800
N -35.551800 -19.088300 -30.773600
C -35.382900 -20.866700 -29.180000
C -35.298600 -17.501400 -32.593400
H -35.239300 -22.355400 -32.228300
H -35.129700 -24.503200 -27.258500
N -35.091200 -20.371500 -30.407000
C -35.089600 -22.509400 -27.670500
C -35.032000 -18.797100 -31.904300
N -34.822000 -22.067500 -28.889600
H -34.539100 -20.193400 -33.280700
H -34.481600 -17.007900 -32.689300
C -34.452300 -23.823400 -27.265300
C -34.363100 -22.298000 -31.839700
H -34.326800 -25.592600 -29.376100
H -34.280400 -22.906300 -31.102500
C -34.134300 -19.848100 -32.481200
H -34.099200 -23.753500 -26.375100
C -34.033700 -20.895000 -31.350600
H -33.706000 -22.481900 -32.514800
C -33.528400 -25.070800 -29.259700
N -33.402300 -24.237000 -28.183400
H -33.269600 -19.499400 -32.705800
C -32.667900 -20.816700 -30.682300
H -32.624400 -21.390900 -29.914200
N -32.481400 -25.096600 -30.055600
H -32.450800 -19.906300 -30.468900
C -32.159000 -23.637000 -28.310300
H -32.015200 -21.068900 -31.339400
H -31.905000 -22.334600 -26.735100
C -31.591600 -24.187900 -29.468700
C -31.511700 -22.685800 -27.536800
C -30.322700 -23.790900 -29.882400
C -30.252700 -22.303800 -27.958100
H -29.983500 -24.214500 -30.674600
H -29.776600 -21.645600 -27.447700
C -29.665000 -22.848900 -29.103400
H -28.783200 -22.568500 -29.361400
