36
Fragment
H -16.512200 -8.336000 -52.706800
H -16.433800 -8.903600 -55.092700
C -15.610700 -8.611200 -52.587500
C -15.522400 -9.154000 -54.998100
H -15.517200 -8.182500 -50.588300
H -15.283700 -9.552900 -56.919100
C -15.037300 -8.531000 -51.331700
C -14.912400 -9.094700 -53.681300
C -14.841800 -9.549600 -56.077900
H -14.243400 -10.134000 -58.576800
C -13.699700 -8.981500 -51.205400
C -13.562900 -9.531700 -53.565300
C -13.455800 -9.988400 -56.012900
C -13.342000 -10.416300 -58.474000
H -13.281600 -8.954700 -50.353900
H -13.110900 -10.830200 -60.386800
C -12.994500 -9.457000 -52.250600
C -12.847400 -9.977900 -54.715500
C -12.743800 -10.396200 -57.145700
C -12.664600 -10.817300 -59.549300
H -12.104700 -9.758200 -52.110400
C -11.491000 -10.413800 -54.650500
C -11.383400 -10.827200 -57.049900
C -11.284800 -11.239000 -59.495800
H -11.057700 -10.425300 -53.805100
H -11.038400 -11.655700 -61.460400
C -10.806600 -10.814600 -55.737300
C -10.655600 -11.229200 -58.210700
C -10.585200 -11.649400 -60.623300
H -9.907800 -11.102300 -55.627400
C -9.303400 -11.657100 -58.163400
C -9.267200 -12.036100 -60.548900
H -8.856600 -11.682000 -57.326300
H -8.801500 -12.309300 -61.328800
C -8.626700 -12.026500 -59.282300
H -7.713200 -12.276600 -59.210300
20
Fragment
N -24.031500 -5.727200 -55.025600
C -22.898400 -5.951100 -54.973800
H -22.317700 -6.550700 -57.433300
C -21.481600 -6.266000 -54.924800
C -21.395000 -6.755500 -57.336200
H -21.148900 -7.160900 -59.235000
C -20.884800 -6.132100 -53.602700
C -20.776300 -6.646400 -56.004600
C -20.708700 -7.117900 -58.395400
N -20.404700 -6.009900 -52.578500
N -19.579300 -8.073600 -61.785400
C -19.395500 -6.982300 -55.917400
C -19.304600 -7.460200 -58.305300
C -19.182200 -7.966100 -60.723300
H -18.961500 -6.942800 -55.072100
C -18.698100 -7.360700 -56.983700
C -18.614400 -7.846600 -59.393800
H -17.777900 -7.573000 -56.882100
C -17.213600 -8.170500 -59.314400
N -16.073300 -8.418100 -59.277400
56
Fragment
H -16.512200 -8.336000 -52.706800
H -16.433800 -8.903600 -55.092700
C -15.610700 -8.611200 -52.587500
C -15.522400 -9.154000 -54.998100
H -15.517200 -8.182500 -50.588300
H -15.283700 -9.552900 -56.919100
C -15.037300 -8.531000 -51.331700
C -14.912400 -9.094700 -53.681300
C -14.841800 -9.549600 -56.077900
H -14.243400 -10.134000 -58.576800
C -13.699700 -8.981500 -51.205400
C -13.562900 -9.531700 -53.565300
C -13.455800 -9.988400 -56.012900
C -13.342000 -10.416300 -58.474000
H -13.281600 -8.954700 -50.353900
H -13.110900 -10.830200 -60.386800
C -12.994500 -9.457000 -52.250600
C -12.847400 -9.977900 -54.715500
C -12.743800 -10.396200 -57.145700
C -12.664600 -10.817300 -59.549300
H -12.104700 -9.758200 -52.110400
C -11.491000 -10.413800 -54.650500
C -11.383400 -10.827200 -57.049900
C -11.284800 -11.239000 -59.495800
H -11.057700 -10.425300 -53.805100
H -11.038400 -11.655700 -61.460400
C -10.806600 -10.814600 -55.737300
C -10.655600 -11.229200 -58.210700
C -10.585200 -11.649400 -60.623300
H -9.907800 -11.102300 -55.627400
C -9.303400 -11.657100 -58.163400
C -9.267200 -12.036100 -60.548900
H -8.856600 -11.682000 -57.326300
H -8.801500 -12.309300 -61.328800
C -8.626700 -12.026500 -59.282300
H -7.713200 -12.276600 -59.210300
N -24.031500 -5.727200 -55.025600
C -22.898400 -5.951100 -54.973800
H -22.317700 -6.550700 -57.433300
C -21.481600 -6.266000 -54.924800
C -21.395000 -6.755500 -57.336200
H -21.148900 -7.160900 -59.235000
C -20.884800 -6.132100 -53.602700
C -20.776300 -6.646400 -56.004600
C -20.708700 -7.117900 -58.395400
N -20.404700 -6.009900 -52.578500
N -19.579300 -8.073600 -61.785400
C -19.395500 -6.982300 -55.917400
C -19.304600 -7.460200 -58.305300
C -19.182200 -7.966100 -60.723300
H -18.961500 -6.942800 -55.072100
C -18.698100 -7.360700 -56.983700
C -18.614400 -7.846600 -59.393800
H -17.777900 -7.573000 -56.882100
C -17.213600 -8.170500 -59.314400
N -16.073300 -8.418100 -59.277400
