36
Fragment
H -16.512200 -8.336000 -52.706800
H -16.433800 -8.903600 -55.092700
C -15.610700 -8.611200 -52.587500
C -15.522400 -9.154000 -54.998100
H -15.517200 -8.182500 -50.588300
H -15.283700 -9.552900 -56.919100
C -15.037300 -8.531000 -51.331700
C -14.912400 -9.094700 -53.681300
C -14.841800 -9.549600 -56.077900
H -14.243400 -10.134000 -58.576800
C -13.699700 -8.981500 -51.205400
C -13.562900 -9.531700 -53.565300
C -13.455800 -9.988400 -56.012900
C -13.342000 -10.416300 -58.474000
H -13.281600 -8.954700 -50.353900
H -13.110900 -10.830200 -60.386800
C -12.994500 -9.457000 -52.250600
C -12.847400 -9.977900 -54.715500
C -12.743800 -10.396200 -57.145700
C -12.664600 -10.817300 -59.549300
H -12.104700 -9.758200 -52.110400
C -11.491000 -10.413800 -54.650500
C -11.383400 -10.827200 -57.049900
C -11.284800 -11.239000 -59.495800
H -11.057700 -10.425300 -53.805100
H -11.038400 -11.655700 -61.460400
C -10.806600 -10.814600 -55.737300
C -10.655600 -11.229200 -58.210700
C -10.585200 -11.649400 -60.623300
H -9.907800 -11.102300 -55.627400
C -9.303400 -11.657100 -58.163400
C -9.267200 -12.036100 -60.548900
H -8.856600 -11.682000 -57.326300
H -8.801500 -12.309300 -61.328800
C -8.626700 -12.026500 -59.282300
H -7.713200 -12.276600 -59.210300
20
Fragment
N -9.628700 -12.894200 -64.128900
C -8.488300 -13.141800 -64.091900
H -7.924000 -13.739300 -66.524200
C -7.087500 -13.465700 -64.012500
C -7.003800 -13.951600 -66.422600
H -6.740500 -14.369500 -68.334200
C -6.519800 -13.346200 -62.683000
C -6.397300 -13.852100 -65.100900
C -6.306400 -14.330000 -67.488800
N -6.122600 -13.238700 -61.620900
N -5.297200 -15.302400 -70.827800
C -4.993200 -14.194400 -65.010800
C -4.925600 -14.665900 -67.401600
C -4.817100 -15.180200 -69.803500
H -4.553000 -14.151400 -64.171300
C -4.306900 -14.556800 -66.070100
C -4.220300 -15.046300 -68.481400
H -3.384200 -14.761600 -65.973000
C -2.803500 -15.361200 -68.432500
N -1.670500 -15.585100 -68.380600
56
Fragment
H -16.512200 -8.336000 -52.706800
H -16.433800 -8.903600 -55.092700
C -15.610700 -8.611200 -52.587500
C -15.522400 -9.154000 -54.998100
H -15.517200 -8.182500 -50.588300
H -15.283700 -9.552900 -56.919100
C -15.037300 -8.531000 -51.331700
C -14.912400 -9.094700 -53.681300
C -14.841800 -9.549600 -56.077900
H -14.243400 -10.134000 -58.576800
C -13.699700 -8.981500 -51.205400
C -13.562900 -9.531700 -53.565300
C -13.455800 -9.988400 -56.012900
C -13.342000 -10.416300 -58.474000
H -13.281600 -8.954700 -50.353900
H -13.110900 -10.830200 -60.386800
C -12.994500 -9.457000 -52.250600
C -12.847400 -9.977900 -54.715500
C -12.743800 -10.396200 -57.145700
C -12.664600 -10.817300 -59.549300
H -12.104700 -9.758200 -52.110400
C -11.491000 -10.413800 -54.650500
C -11.383400 -10.827200 -57.049900
C -11.284800 -11.239000 -59.495800
H -11.057700 -10.425300 -53.805100
H -11.038400 -11.655700 -61.460400
C -10.806600 -10.814600 -55.737300
C -10.655600 -11.229200 -58.210700
C -10.585200 -11.649400 -60.623300
H -9.907800 -11.102300 -55.627400
C -9.303400 -11.657100 -58.163400
C -9.267200 -12.036100 -60.548900
H -8.856600 -11.682000 -57.326300
H -8.801500 -12.309300 -61.328800
C -8.626700 -12.026500 -59.282300
H -7.713200 -12.276600 -59.210300
N -9.628700 -12.894200 -64.128900
C -8.488300 -13.141800 -64.091900
H -7.924000 -13.739300 -66.524200
C -7.087500 -13.465700 -64.012500
C -7.003800 -13.951600 -66.422600
H -6.740500 -14.369500 -68.334200
C -6.519800 -13.346200 -62.683000
C -6.397300 -13.852100 -65.100900
C -6.306400 -14.330000 -67.488800
N -6.122600 -13.238700 -61.620900
N -5.297200 -15.302400 -70.827800
C -4.993200 -14.194400 -65.010800
C -4.925600 -14.665900 -67.401600
C -4.817100 -15.180200 -69.803500
H -4.553000 -14.151400 -64.171300
C -4.306900 -14.556800 -66.070100
C -4.220300 -15.046300 -68.481400
H -3.384200 -14.761600 -65.973000
C -2.803500 -15.361200 -68.432500
N -1.670500 -15.585100 -68.380600
