36
Fragment
H -16.512200 -8.336000 -52.706800
H -16.433800 -8.903600 -55.092700
C -15.610700 -8.611200 -52.587500
C -15.522400 -9.154000 -54.998100
H -15.517200 -8.182500 -50.588300
H -15.283700 -9.552900 -56.919100
C -15.037300 -8.531000 -51.331700
C -14.912400 -9.094700 -53.681300
C -14.841800 -9.549600 -56.077900
H -14.243400 -10.134000 -58.576800
C -13.699700 -8.981500 -51.205400
C -13.562900 -9.531700 -53.565300
C -13.455800 -9.988400 -56.012900
C -13.342000 -10.416300 -58.474000
H -13.281600 -8.954700 -50.353900
H -13.110900 -10.830200 -60.386800
C -12.994500 -9.457000 -52.250600
C -12.847400 -9.977900 -54.715500
C -12.743800 -10.396200 -57.145700
C -12.664600 -10.817300 -59.549300
H -12.104700 -9.758200 -52.110400
C -11.491000 -10.413800 -54.650500
C -11.383400 -10.827200 -57.049900
C -11.284800 -11.239000 -59.495800
H -11.057700 -10.425300 -53.805100
H -11.038400 -11.655700 -61.460400
C -10.806600 -10.814600 -55.737300
C -10.655600 -11.229200 -58.210700
C -10.585200 -11.649400 -60.623300
H -9.907800 -11.102300 -55.627400
C -9.303400 -11.657100 -58.163400
C -9.267200 -12.036100 -60.548900
H -8.856600 -11.682000 -57.326300
H -8.801500 -12.309300 -61.328800
C -8.626700 -12.026500 -59.282300
H -7.713200 -12.276600 -59.210300
36
Fragment
H -23.009700 -8.724500 -43.628200
C -22.096200 -8.474400 -43.556200
H -21.921400 -8.757200 -41.509800
H -21.866300 -8.129900 -45.512200
C -21.455700 -8.484000 -42.289700
C -21.419500 -8.105100 -44.675100
H -20.815100 -7.550200 -47.211100
C -20.137700 -8.097300 -42.215200
C -20.067300 -7.677200 -44.627800
C -19.916300 -7.262600 -47.101300
H -19.684500 -8.103600 -41.378100
H -19.665200 -6.873200 -49.033400
C -19.438100 -7.687000 -43.342700
C -19.339500 -7.275200 -45.788700
C -19.231900 -6.861700 -48.188100
H -18.618200 -6.206100 -50.728200
C -18.058300 -7.265300 -43.289300
C -17.979100 -6.844200 -45.692800
C -17.875500 -6.425800 -48.123100
C -17.728400 -5.905000 -50.587900
H -17.612000 -7.278200 -42.451800
H -17.441400 -5.402700 -52.484700
C -17.380900 -6.864300 -44.364600
C -17.267100 -6.436300 -46.825700
C -17.160100 -5.979700 -49.273200
C -17.023200 -5.429500 -51.633200
H -16.479500 -6.581900 -44.261700
C -15.881100 -5.997600 -46.760700
C -15.810500 -5.542600 -49.157200
C -15.685600 -4.978900 -51.506900
H -15.439200 -6.000800 -45.919500
H -15.205700 -4.630500 -52.250200
C -15.200500 -5.601900 -47.840500
C -15.112200 -5.059100 -50.251000
H -14.289100 -5.351500 -47.745900
H -14.210700 -4.783900 -50.131700
72
Fragment
H -16.512200 -8.336000 -52.706800
H -16.433800 -8.903600 -55.092700
C -15.610700 -8.611200 -52.587500
C -15.522400 -9.154000 -54.998100
H -15.517200 -8.182500 -50.588300
H -15.283700 -9.552900 -56.919100
C -15.037300 -8.531000 -51.331700
C -14.912400 -9.094700 -53.681300
C -14.841800 -9.549600 -56.077900
H -14.243400 -10.134000 -58.576800
C -13.699700 -8.981500 -51.205400
C -13.562900 -9.531700 -53.565300
C -13.455800 -9.988400 -56.012900
C -13.342000 -10.416300 -58.474000
H -13.281600 -8.954700 -50.353900
H -13.110900 -10.830200 -60.386800
C -12.994500 -9.457000 -52.250600
C -12.847400 -9.977900 -54.715500
C -12.743800 -10.396200 -57.145700
C -12.664600 -10.817300 -59.549300
H -12.104700 -9.758200 -52.110400
C -11.491000 -10.413800 -54.650500
C -11.383400 -10.827200 -57.049900
C -11.284800 -11.239000 -59.495800
H -11.057700 -10.425300 -53.805100
H -11.038400 -11.655700 -61.460400
C -10.806600 -10.814600 -55.737300
C -10.655600 -11.229200 -58.210700
C -10.585200 -11.649400 -60.623300
H -9.907800 -11.102300 -55.627400
C -9.303400 -11.657100 -58.163400
C -9.267200 -12.036100 -60.548900
H -8.856600 -11.682000 -57.326300
H -8.801500 -12.309300 -61.328800
C -8.626700 -12.026500 -59.282300
H -7.713200 -12.276600 -59.210300
H -23.009700 -8.724500 -43.628200
C -22.096200 -8.474400 -43.556200
H -21.921400 -8.757200 -41.509800
H -21.866300 -8.129900 -45.512200
C -21.455700 -8.484000 -42.289700
C -21.419500 -8.105100 -44.675100
H -20.815100 -7.550200 -47.211100
C -20.137700 -8.097300 -42.215200
C -20.067300 -7.677200 -44.627800
C -19.916300 -7.262600 -47.101300
H -19.684500 -8.103600 -41.378100
H -19.665200 -6.873200 -49.033400
C -19.438100 -7.687000 -43.342700
C -19.339500 -7.275200 -45.788700
C -19.231900 -6.861700 -48.188100
H -18.618200 -6.206100 -50.728200
C -18.058300 -7.265300 -43.289300
C -17.979100 -6.844200 -45.692800
C -17.875500 -6.425800 -48.123100
C -17.728400 -5.905000 -50.587900
H -17.612000 -7.278200 -42.451800
H -17.441400 -5.402700 -52.484700
C -17.380900 -6.864300 -44.364600
C -17.267100 -6.436300 -46.825700
C -17.160100 -5.979700 -49.273200
C -17.023200 -5.429500 -51.633200
H -16.479500 -6.581900 -44.261700
C -15.881100 -5.997600 -46.760700
C -15.810500 -5.542600 -49.157200
C -15.685600 -4.978900 -51.506900
H -15.439200 -6.000800 -45.919500
H -15.205700 -4.630500 -52.250200
C -15.200500 -5.601900 -47.840500
C -15.112200 -5.059100 -50.251000
H -14.289100 -5.351500 -47.745900
H -14.210700 -4.783900 -50.131700
