26
Fragment
H -7.221000 -20.536700 -49.545900
H -6.928900 -18.926500 -47.875300
H -6.924900 -22.187000 -51.891900
C -6.561200 -19.859100 -49.635800
C -6.380100 -18.902400 -48.651300
C -6.226600 -21.786100 -52.394300
H -6.224100 -23.126600 -53.908300
C -5.800200 -22.339100 -53.585800
C -5.739000 -19.793300 -50.765300
C -5.599900 -20.619800 -51.952500
C -5.414800 -17.904400 -48.767300
H -5.324000 -17.267600 -48.069700
C -4.779200 -18.777700 -50.877000
C -4.758400 -21.770400 -54.334100
C -4.583700 -17.813500 -49.869800
C -4.562500 -20.047700 -52.712600
H -4.489000 -22.183400 -55.147200
C -4.114400 -20.619400 -53.912600
N -4.076900 -18.926100 -52.064200
N -3.655900 -16.771700 -50.033800
H -3.454600 -18.353300 -52.359700
H -3.425000 -16.393800 -49.213100
N -3.083000 -19.974400 -54.651000
H -2.906800 -17.051000 -50.415700
H -2.803100 -20.446600 -55.308700
H -2.378700 -19.825900 -54.142300
26
Fragment
H -3.087900 -16.105400 -58.557500
C -2.387600 -16.365200 -57.971300
H -2.355000 -18.320400 -58.557500
H -2.099400 -14.519500 -57.167000
C -1.957300 -17.700700 -57.956800
C -1.810200 -15.424500 -57.147300
C -0.969700 -18.142100 -57.092200
C -0.792100 -15.827100 -56.283000
H -0.672200 -19.950000 -57.789800
N -0.591600 -19.481000 -56.988500
H -0.443200 -13.136900 -55.256000
C -0.390600 -17.175300 -56.253400
C 0.047400 -15.141700 -55.324800
C 0.141600 -13.800200 -54.907400
H 0.210700 -19.602000 -56.557500
N 0.615800 -17.343600 -55.317300
C 0.906100 -16.101000 -54.772000
H 1.064000 -18.122000 -55.203300
C 1.106400 -13.477200 -53.978200
H 1.184900 -12.577100 -53.684300
C 1.889200 -15.779800 -53.830600
C 1.971100 -14.441600 -53.460200
H 2.635800 -14.176300 -52.834200
N 2.708400 -16.795200 -53.274100
H 3.168300 -17.233600 -53.865500
H 3.346000 -16.454700 -52.751800
52
Fragment
H -7.221000 -20.536700 -49.545900
H -6.928900 -18.926500 -47.875300
H -6.924900 -22.187000 -51.891900
C -6.561200 -19.859100 -49.635800
C -6.380100 -18.902400 -48.651300
C -6.226600 -21.786100 -52.394300
H -6.224100 -23.126600 -53.908300
C -5.800200 -22.339100 -53.585800
C -5.739000 -19.793300 -50.765300
C -5.599900 -20.619800 -51.952500
C -5.414800 -17.904400 -48.767300
H -5.324000 -17.267600 -48.069700
C -4.779200 -18.777700 -50.877000
C -4.758400 -21.770400 -54.334100
C -4.583700 -17.813500 -49.869800
C -4.562500 -20.047700 -52.712600
H -4.489000 -22.183400 -55.147200
C -4.114400 -20.619400 -53.912600
N -4.076900 -18.926100 -52.064200
N -3.655900 -16.771700 -50.033800
H -3.454600 -18.353300 -52.359700
H -3.425000 -16.393800 -49.213100
N -3.083000 -19.974400 -54.651000
H -2.906800 -17.051000 -50.415700
H -2.803100 -20.446600 -55.308700
H -2.378700 -19.825900 -54.142300
H -3.087900 -16.105400 -58.557500
C -2.387600 -16.365200 -57.971300
H -2.355000 -18.320400 -58.557500
H -2.099400 -14.519500 -57.167000
C -1.957300 -17.700700 -57.956800
C -1.810200 -15.424500 -57.147300
C -0.969700 -18.142100 -57.092200
C -0.792100 -15.827100 -56.283000
H -0.672200 -19.950000 -57.789800
N -0.591600 -19.481000 -56.988500
H -0.443200 -13.136900 -55.256000
C -0.390600 -17.175300 -56.253400
C 0.047400 -15.141700 -55.324800
C 0.141600 -13.800200 -54.907400
H 0.210700 -19.602000 -56.557500
N 0.615800 -17.343600 -55.317300
C 0.906100 -16.101000 -54.772000
H 1.064000 -18.122000 -55.203300
C 1.106400 -13.477200 -53.978200
H 1.184900 -12.577100 -53.684300
C 1.889200 -15.779800 -53.830600
C 1.971100 -14.441600 -53.460200
H 2.635800 -14.176300 -52.834200
N 2.708400 -16.795200 -53.274100
H 3.168300 -17.233600 -53.865500
H 3.346000 -16.454700 -52.751800
