26
Fragment
H -7.221000 -20.536700 -49.545900
H -6.928900 -18.926500 -47.875300
H -6.924900 -22.187000 -51.891900
C -6.561200 -19.859100 -49.635800
C -6.380100 -18.902400 -48.651300
C -6.226600 -21.786100 -52.394300
H -6.224100 -23.126600 -53.908300
C -5.800200 -22.339100 -53.585800
C -5.739000 -19.793300 -50.765300
C -5.599900 -20.619800 -51.952500
C -5.414800 -17.904400 -48.767300
H -5.324000 -17.267600 -48.069700
C -4.779200 -18.777700 -50.877000
C -4.758400 -21.770400 -54.334100
C -4.583700 -17.813500 -49.869800
C -4.562500 -20.047700 -52.712600
H -4.489000 -22.183400 -55.147200
C -4.114400 -20.619400 -53.912600
N -4.076900 -18.926100 -52.064200
N -3.655900 -16.771700 -50.033800
H -3.454600 -18.353300 -52.359700
H -3.425000 -16.393800 -49.213100
N -3.083000 -19.974400 -54.651000
H -2.906800 -17.051000 -50.415700
H -2.803100 -20.446600 -55.308700
H -2.378700 -19.825900 -54.142300
26
Fragment
H -13.216200 -22.540000 -62.570700
H -13.038500 -23.318900 -61.457000
N -12.578600 -22.880500 -62.048500
H -12.506000 -20.261600 -62.488300
C -11.841300 -20.526900 -61.862300
C -11.759400 -21.865100 -61.492000
H -11.055100 -18.662400 -61.638300
C -10.976600 -19.562500 -61.344300
H -10.934200 -24.207300 -60.119300
C -10.776300 -22.186300 -60.550600
N -10.486000 -23.428900 -60.005300
H -10.080900 -25.687300 -58.765100
C -10.011800 -19.885500 -60.415200
C -9.917600 -21.227000 -59.997700
C -9.479600 -23.260600 -59.069200
H -9.427000 -19.222200 -60.066600
N -9.278600 -25.566300 -58.334100
H -9.198000 -26.035300 -57.532800
C -9.078100 -21.912400 -59.039500
C -8.900500 -24.227400 -58.230300
C -8.060000 -21.509800 -58.175300
C -7.912900 -23.786000 -57.365700
H -7.770800 -20.604800 -58.155500
H -7.515200 -24.405700 -56.765100
C -7.482600 -22.450500 -57.351200
H -6.782300 -22.190700 -56.765100
52
Fragment
H -7.221000 -20.536700 -49.545900
H -6.928900 -18.926500 -47.875300
H -6.924900 -22.187000 -51.891900
C -6.561200 -19.859100 -49.635800
C -6.380100 -18.902400 -48.651300
C -6.226600 -21.786100 -52.394300
H -6.224100 -23.126600 -53.908300
C -5.800200 -22.339100 -53.585800
C -5.739000 -19.793300 -50.765300
C -5.599900 -20.619800 -51.952500
C -5.414800 -17.904400 -48.767300
H -5.324000 -17.267600 -48.069700
C -4.779200 -18.777700 -50.877000
C -4.758400 -21.770400 -54.334100
C -4.583700 -17.813500 -49.869800
C -4.562500 -20.047700 -52.712600
H -4.489000 -22.183400 -55.147200
C -4.114400 -20.619400 -53.912600
N -4.076900 -18.926100 -52.064200
N -3.655900 -16.771700 -50.033800
H -3.454600 -18.353300 -52.359700
H -3.425000 -16.393800 -49.213100
N -3.083000 -19.974400 -54.651000
H -2.906800 -17.051000 -50.415700
H -2.803100 -20.446600 -55.308700
H -2.378700 -19.825900 -54.142300
H -13.216200 -22.540000 -62.570700
H -13.038500 -23.318900 -61.457000
N -12.578600 -22.880500 -62.048500
H -12.506000 -20.261600 -62.488300
C -11.841300 -20.526900 -61.862300
C -11.759400 -21.865100 -61.492000
H -11.055100 -18.662400 -61.638300
C -10.976600 -19.562500 -61.344300
H -10.934200 -24.207300 -60.119300
C -10.776300 -22.186300 -60.550600
N -10.486000 -23.428900 -60.005300
H -10.080900 -25.687300 -58.765100
C -10.011800 -19.885500 -60.415200
C -9.917600 -21.227000 -59.997700
C -9.479600 -23.260600 -59.069200
H -9.427000 -19.222200 -60.066600
N -9.278600 -25.566300 -58.334100
H -9.198000 -26.035300 -57.532800
C -9.078100 -21.912400 -59.039500
C -8.900500 -24.227400 -58.230300
C -8.060000 -21.509800 -58.175300
C -7.912900 -23.786000 -57.365700
H -7.770800 -20.604800 -58.155500
H -7.515200 -24.405700 -56.765100
C -7.482600 -22.450500 -57.351200
H -6.782300 -22.190700 -56.765100
