26
Fragment
H -7.221000 -20.536700 -49.545900
H -6.928900 -18.926500 -47.875300
H -6.924900 -22.187000 -51.891900
C -6.561200 -19.859100 -49.635800
C -6.380100 -18.902400 -48.651300
C -6.226600 -21.786100 -52.394300
H -6.224100 -23.126600 -53.908300
C -5.800200 -22.339100 -53.585800
C -5.739000 -19.793300 -50.765300
C -5.599900 -20.619800 -51.952500
C -5.414800 -17.904400 -48.767300
H -5.324000 -17.267600 -48.069700
C -4.779200 -18.777700 -50.877000
C -4.758400 -21.770400 -54.334100
C -4.583700 -17.813500 -49.869800
C -4.562500 -20.047700 -52.712600
H -4.489000 -22.183400 -55.147200
C -4.114400 -20.619400 -53.912600
N -4.076900 -18.926100 -52.064200
N -3.655900 -16.771700 -50.033800
H -3.454600 -18.353300 -52.359700
H -3.425000 -16.393800 -49.213100
N -3.083000 -19.974400 -54.651000
H -2.906800 -17.051000 -50.415700
H -2.803100 -20.446600 -55.308700
H -2.378700 -19.825900 -54.142300
26
Fragment
H -9.688600 -22.060400 -49.302000
H -9.396400 -23.670600 -50.972600
H -9.392500 -20.410100 -46.956000
C -9.028800 -22.738000 -49.212100
C -8.847600 -23.694700 -50.196600
C -8.694200 -20.811000 -46.453600
H -8.691700 -19.470500 -44.939600
C -8.267800 -20.258000 -45.262100
C -8.206600 -22.803800 -48.082600
C -8.067400 -21.977300 -46.895400
C -7.882300 -24.692700 -50.080600
H -7.791500 -25.329500 -50.778200
C -7.246700 -23.819400 -47.970900
C -7.226000 -20.826700 -44.513800
C -7.051300 -24.783600 -48.978100
C -7.030000 -22.549400 -46.135300
H -6.956500 -20.413700 -43.700700
C -6.581900 -21.977700 -44.935300
N -6.544400 -23.671000 -46.783700
N -6.123500 -25.825400 -48.814100
H -5.922100 -24.243800 -46.488200
H -5.892500 -26.203300 -49.634800
N -5.550500 -22.622700 -44.196900
H -5.374300 -25.546100 -48.432200
H -5.270700 -22.150500 -43.539200
H -4.846300 -22.771200 -44.705600
52
Fragment
H -7.221000 -20.536700 -49.545900
H -6.928900 -18.926500 -47.875300
H -6.924900 -22.187000 -51.891900
C -6.561200 -19.859100 -49.635800
C -6.380100 -18.902400 -48.651300
C -6.226600 -21.786100 -52.394300
H -6.224100 -23.126600 -53.908300
C -5.800200 -22.339100 -53.585800
C -5.739000 -19.793300 -50.765300
C -5.599900 -20.619800 -51.952500
C -5.414800 -17.904400 -48.767300
H -5.324000 -17.267600 -48.069700
C -4.779200 -18.777700 -50.877000
C -4.758400 -21.770400 -54.334100
C -4.583700 -17.813500 -49.869800
C -4.562500 -20.047700 -52.712600
H -4.489000 -22.183400 -55.147200
C -4.114400 -20.619400 -53.912600
N -4.076900 -18.926100 -52.064200
N -3.655900 -16.771700 -50.033800
H -3.454600 -18.353300 -52.359700
H -3.425000 -16.393800 -49.213100
N -3.083000 -19.974400 -54.651000
H -2.906800 -17.051000 -50.415700
H -2.803100 -20.446600 -55.308700
H -2.378700 -19.825900 -54.142300
H -9.688600 -22.060400 -49.302000
H -9.396400 -23.670600 -50.972600
H -9.392500 -20.410100 -46.956000
C -9.028800 -22.738000 -49.212100
C -8.847600 -23.694700 -50.196600
C -8.694200 -20.811000 -46.453600
H -8.691700 -19.470500 -44.939600
C -8.267800 -20.258000 -45.262100
C -8.206600 -22.803800 -48.082600
C -8.067400 -21.977300 -46.895400
C -7.882300 -24.692700 -50.080600
H -7.791500 -25.329500 -50.778200
C -7.246700 -23.819400 -47.970900
C -7.226000 -20.826700 -44.513800
C -7.051300 -24.783600 -48.978100
C -7.030000 -22.549400 -46.135300
H -6.956500 -20.413700 -43.700700
C -6.581900 -21.977700 -44.935300
N -6.544400 -23.671000 -46.783700
N -6.123500 -25.825400 -48.814100
H -5.922100 -24.243800 -46.488200
H -5.892500 -26.203300 -49.634800
N -5.550500 -22.622700 -44.196900
H -5.374300 -25.546100 -48.432200
H -5.270700 -22.150500 -43.539200
H -4.846300 -22.771200 -44.705600
