26
Fragment
H -7.221000 -20.536700 -49.545900
H -6.928900 -18.926500 -47.875300
H -6.924900 -22.187000 -51.891900
C -6.561200 -19.859100 -49.635800
C -6.380100 -18.902400 -48.651300
C -6.226600 -21.786100 -52.394300
H -6.224100 -23.126600 -53.908300
C -5.800200 -22.339100 -53.585800
C -5.739000 -19.793300 -50.765300
C -5.599900 -20.619800 -51.952500
C -5.414800 -17.904400 -48.767300
H -5.324000 -17.267600 -48.069700
C -4.779200 -18.777700 -50.877000
C -4.758400 -21.770400 -54.334100
C -4.583700 -17.813500 -49.869800
C -4.562500 -20.047700 -52.712600
H -4.489000 -22.183400 -55.147200
C -4.114400 -20.619400 -53.912600
N -4.076900 -18.926100 -52.064200
N -3.655900 -16.771700 -50.033800
H -3.454600 -18.353300 -52.359700
H -3.425000 -16.393800 -49.213100
N -3.083000 -19.974400 -54.651000
H -2.906800 -17.051000 -50.415700
H -2.803100 -20.446600 -55.308700
H -2.378700 -19.825900 -54.142300
26
Fragment
H -2.285900 -20.536700 -49.545900
H -1.993800 -18.926500 -47.875300
H -1.989800 -22.187000 -51.891900
C -1.626100 -19.859100 -49.635800
C -1.445000 -18.902400 -48.651300
C -1.291500 -21.786100 -52.394300
H -1.289000 -23.126600 -53.908300
C -0.865100 -22.339100 -53.585800
C -0.803900 -19.793300 -50.765300
C -0.664800 -20.619800 -51.952500
C -0.479700 -17.904400 -48.767300
H -0.388900 -17.267600 -48.069700
C 0.155900 -18.777700 -50.877000
C 0.176700 -21.770400 -54.334100
C 0.351400 -17.813500 -49.869800
C 0.372600 -20.047700 -52.712600
H 0.446100 -22.183400 -55.147200
C 0.820700 -20.619400 -53.912600
N 0.858200 -18.926100 -52.064200
N 1.279200 -16.771700 -50.033800
H 1.480500 -18.353300 -52.359700
H 1.510100 -16.393800 -49.213100
N 1.852100 -19.974400 -54.651000
H 2.028300 -17.051000 -50.415700
H 2.132000 -20.446600 -55.308700
H 2.556400 -19.825900 -54.142300
52
Fragment
H -7.221000 -20.536700 -49.545900
H -6.928900 -18.926500 -47.875300
H -6.924900 -22.187000 -51.891900
C -6.561200 -19.859100 -49.635800
C -6.380100 -18.902400 -48.651300
C -6.226600 -21.786100 -52.394300
H -6.224100 -23.126600 -53.908300
C -5.800200 -22.339100 -53.585800
C -5.739000 -19.793300 -50.765300
C -5.599900 -20.619800 -51.952500
C -5.414800 -17.904400 -48.767300
H -5.324000 -17.267600 -48.069700
C -4.779200 -18.777700 -50.877000
C -4.758400 -21.770400 -54.334100
C -4.583700 -17.813500 -49.869800
C -4.562500 -20.047700 -52.712600
H -4.489000 -22.183400 -55.147200
C -4.114400 -20.619400 -53.912600
N -4.076900 -18.926100 -52.064200
N -3.655900 -16.771700 -50.033800
H -3.454600 -18.353300 -52.359700
H -3.425000 -16.393800 -49.213100
N -3.083000 -19.974400 -54.651000
H -2.906800 -17.051000 -50.415700
H -2.803100 -20.446600 -55.308700
H -2.378700 -19.825900 -54.142300
H -2.285900 -20.536700 -49.545900
H -1.993800 -18.926500 -47.875300
H -1.989800 -22.187000 -51.891900
C -1.626100 -19.859100 -49.635800
C -1.445000 -18.902400 -48.651300
C -1.291500 -21.786100 -52.394300
H -1.289000 -23.126600 -53.908300
C -0.865100 -22.339100 -53.585800
C -0.803900 -19.793300 -50.765300
C -0.664800 -20.619800 -51.952500
C -0.479700 -17.904400 -48.767300
H -0.388900 -17.267600 -48.069700
C 0.155900 -18.777700 -50.877000
C 0.176700 -21.770400 -54.334100
C 0.351400 -17.813500 -49.869800
C 0.372600 -20.047700 -52.712600
H 0.446100 -22.183400 -55.147200
C 0.820700 -20.619400 -53.912600
N 0.858200 -18.926100 -52.064200
N 1.279200 -16.771700 -50.033800
H 1.480500 -18.353300 -52.359700
H 1.510100 -16.393800 -49.213100
N 1.852100 -19.974400 -54.651000
H 2.028300 -17.051000 -50.415700
H 2.132000 -20.446600 -55.308700
H 2.556400 -19.825900 -54.142300
