31
Fragment
O -44.561900 -14.241000 -8.826100
H -43.497800 -16.292400 -9.221300
C -43.411800 -14.350700 -9.295600
N -42.902900 -15.598500 -9.479500
N -42.663000 -11.973700 -9.650400
C -42.493300 -13.315500 -9.692900
H -41.950400 -17.883800 -9.824200
C -41.666000 -15.906300 -9.980600
C -41.520800 -11.547300 -10.127800
H -41.389500 -10.610500 -10.200600
N -41.333400 -17.212300 -10.091000
C -41.266000 -13.720600 -10.188300
N -40.769000 -14.965100 -10.367200
N -40.637400 -12.528700 -10.470300
H -40.482800 -17.458600 -10.435000
C -39.277000 -12.426900 -11.029900
H -39.256700 -12.861100 -11.874400
H -39.052500 -11.509200 -11.131600
H -38.866300 -12.186300 -7.447300
H -38.840100 -10.831000 -9.196800
O -38.458100 -13.080500 -10.067200
O -38.176900 -11.532700 -7.461000
C -37.999200 -11.064900 -8.821800
H -37.419600 -10.312900 -8.831900
C -37.359800 -12.212000 -9.677800
H -36.885700 -11.813600 -10.398200
H -36.750100 -13.271900 -7.993900
C -36.373900 -13.107300 -8.850600
H -36.242300 -13.927700 -9.309300
O -35.109400 -12.411200 -8.710000
H -34.902500 -11.977000 -9.529200
31
Fragment
H -37.719700 -17.572700 -9.529200
O -37.512900 -18.006900 -8.710000
H -36.380000 -19.523400 -9.309300
C -36.248400 -18.703000 -8.850600
H -35.872200 -18.867500 -7.993900
H -35.736500 -17.409300 -10.398200
C -35.262500 -17.807700 -9.677800
H -35.202600 -15.908500 -8.831900
C -34.623100 -16.660600 -8.821800
O -34.445300 -17.128400 -7.461000
O -34.164100 -18.676200 -10.067200
H -33.782100 -16.426700 -9.196800
H -33.756000 -17.782000 -7.447300
H -33.569800 -17.104900 -11.131600
H -33.365600 -18.456800 -11.874400
C -33.345200 -18.022600 -11.029900
H -32.139400 -23.054200 -10.435000
N -31.984900 -18.124400 -10.470300
N -31.853300 -20.560800 -10.367200
C -31.356300 -19.316300 -10.188300
N -31.288900 -22.808000 -10.091000
H -31.232800 -16.206200 -10.200600
C -31.101500 -17.143000 -10.127800
C -30.956300 -21.502000 -9.980600
H -30.671900 -23.479500 -9.824200
C -30.128900 -18.911200 -9.692900
N -29.959300 -17.569300 -9.650400
N -29.719300 -21.194200 -9.479500
C -29.210400 -19.946400 -9.295600
H -29.124400 -21.888100 -9.221300
O -28.060400 -19.836700 -8.826100
62
Fragment
O -44.561900 -14.241000 -8.826100
H -43.497800 -16.292400 -9.221300
C -43.411800 -14.350700 -9.295600
N -42.902900 -15.598500 -9.479500
N -42.663000 -11.973700 -9.650400
C -42.493300 -13.315500 -9.692900
H -41.950400 -17.883800 -9.824200
C -41.666000 -15.906300 -9.980600
C -41.520800 -11.547300 -10.127800
H -41.389500 -10.610500 -10.200600
N -41.333400 -17.212300 -10.091000
C -41.266000 -13.720600 -10.188300
N -40.769000 -14.965100 -10.367200
N -40.637400 -12.528700 -10.470300
H -40.482800 -17.458600 -10.435000
C -39.277000 -12.426900 -11.029900
H -39.256700 -12.861100 -11.874400
H -39.052500 -11.509200 -11.131600
H -38.866300 -12.186300 -7.447300
H -38.840100 -10.831000 -9.196800
O -38.458100 -13.080500 -10.067200
O -38.176900 -11.532700 -7.461000
C -37.999200 -11.064900 -8.821800
H -37.419600 -10.312900 -8.831900
C -37.359800 -12.212000 -9.677800
H -36.885700 -11.813600 -10.398200
H -36.750100 -13.271900 -7.993900
C -36.373900 -13.107300 -8.850600
H -36.242300 -13.927700 -9.309300
O -35.109400 -12.411200 -8.710000
H -34.902500 -11.977000 -9.529200
H -37.719700 -17.572700 -9.529200
O -37.512900 -18.006900 -8.710000
H -36.380000 -19.523400 -9.309300
C -36.248400 -18.703000 -8.850600
H -35.872200 -18.867500 -7.993900
H -35.736500 -17.409300 -10.398200
C -35.262500 -17.807700 -9.677800
H -35.202600 -15.908500 -8.831900
C -34.623100 -16.660600 -8.821800
O -34.445300 -17.128400 -7.461000
O -34.164100 -18.676200 -10.067200
H -33.782100 -16.426700 -9.196800
H -33.756000 -17.782000 -7.447300
H -33.569800 -17.104900 -11.131600
H -33.365600 -18.456800 -11.874400
C -33.345200 -18.022600 -11.029900
H -32.139400 -23.054200 -10.435000
N -31.984900 -18.124400 -10.470300
N -31.853300 -20.560800 -10.367200
C -31.356300 -19.316300 -10.188300
N -31.288900 -22.808000 -10.091000
H -31.232800 -16.206200 -10.200600
C -31.101500 -17.143000 -10.127800
C -30.956300 -21.502000 -9.980600
H -30.671900 -23.479500 -9.824200
C -30.128900 -18.911200 -9.692900
N -29.959300 -17.569300 -9.650400
N -29.719300 -21.194200 -9.479500
C -29.210400 -19.946400 -9.295600
H -29.124400 -21.888100 -9.221300
O -28.060400 -19.836700 -8.826100
