31
Fragment
O -44.561900 -14.241000 -8.826100
H -43.497800 -16.292400 -9.221300
C -43.411800 -14.350700 -9.295600
N -42.902900 -15.598500 -9.479500
N -42.663000 -11.973700 -9.650400
C -42.493300 -13.315500 -9.692900
H -41.950400 -17.883800 -9.824200
C -41.666000 -15.906300 -9.980600
C -41.520800 -11.547300 -10.127800
H -41.389500 -10.610500 -10.200600
N -41.333400 -17.212300 -10.091000
C -41.266000 -13.720600 -10.188300
N -40.769000 -14.965100 -10.367200
N -40.637400 -12.528700 -10.470300
H -40.482800 -17.458600 -10.435000
C -39.277000 -12.426900 -11.029900
H -39.256700 -12.861100 -11.874400
H -39.052500 -11.509200 -11.131600
H -38.866300 -12.186300 -7.447300
H -38.840100 -10.831000 -9.196800
O -38.458100 -13.080500 -10.067200
O -38.176900 -11.532700 -7.461000
C -37.999200 -11.064900 -8.821800
H -37.419600 -10.312900 -8.831900
C -37.359800 -12.212000 -9.677800
H -36.885700 -11.813600 -10.398200
H -36.750100 -13.271900 -7.993900
C -36.373900 -13.107300 -8.850600
H -36.242300 -13.927700 -9.309300
O -35.109400 -12.411200 -8.710000
H -34.902500 -11.977000 -9.529200
31
Fragment
O -44.561900 -13.737400 -5.220400
H -43.497800 -11.686000 -5.615600
C -43.411800 -13.627700 -5.689800
N -42.902900 -12.379900 -5.873700
N -42.663000 -16.004800 -6.044600
C -42.493300 -14.662900 -6.087200
H -41.950400 -10.094600 -6.218400
C -41.666000 -12.072100 -6.374900
C -41.520800 -16.431200 -6.522000
H -41.389500 -17.367900 -6.594900
N -41.333400 -10.766100 -6.485300
C -41.266000 -14.257800 -6.582600
N -40.769000 -13.013300 -6.761500
N -40.637400 -15.449700 -6.864600
H -40.482800 -10.519900 -6.829200
C -39.277000 -15.551500 -7.424200
H -39.256700 -15.117300 -8.268600
H -39.052500 -16.469200 -7.525900
H -38.866300 -15.792200 -3.841500
H -38.840100 -17.147400 -5.591000
O -38.458100 -14.898000 -6.461500
O -38.176900 -16.445700 -3.855200
C -37.999200 -16.913500 -5.216000
H -37.419600 -17.665600 -5.226100
C -37.359800 -15.766400 -6.072000
H -36.885700 -16.164800 -6.792500
H -36.750100 -14.706600 -4.388200
C -36.373900 -14.871100 -5.244900
H -36.242300 -14.050800 -5.703500
O -35.109400 -15.567200 -5.104300
H -34.902500 -16.001400 -5.923500
62
Fragment
O -44.561900 -14.241000 -8.826100
H -43.497800 -16.292400 -9.221300
C -43.411800 -14.350700 -9.295600
N -42.902900 -15.598500 -9.479500
N -42.663000 -11.973700 -9.650400
C -42.493300 -13.315500 -9.692900
H -41.950400 -17.883800 -9.824200
C -41.666000 -15.906300 -9.980600
C -41.520800 -11.547300 -10.127800
H -41.389500 -10.610500 -10.200600
N -41.333400 -17.212300 -10.091000
C -41.266000 -13.720600 -10.188300
N -40.769000 -14.965100 -10.367200
N -40.637400 -12.528700 -10.470300
H -40.482800 -17.458600 -10.435000
C -39.277000 -12.426900 -11.029900
H -39.256700 -12.861100 -11.874400
H -39.052500 -11.509200 -11.131600
H -38.866300 -12.186300 -7.447300
H -38.840100 -10.831000 -9.196800
O -38.458100 -13.080500 -10.067200
O -38.176900 -11.532700 -7.461000
C -37.999200 -11.064900 -8.821800
H -37.419600 -10.312900 -8.831900
C -37.359800 -12.212000 -9.677800
H -36.885700 -11.813600 -10.398200
H -36.750100 -13.271900 -7.993900
C -36.373900 -13.107300 -8.850600
H -36.242300 -13.927700 -9.309300
O -35.109400 -12.411200 -8.710000
H -34.902500 -11.977000 -9.529200
O -44.561900 -13.737400 -5.220400
H -43.497800 -11.686000 -5.615600
C -43.411800 -13.627700 -5.689800
N -42.902900 -12.379900 -5.873700
N -42.663000 -16.004800 -6.044600
C -42.493300 -14.662900 -6.087200
H -41.950400 -10.094600 -6.218400
C -41.666000 -12.072100 -6.374900
C -41.520800 -16.431200 -6.522000
H -41.389500 -17.367900 -6.594900
N -41.333400 -10.766100 -6.485300
C -41.266000 -14.257800 -6.582600
N -40.769000 -13.013300 -6.761500
N -40.637400 -15.449700 -6.864600
H -40.482800 -10.519900 -6.829200
C -39.277000 -15.551500 -7.424200
H -39.256700 -15.117300 -8.268600
H -39.052500 -16.469200 -7.525900
H -38.866300 -15.792200 -3.841500
H -38.840100 -17.147400 -5.591000
O -38.458100 -14.898000 -6.461500
O -38.176900 -16.445700 -3.855200
C -37.999200 -16.913500 -5.216000
H -37.419600 -17.665600 -5.226100
C -37.359800 -15.766400 -6.072000
H -36.885700 -16.164800 -6.792500
H -36.750100 -14.706600 -4.388200
C -36.373900 -14.871100 -5.244900
H -36.242300 -14.050800 -5.703500
O -35.109400 -15.567200 -5.104300
H -34.902500 -16.001400 -5.923500
