31
Fragment
O -44.561900 -14.241000 -8.826100
H -43.497800 -16.292400 -9.221300
C -43.411800 -14.350700 -9.295600
N -42.902900 -15.598500 -9.479500
N -42.663000 -11.973700 -9.650400
C -42.493300 -13.315500 -9.692900
H -41.950400 -17.883800 -9.824200
C -41.666000 -15.906300 -9.980600
C -41.520800 -11.547300 -10.127800
H -41.389500 -10.610500 -10.200600
N -41.333400 -17.212300 -10.091000
C -41.266000 -13.720600 -10.188300
N -40.769000 -14.965100 -10.367200
N -40.637400 -12.528700 -10.470300
H -40.482800 -17.458600 -10.435000
C -39.277000 -12.426900 -11.029900
H -39.256700 -12.861100 -11.874400
H -39.052500 -11.509200 -11.131600
H -38.866300 -12.186300 -7.447300
H -38.840100 -10.831000 -9.196800
O -38.458100 -13.080500 -10.067200
O -38.176900 -11.532700 -7.461000
C -37.999200 -11.064900 -8.821800
H -37.419600 -10.312900 -8.831900
C -37.359800 -12.212000 -9.677800
H -36.885700 -11.813600 -10.398200
H -36.750100 -13.271900 -7.993900
C -36.373900 -13.107300 -8.850600
H -36.242300 -13.927700 -9.309300
O -35.109400 -12.411200 -8.710000
H -34.902500 -11.977000 -9.529200
31
Fragment
O -44.561900 -13.737400 -12.431800
H -43.497800 -11.686000 -12.827000
C -43.411800 -13.627700 -12.901300
N -42.902900 -12.379900 -13.085200
N -42.663000 -16.004800 -13.256100
C -42.493300 -14.662900 -13.298600
H -41.950400 -10.094600 -13.429900
C -41.666000 -12.072100 -13.586400
C -41.520800 -16.431200 -13.733500
H -41.389500 -17.367900 -13.806300
N -41.333400 -10.766100 -13.696700
C -41.266000 -14.257800 -13.794100
N -40.769000 -13.013300 -13.972900
N -40.637400 -15.449700 -14.076000
H -40.482800 -10.519900 -14.040700
C -39.277000 -15.551500 -14.635600
H -39.256700 -15.117300 -15.480100
H -39.052500 -16.469200 -14.737300
H -38.866300 -15.792200 -11.053000
H -38.840100 -17.147400 -12.802500
O -38.458100 -14.898000 -13.672900
O -38.176900 -16.445700 -11.066700
C -37.999200 -16.913500 -12.427500
H -37.419600 -17.665600 -12.437600
C -37.359800 -15.766400 -13.283500
H -36.885700 -16.164800 -14.003900
H -36.750100 -14.706600 -11.599600
C -36.373900 -14.871100 -12.456300
H -36.242300 -14.050800 -12.915000
O -35.109400 -15.567200 -12.315700
H -34.902500 -16.001400 -13.134900
62
Fragment
O -44.561900 -14.241000 -8.826100
H -43.497800 -16.292400 -9.221300
C -43.411800 -14.350700 -9.295600
N -42.902900 -15.598500 -9.479500
N -42.663000 -11.973700 -9.650400
C -42.493300 -13.315500 -9.692900
H -41.950400 -17.883800 -9.824200
C -41.666000 -15.906300 -9.980600
C -41.520800 -11.547300 -10.127800
H -41.389500 -10.610500 -10.200600
N -41.333400 -17.212300 -10.091000
C -41.266000 -13.720600 -10.188300
N -40.769000 -14.965100 -10.367200
N -40.637400 -12.528700 -10.470300
H -40.482800 -17.458600 -10.435000
C -39.277000 -12.426900 -11.029900
H -39.256700 -12.861100 -11.874400
H -39.052500 -11.509200 -11.131600
H -38.866300 -12.186300 -7.447300
H -38.840100 -10.831000 -9.196800
O -38.458100 -13.080500 -10.067200
O -38.176900 -11.532700 -7.461000
C -37.999200 -11.064900 -8.821800
H -37.419600 -10.312900 -8.831900
C -37.359800 -12.212000 -9.677800
H -36.885700 -11.813600 -10.398200
H -36.750100 -13.271900 -7.993900
C -36.373900 -13.107300 -8.850600
H -36.242300 -13.927700 -9.309300
O -35.109400 -12.411200 -8.710000
H -34.902500 -11.977000 -9.529200
O -44.561900 -13.737400 -12.431800
H -43.497800 -11.686000 -12.827000
C -43.411800 -13.627700 -12.901300
N -42.902900 -12.379900 -13.085200
N -42.663000 -16.004800 -13.256100
C -42.493300 -14.662900 -13.298600
H -41.950400 -10.094600 -13.429900
C -41.666000 -12.072100 -13.586400
C -41.520800 -16.431200 -13.733500
H -41.389500 -17.367900 -13.806300
N -41.333400 -10.766100 -13.696700
C -41.266000 -14.257800 -13.794100
N -40.769000 -13.013300 -13.972900
N -40.637400 -15.449700 -14.076000
H -40.482800 -10.519900 -14.040700
C -39.277000 -15.551500 -14.635600
H -39.256700 -15.117300 -15.480100
H -39.052500 -16.469200 -14.737300
H -38.866300 -15.792200 -11.053000
H -38.840100 -17.147400 -12.802500
O -38.458100 -14.898000 -13.672900
O -38.176900 -16.445700 -11.066700
C -37.999200 -16.913500 -12.427500
H -37.419600 -17.665600 -12.437600
C -37.359800 -15.766400 -13.283500
H -36.885700 -16.164800 -14.003900
H -36.750100 -14.706600 -11.599600
C -36.373900 -14.871100 -12.456300
H -36.242300 -14.050800 -12.915000
O -35.109400 -15.567200 -12.315700
H -34.902500 -16.001400 -13.134900
