31
Fragment
O -44.561900 -14.241000 -8.826100
H -43.497800 -16.292400 -9.221300
C -43.411800 -14.350700 -9.295600
N -42.902900 -15.598500 -9.479500
N -42.663000 -11.973700 -9.650400
C -42.493300 -13.315500 -9.692900
H -41.950400 -17.883800 -9.824200
C -41.666000 -15.906300 -9.980600
C -41.520800 -11.547300 -10.127800
H -41.389500 -10.610500 -10.200600
N -41.333400 -17.212300 -10.091000
C -41.266000 -13.720600 -10.188300
N -40.769000 -14.965100 -10.367200
N -40.637400 -12.528700 -10.470300
H -40.482800 -17.458600 -10.435000
C -39.277000 -12.426900 -11.029900
H -39.256700 -12.861100 -11.874400
H -39.052500 -11.509200 -11.131600
H -38.866300 -12.186300 -7.447300
H -38.840100 -10.831000 -9.196800
O -38.458100 -13.080500 -10.067200
O -38.176900 -11.532700 -7.461000
C -37.999200 -11.064900 -8.821800
H -37.419600 -10.312900 -8.831900
C -37.359800 -12.212000 -9.677800
H -36.885700 -11.813600 -10.398200
H -36.750100 -13.271900 -7.993900
C -36.373900 -13.107300 -8.850600
H -36.242300 -13.927700 -9.309300
O -35.109400 -12.411200 -8.710000
H -34.902500 -11.977000 -9.529200
31
Fragment
H -52.244200 -17.572700 -8.499400
O -52.037300 -18.006900 -9.318600
H -50.904400 -19.523400 -8.719400
C -50.772800 -18.703000 -9.178000
H -50.396600 -18.867500 -10.034700
H -50.261000 -17.409300 -7.630400
C -49.786900 -17.807700 -8.350900
H -49.727100 -15.908500 -9.196800
C -49.147500 -16.660600 -9.206900
O -48.969800 -17.128400 -10.567700
O -48.688600 -18.676200 -7.961400
H -48.306600 -16.426700 -8.831900
H -48.280400 -17.782000 -10.581400
H -48.094200 -17.104900 -6.897000
H -47.890000 -18.456800 -6.154300
C -47.869700 -18.022600 -6.998700
H -46.663900 -23.054200 -7.593700
N -46.509300 -18.124400 -7.558300
N -46.377700 -20.560800 -7.661400
C -45.880700 -19.316300 -7.840300
N -45.813300 -22.808000 -7.937600
H -45.757200 -16.206200 -7.828000
C -45.625900 -17.143000 -7.900900
C -45.480700 -21.502000 -8.048000
H -45.196300 -23.479500 -8.204500
C -44.653400 -18.911200 -8.335700
N -44.483700 -17.569300 -8.378300
N -44.243800 -21.194200 -8.549200
C -43.734900 -19.946400 -8.733100
H -43.648900 -21.888100 -8.807300
O -42.584800 -19.836700 -9.202500
62
Fragment
O -44.561900 -14.241000 -8.826100
H -43.497800 -16.292400 -9.221300
C -43.411800 -14.350700 -9.295600
N -42.902900 -15.598500 -9.479500
N -42.663000 -11.973700 -9.650400
C -42.493300 -13.315500 -9.692900
H -41.950400 -17.883800 -9.824200
C -41.666000 -15.906300 -9.980600
C -41.520800 -11.547300 -10.127800
H -41.389500 -10.610500 -10.200600
N -41.333400 -17.212300 -10.091000
C -41.266000 -13.720600 -10.188300
N -40.769000 -14.965100 -10.367200
N -40.637400 -12.528700 -10.470300
H -40.482800 -17.458600 -10.435000
C -39.277000 -12.426900 -11.029900
H -39.256700 -12.861100 -11.874400
H -39.052500 -11.509200 -11.131600
H -38.866300 -12.186300 -7.447300
H -38.840100 -10.831000 -9.196800
O -38.458100 -13.080500 -10.067200
O -38.176900 -11.532700 -7.461000
C -37.999200 -11.064900 -8.821800
H -37.419600 -10.312900 -8.831900
C -37.359800 -12.212000 -9.677800
H -36.885700 -11.813600 -10.398200
H -36.750100 -13.271900 -7.993900
C -36.373900 -13.107300 -8.850600
H -36.242300 -13.927700 -9.309300
O -35.109400 -12.411200 -8.710000
H -34.902500 -11.977000 -9.529200
H -52.244200 -17.572700 -8.499400
O -52.037300 -18.006900 -9.318600
H -50.904400 -19.523400 -8.719400
C -50.772800 -18.703000 -9.178000
H -50.396600 -18.867500 -10.034700
H -50.261000 -17.409300 -7.630400
C -49.786900 -17.807700 -8.350900
H -49.727100 -15.908500 -9.196800
C -49.147500 -16.660600 -9.206900
O -48.969800 -17.128400 -10.567700
O -48.688600 -18.676200 -7.961400
H -48.306600 -16.426700 -8.831900
H -48.280400 -17.782000 -10.581400
H -48.094200 -17.104900 -6.897000
H -47.890000 -18.456800 -6.154300
C -47.869700 -18.022600 -6.998700
H -46.663900 -23.054200 -7.593700
N -46.509300 -18.124400 -7.558300
N -46.377700 -20.560800 -7.661400
C -45.880700 -19.316300 -7.840300
N -45.813300 -22.808000 -7.937600
H -45.757200 -16.206200 -7.828000
C -45.625900 -17.143000 -7.900900
C -45.480700 -21.502000 -8.048000
H -45.196300 -23.479500 -8.204500
C -44.653400 -18.911200 -8.335700
N -44.483700 -17.569300 -8.378300
N -44.243800 -21.194200 -8.549200
C -43.734900 -19.946400 -8.733100
H -43.648900 -21.888100 -8.807300
O -42.584800 -19.836700 -9.202500
