31
Fragment
O -44.561900 -14.241000 -8.826100
H -43.497800 -16.292400 -9.221300
C -43.411800 -14.350700 -9.295600
N -42.902900 -15.598500 -9.479500
N -42.663000 -11.973700 -9.650400
C -42.493300 -13.315500 -9.692900
H -41.950400 -17.883800 -9.824200
C -41.666000 -15.906300 -9.980600
C -41.520800 -11.547300 -10.127800
H -41.389500 -10.610500 -10.200600
N -41.333400 -17.212300 -10.091000
C -41.266000 -13.720600 -10.188300
N -40.769000 -14.965100 -10.367200
N -40.637400 -12.528700 -10.470300
H -40.482800 -17.458600 -10.435000
C -39.277000 -12.426900 -11.029900
H -39.256700 -12.861100 -11.874400
H -39.052500 -11.509200 -11.131600
H -38.866300 -12.186300 -7.447300
H -38.840100 -10.831000 -9.196800
O -38.458100 -13.080500 -10.067200
O -38.176900 -11.532700 -7.461000
C -37.999200 -11.064900 -8.821800
H -37.419600 -10.312900 -8.831900
C -37.359800 -12.212000 -9.677800
H -36.885700 -11.813600 -10.398200
H -36.750100 -13.271900 -7.993900
C -36.373900 -13.107300 -8.850600
H -36.242300 -13.927700 -9.309300
O -35.109400 -12.411200 -8.710000
H -34.902500 -11.977000 -9.529200
31
Fragment
H -37.719700 -10.405700 -13.134900
O -37.512900 -9.971500 -12.315700
H -36.380000 -8.455100 -12.915000
C -36.248400 -9.275400 -12.456300
H -35.872200 -9.110900 -11.599600
H -35.736500 -10.569100 -14.003900
C -35.262500 -10.170700 -13.283500
H -35.202600 -12.069900 -12.437600
C -34.623100 -11.317800 -12.427500
O -34.445300 -10.850000 -11.066700
O -34.164100 -9.302300 -13.672900
H -33.782100 -11.551700 -12.802500
H -33.756000 -10.196500 -11.053000
H -33.569800 -10.873500 -14.737300
H -33.365600 -9.521600 -15.480100
C -33.345200 -9.955900 -14.635600
H -32.139400 -4.924200 -14.040700
N -31.984900 -9.854000 -14.076000
N -31.853300 -7.417600 -13.972900
C -31.356300 -8.662100 -13.794100
N -31.288900 -5.170400 -13.696700
H -31.232800 -11.772200 -13.806300
C -31.101500 -10.835500 -13.733500
C -30.956300 -6.476500 -13.586400
H -30.671900 -4.498900 -13.429900
C -30.128900 -9.067300 -13.298600
N -29.959300 -10.409100 -13.256100
N -29.719300 -6.784200 -13.085200
C -29.210400 -8.032100 -12.901300
H -29.124400 -6.090300 -12.827000
O -28.060400 -8.141700 -12.431800
62
Fragment
O -44.561900 -14.241000 -8.826100
H -43.497800 -16.292400 -9.221300
C -43.411800 -14.350700 -9.295600
N -42.902900 -15.598500 -9.479500
N -42.663000 -11.973700 -9.650400
C -42.493300 -13.315500 -9.692900
H -41.950400 -17.883800 -9.824200
C -41.666000 -15.906300 -9.980600
C -41.520800 -11.547300 -10.127800
H -41.389500 -10.610500 -10.200600
N -41.333400 -17.212300 -10.091000
C -41.266000 -13.720600 -10.188300
N -40.769000 -14.965100 -10.367200
N -40.637400 -12.528700 -10.470300
H -40.482800 -17.458600 -10.435000
C -39.277000 -12.426900 -11.029900
H -39.256700 -12.861100 -11.874400
H -39.052500 -11.509200 -11.131600
H -38.866300 -12.186300 -7.447300
H -38.840100 -10.831000 -9.196800
O -38.458100 -13.080500 -10.067200
O -38.176900 -11.532700 -7.461000
C -37.999200 -11.064900 -8.821800
H -37.419600 -10.312900 -8.831900
C -37.359800 -12.212000 -9.677800
H -36.885700 -11.813600 -10.398200
H -36.750100 -13.271900 -7.993900
C -36.373900 -13.107300 -8.850600
H -36.242300 -13.927700 -9.309300
O -35.109400 -12.411200 -8.710000
H -34.902500 -11.977000 -9.529200
H -37.719700 -10.405700 -13.134900
O -37.512900 -9.971500 -12.315700
H -36.380000 -8.455100 -12.915000
C -36.248400 -9.275400 -12.456300
H -35.872200 -9.110900 -11.599600
H -35.736500 -10.569100 -14.003900
C -35.262500 -10.170700 -13.283500
H -35.202600 -12.069900 -12.437600
C -34.623100 -11.317800 -12.427500
O -34.445300 -10.850000 -11.066700
O -34.164100 -9.302300 -13.672900
H -33.782100 -11.551700 -12.802500
H -33.756000 -10.196500 -11.053000
H -33.569800 -10.873500 -14.737300
H -33.365600 -9.521600 -15.480100
C -33.345200 -9.955900 -14.635600
H -32.139400 -4.924200 -14.040700
N -31.984900 -9.854000 -14.076000
N -31.853300 -7.417600 -13.972900
C -31.356300 -8.662100 -13.794100
N -31.288900 -5.170400 -13.696700
H -31.232800 -11.772200 -13.806300
C -31.101500 -10.835500 -13.733500
C -30.956300 -6.476500 -13.586400
H -30.671900 -4.498900 -13.429900
C -30.128900 -9.067300 -13.298600
N -29.959300 -10.409100 -13.256100
N -29.719300 -6.784200 -13.085200
C -29.210400 -8.032100 -12.901300
H -29.124400 -6.090300 -12.827000
O -28.060400 -8.141700 -12.431800
