34
Fragment
H -17.909100 -8.012500 -36.130600
H -17.110500 -6.224500 -37.209300
C -16.936900 -8.099400 -36.296000
O -16.885700 -8.946000 -33.988400
H -16.826400 -6.406200 -34.258100
H -16.813400 -4.173200 -40.957000
H -16.777300 -8.875000 -36.889300
H -16.368700 -9.474800 -33.590200
N -16.366100 -5.383700 -39.505500
C -16.359700 -6.808900 -36.901300
C -16.218800 -4.862400 -40.686300
C -16.165400 -8.241400 -34.984200
C -15.965600 -6.778700 -34.606900
O -15.640200 -6.139700 -35.846900
C -15.468600 -6.362800 -39.193800
N -15.453000 -7.040900 -38.007200
H -15.428500 -4.139800 -43.341200
H -15.281500 -8.680100 -35.147700
N -15.239700 -5.265600 -41.560800
C -14.986800 -4.834300 -42.865300
H -14.968900 -7.197700 -32.854300
O -14.941300 -5.220600 -33.069000
C -14.875300 -6.546100 -33.592700
C -14.448700 -6.869800 -40.003300
C -14.423800 -7.961200 -38.046300
C -14.343800 -6.299200 -41.293700
H -14.194400 -8.555600 -37.340400
H -14.185400 -4.857100 -33.131500
H -13.993100 -6.688600 -34.018700
C -13.976400 -5.621600 -43.305400
C -13.783900 -7.887000 -39.256300
H -13.594700 -5.559100 -44.172800
N -13.563500 -6.530700 -42.339800
H -13.044100 -8.409900 -39.540600
34
Fragment
H -13.153800 -11.058800 -36.067600
N -12.634400 -9.179700 -33.268400
H -12.603200 -8.208000 -31.435400
C -12.414000 -10.535900 -36.351900
C -12.221500 -8.270600 -32.302900
H -12.204800 -9.337500 -41.589600
H -12.012500 -7.506100 -42.476700
H -12.003500 -11.204500 -38.267800
C -11.854100 -8.948200 -34.314500
C -11.774100 -10.610100 -37.561900
C -11.749200 -9.518700 -35.604900
C -11.322600 -9.195000 -42.015500
O -11.256600 -7.869500 -42.539200
H -11.229000 -9.846700 -42.753900
C -11.211100 -7.483300 -32.742900
N -10.958200 -7.914500 -34.047400
H -10.916400 -11.329000 -40.460500
H -10.769400 -6.788700 -32.267100
N -10.744900 -9.689900 -37.601000
C -10.729300 -9.011700 -36.414400
O -10.557700 -8.788700 -39.761400
C -10.232300 -9.427600 -41.001300
C -10.032500 -10.890400 -40.624000
C -9.979100 -7.511400 -34.921900
C -9.838300 -9.457800 -38.706900
N -9.831800 -8.032700 -36.102700
H -9.829200 -12.123700 -42.018000
H -9.420600 -11.524000 -38.719000
H -9.384500 -6.822100 -34.651200
H -9.371500 -9.055200 -41.350100
O -9.312200 -11.595000 -41.619800
C -9.261000 -10.748400 -39.312200
H -9.087400 -8.873500 -38.398900
H -8.288800 -10.661500 -39.477600
68
Fragment
H -17.909100 -8.012500 -36.130600
H -17.110500 -6.224500 -37.209300
C -16.936900 -8.099400 -36.296000
O -16.885700 -8.946000 -33.988400
H -16.826400 -6.406200 -34.258100
H -16.813400 -4.173200 -40.957000
H -16.777300 -8.875000 -36.889300
H -16.368700 -9.474800 -33.590200
N -16.366100 -5.383700 -39.505500
C -16.359700 -6.808900 -36.901300
C -16.218800 -4.862400 -40.686300
C -16.165400 -8.241400 -34.984200
C -15.965600 -6.778700 -34.606900
O -15.640200 -6.139700 -35.846900
C -15.468600 -6.362800 -39.193800
N -15.453000 -7.040900 -38.007200
H -15.428500 -4.139800 -43.341200
H -15.281500 -8.680100 -35.147700
N -15.239700 -5.265600 -41.560800
C -14.986800 -4.834300 -42.865300
H -14.968900 -7.197700 -32.854300
O -14.941300 -5.220600 -33.069000
C -14.875300 -6.546100 -33.592700
C -14.448700 -6.869800 -40.003300
C -14.423800 -7.961200 -38.046300
C -14.343800 -6.299200 -41.293700
H -14.194400 -8.555600 -37.340400
H -14.185400 -4.857100 -33.131500
H -13.993100 -6.688600 -34.018700
C -13.976400 -5.621600 -43.305400
C -13.783900 -7.887000 -39.256300
H -13.594700 -5.559100 -44.172800
N -13.563500 -6.530700 -42.339800
H -13.044100 -8.409900 -39.540600
H -13.153800 -11.058800 -36.067600
N -12.634400 -9.179700 -33.268400
H -12.603200 -8.208000 -31.435400
C -12.414000 -10.535900 -36.351900
C -12.221500 -8.270600 -32.302900
H -12.204800 -9.337500 -41.589600
H -12.012500 -7.506100 -42.476700
H -12.003500 -11.204500 -38.267800
C -11.854100 -8.948200 -34.314500
C -11.774100 -10.610100 -37.561900
C -11.749200 -9.518700 -35.604900
C -11.322600 -9.195000 -42.015500
O -11.256600 -7.869500 -42.539200
H -11.229000 -9.846700 -42.753900
C -11.211100 -7.483300 -32.742900
N -10.958200 -7.914500 -34.047400
H -10.916400 -11.329000 -40.460500
H -10.769400 -6.788700 -32.267100
N -10.744900 -9.689900 -37.601000
C -10.729300 -9.011700 -36.414400
O -10.557700 -8.788700 -39.761400
C -10.232300 -9.427600 -41.001300
C -10.032500 -10.890400 -40.624000
C -9.979100 -7.511400 -34.921900
C -9.838300 -9.457800 -38.706900
N -9.831800 -8.032700 -36.102700
H -9.829200 -12.123700 -42.018000
H -9.420600 -11.524000 -38.719000
H -9.384500 -6.822100 -34.651200
H -9.371500 -9.055200 -41.350100
O -9.312200 -11.595000 -41.619800
C -9.261000 -10.748400 -39.312200
H -9.087400 -8.873500 -38.398900
H -8.288800 -10.661500 -39.477600
