34
Fragment
H -17.909100 -8.012500 -36.130600
H -17.110500 -6.224500 -37.209300
C -16.936900 -8.099400 -36.296000
O -16.885700 -8.946000 -33.988400
H -16.826400 -6.406200 -34.258100
H -16.813400 -4.173200 -40.957000
H -16.777300 -8.875000 -36.889300
H -16.368700 -9.474800 -33.590200
N -16.366100 -5.383700 -39.505500
C -16.359700 -6.808900 -36.901300
C -16.218800 -4.862400 -40.686300
C -16.165400 -8.241400 -34.984200
C -15.965600 -6.778700 -34.606900
O -15.640200 -6.139700 -35.846900
C -15.468600 -6.362800 -39.193800
N -15.453000 -7.040900 -38.007200
H -15.428500 -4.139800 -43.341200
H -15.281500 -8.680100 -35.147700
N -15.239700 -5.265600 -41.560800
C -14.986800 -4.834300 -42.865300
H -14.968900 -7.197700 -32.854300
O -14.941300 -5.220600 -33.069000
C -14.875300 -6.546100 -33.592700
C -14.448700 -6.869800 -40.003300
C -14.423800 -7.961200 -38.046300
C -14.343800 -6.299200 -41.293700
H -14.194400 -8.555600 -37.340400
H -14.185400 -4.857100 -33.131500
H -13.993100 -6.688600 -34.018700
C -13.976400 -5.621600 -43.305400
C -13.783900 -7.887000 -39.256300
H -13.594700 -5.559100 -44.172800
N -13.563500 -6.530700 -42.339800
H -13.044100 -8.409900 -39.540600
34
Fragment
H -17.909100 -13.310400 -36.130600
H -17.110500 -11.522400 -37.209300
C -16.936900 -13.397300 -36.296000
O -16.885700 -14.243900 -33.988400
H -16.826400 -11.704100 -34.258100
H -16.813400 -9.471100 -40.957000
H -16.777300 -14.172900 -36.889300
H -16.368700 -14.772700 -33.590200
N -16.366100 -10.681600 -39.505500
C -16.359700 -12.106800 -36.901300
C -16.218800 -10.160300 -40.686300
C -16.165400 -13.539300 -34.984200
C -15.965600 -12.076600 -34.606900
O -15.640200 -11.437600 -35.846900
C -15.468600 -11.660700 -39.193800
N -15.453000 -12.338800 -38.007200
H -15.428500 -9.437700 -43.341200
H -15.281500 -13.978000 -35.147700
N -15.239700 -10.563500 -41.560800
C -14.986800 -10.132200 -42.865300
H -14.968900 -12.495600 -32.854300
O -14.941300 -10.518500 -33.069000
C -14.875300 -11.844000 -33.592700
C -14.448700 -12.167700 -40.003300
C -14.423800 -13.259100 -38.046300
C -14.343800 -11.597100 -41.293700
H -14.194400 -13.853500 -37.340400
H -14.185400 -10.155000 -33.131500
H -13.993100 -11.986500 -34.018700
C -13.976400 -10.919500 -43.305400
C -13.783900 -13.184900 -39.256300
H -13.594700 -10.857000 -44.172800
N -13.563500 -11.828600 -42.339800
H -13.044100 -13.707800 -39.540600
68
Fragment
H -17.909100 -8.012500 -36.130600
H -17.110500 -6.224500 -37.209300
C -16.936900 -8.099400 -36.296000
O -16.885700 -8.946000 -33.988400
H -16.826400 -6.406200 -34.258100
H -16.813400 -4.173200 -40.957000
H -16.777300 -8.875000 -36.889300
H -16.368700 -9.474800 -33.590200
N -16.366100 -5.383700 -39.505500
C -16.359700 -6.808900 -36.901300
C -16.218800 -4.862400 -40.686300
C -16.165400 -8.241400 -34.984200
C -15.965600 -6.778700 -34.606900
O -15.640200 -6.139700 -35.846900
C -15.468600 -6.362800 -39.193800
N -15.453000 -7.040900 -38.007200
H -15.428500 -4.139800 -43.341200
H -15.281500 -8.680100 -35.147700
N -15.239700 -5.265600 -41.560800
C -14.986800 -4.834300 -42.865300
H -14.968900 -7.197700 -32.854300
O -14.941300 -5.220600 -33.069000
C -14.875300 -6.546100 -33.592700
C -14.448700 -6.869800 -40.003300
C -14.423800 -7.961200 -38.046300
C -14.343800 -6.299200 -41.293700
H -14.194400 -8.555600 -37.340400
H -14.185400 -4.857100 -33.131500
H -13.993100 -6.688600 -34.018700
C -13.976400 -5.621600 -43.305400
C -13.783900 -7.887000 -39.256300
H -13.594700 -5.559100 -44.172800
N -13.563500 -6.530700 -42.339800
H -13.044100 -8.409900 -39.540600
H -17.909100 -13.310400 -36.130600
H -17.110500 -11.522400 -37.209300
C -16.936900 -13.397300 -36.296000
O -16.885700 -14.243900 -33.988400
H -16.826400 -11.704100 -34.258100
H -16.813400 -9.471100 -40.957000
H -16.777300 -14.172900 -36.889300
H -16.368700 -14.772700 -33.590200
N -16.366100 -10.681600 -39.505500
C -16.359700 -12.106800 -36.901300
C -16.218800 -10.160300 -40.686300
C -16.165400 -13.539300 -34.984200
C -15.965600 -12.076600 -34.606900
O -15.640200 -11.437600 -35.846900
C -15.468600 -11.660700 -39.193800
N -15.453000 -12.338800 -38.007200
H -15.428500 -9.437700 -43.341200
H -15.281500 -13.978000 -35.147700
N -15.239700 -10.563500 -41.560800
C -14.986800 -10.132200 -42.865300
H -14.968900 -12.495600 -32.854300
O -14.941300 -10.518500 -33.069000
C -14.875300 -11.844000 -33.592700
C -14.448700 -12.167700 -40.003300
C -14.423800 -13.259100 -38.046300
C -14.343800 -11.597100 -41.293700
H -14.194400 -13.853500 -37.340400
H -14.185400 -10.155000 -33.131500
H -13.993100 -11.986500 -34.018700
C -13.976400 -10.919500 -43.305400
C -13.783900 -13.184900 -39.256300
H -13.594700 -10.857000 -44.172800
N -13.563500 -11.828600 -42.339800
H -13.044100 -13.707800 -39.540600
