34
Fragment
H -17.909100 -8.012500 -36.130600
H -17.110500 -6.224500 -37.209300
C -16.936900 -8.099400 -36.296000
O -16.885700 -8.946000 -33.988400
H -16.826400 -6.406200 -34.258100
H -16.813400 -4.173200 -40.957000
H -16.777300 -8.875000 -36.889300
H -16.368700 -9.474800 -33.590200
N -16.366100 -5.383700 -39.505500
C -16.359700 -6.808900 -36.901300
C -16.218800 -4.862400 -40.686300
C -16.165400 -8.241400 -34.984200
C -15.965600 -6.778700 -34.606900
O -15.640200 -6.139700 -35.846900
C -15.468600 -6.362800 -39.193800
N -15.453000 -7.040900 -38.007200
H -15.428500 -4.139800 -43.341200
H -15.281500 -8.680100 -35.147700
N -15.239700 -5.265600 -41.560800
C -14.986800 -4.834300 -42.865300
H -14.968900 -7.197700 -32.854300
O -14.941300 -5.220600 -33.069000
C -14.875300 -6.546100 -33.592700
C -14.448700 -6.869800 -40.003300
C -14.423800 -7.961200 -38.046300
C -14.343800 -6.299200 -41.293700
H -14.194400 -8.555600 -37.340400
H -14.185400 -4.857100 -33.131500
H -13.993100 -6.688600 -34.018700
C -13.976400 -5.621600 -43.305400
C -13.783900 -7.887000 -39.256300
H -13.594700 -5.559100 -44.172800
N -13.563500 -6.530700 -42.339800
H -13.044100 -8.409900 -39.540600
34
Fragment
H -22.977600 -8.409900 -36.067600
N -22.458200 -6.530700 -33.268400
H -22.427000 -5.559100 -31.435400
C -22.237800 -7.887000 -36.351900
C -22.045300 -5.621600 -32.302900
H -22.028600 -6.688600 -41.589600
H -21.836300 -4.857100 -42.476700
H -21.827300 -8.555600 -38.267800
C -21.677900 -6.299200 -34.314500
C -21.597900 -7.961200 -37.561900
C -21.573000 -6.869800 -35.604900
C -21.146400 -6.546100 -42.015500
O -21.080400 -5.220600 -42.539200
H -21.052800 -7.197700 -42.753900
C -21.034900 -4.834300 -32.742900
N -20.782000 -5.265600 -34.047400
H -20.740200 -8.680100 -40.460500
H -20.593200 -4.139800 -32.267100
N -20.568700 -7.040900 -37.601000
C -20.553100 -6.362800 -36.414400
O -20.381500 -6.139700 -39.761400
C -20.056100 -6.778700 -41.001300
C -19.856300 -8.241400 -40.624000
C -19.802900 -4.862400 -34.921900
C -19.662100 -6.808900 -38.706900
N -19.655600 -5.383700 -36.102700
H -19.653000 -9.474800 -42.018000
H -19.244400 -8.875000 -38.719000
H -19.208300 -4.173200 -34.651200
H -19.195300 -6.406200 -41.350100
O -19.136000 -8.946000 -41.619800
C -19.084800 -8.099400 -39.312200
H -18.911200 -6.224500 -38.398900
H -18.112600 -8.012500 -39.477600
68
Fragment
H -17.909100 -8.012500 -36.130600
H -17.110500 -6.224500 -37.209300
C -16.936900 -8.099400 -36.296000
O -16.885700 -8.946000 -33.988400
H -16.826400 -6.406200 -34.258100
H -16.813400 -4.173200 -40.957000
H -16.777300 -8.875000 -36.889300
H -16.368700 -9.474800 -33.590200
N -16.366100 -5.383700 -39.505500
C -16.359700 -6.808900 -36.901300
C -16.218800 -4.862400 -40.686300
C -16.165400 -8.241400 -34.984200
C -15.965600 -6.778700 -34.606900
O -15.640200 -6.139700 -35.846900
C -15.468600 -6.362800 -39.193800
N -15.453000 -7.040900 -38.007200
H -15.428500 -4.139800 -43.341200
H -15.281500 -8.680100 -35.147700
N -15.239700 -5.265600 -41.560800
C -14.986800 -4.834300 -42.865300
H -14.968900 -7.197700 -32.854300
O -14.941300 -5.220600 -33.069000
C -14.875300 -6.546100 -33.592700
C -14.448700 -6.869800 -40.003300
C -14.423800 -7.961200 -38.046300
C -14.343800 -6.299200 -41.293700
H -14.194400 -8.555600 -37.340400
H -14.185400 -4.857100 -33.131500
H -13.993100 -6.688600 -34.018700
C -13.976400 -5.621600 -43.305400
C -13.783900 -7.887000 -39.256300
H -13.594700 -5.559100 -44.172800
N -13.563500 -6.530700 -42.339800
H -13.044100 -8.409900 -39.540600
H -22.977600 -8.409900 -36.067600
N -22.458200 -6.530700 -33.268400
H -22.427000 -5.559100 -31.435400
C -22.237800 -7.887000 -36.351900
C -22.045300 -5.621600 -32.302900
H -22.028600 -6.688600 -41.589600
H -21.836300 -4.857100 -42.476700
H -21.827300 -8.555600 -38.267800
C -21.677900 -6.299200 -34.314500
C -21.597900 -7.961200 -37.561900
C -21.573000 -6.869800 -35.604900
C -21.146400 -6.546100 -42.015500
O -21.080400 -5.220600 -42.539200
H -21.052800 -7.197700 -42.753900
C -21.034900 -4.834300 -32.742900
N -20.782000 -5.265600 -34.047400
H -20.740200 -8.680100 -40.460500
H -20.593200 -4.139800 -32.267100
N -20.568700 -7.040900 -37.601000
C -20.553100 -6.362800 -36.414400
O -20.381500 -6.139700 -39.761400
C -20.056100 -6.778700 -41.001300
C -19.856300 -8.241400 -40.624000
C -19.802900 -4.862400 -34.921900
C -19.662100 -6.808900 -38.706900
N -19.655600 -5.383700 -36.102700
H -19.653000 -9.474800 -42.018000
H -19.244400 -8.875000 -38.719000
H -19.208300 -4.173200 -34.651200
H -19.195300 -6.406200 -41.350100
O -19.136000 -8.946000 -41.619800
C -19.084800 -8.099400 -39.312200
H -18.911200 -6.224500 -38.398900
H -18.112600 -8.012500 -39.477600
