34
Fragment
H -17.909100 -8.012500 -36.130600
H -17.110500 -6.224500 -37.209300
C -16.936900 -8.099400 -36.296000
O -16.885700 -8.946000 -33.988400
H -16.826400 -6.406200 -34.258100
H -16.813400 -4.173200 -40.957000
H -16.777300 -8.875000 -36.889300
H -16.368700 -9.474800 -33.590200
N -16.366100 -5.383700 -39.505500
C -16.359700 -6.808900 -36.901300
C -16.218800 -4.862400 -40.686300
C -16.165400 -8.241400 -34.984200
C -15.965600 -6.778700 -34.606900
O -15.640200 -6.139700 -35.846900
C -15.468600 -6.362800 -39.193800
N -15.453000 -7.040900 -38.007200
H -15.428500 -4.139800 -43.341200
H -15.281500 -8.680100 -35.147700
N -15.239700 -5.265600 -41.560800
C -14.986800 -4.834300 -42.865300
H -14.968900 -7.197700 -32.854300
O -14.941300 -5.220600 -33.069000
C -14.875300 -6.546100 -33.592700
C -14.448700 -6.869800 -40.003300
C -14.423800 -7.961200 -38.046300
C -14.343800 -6.299200 -41.293700
H -14.194400 -8.555600 -37.340400
H -14.185400 -4.857100 -33.131500
H -13.993100 -6.688600 -34.018700
C -13.976400 -5.621600 -43.305400
C -13.783900 -7.887000 -39.256300
H -13.594700 -5.559100 -44.172800
N -13.563500 -6.530700 -42.339800
H -13.044100 -8.409900 -39.540600
34
Fragment
H -19.098600 -3.364200 -51.935300
N -18.642400 -5.261300 -54.727200
H -18.615100 -6.194300 -56.582700
C -18.362000 -3.895000 -51.657800
C -18.215600 -6.133400 -55.721500
H -18.104100 -5.102400 -46.420900
H -17.954900 -7.020800 -45.753100
H -17.939200 -3.243400 -49.745200
C -17.832600 -5.472200 -53.703000
C -17.716000 -3.835100 -50.453600
C -17.711600 -4.909600 -52.415100
O -17.235200 -6.648300 -45.530800
C -17.228300 -5.307400 -46.007900
C -17.163000 -6.885700 -55.319800
H -17.097300 -4.689700 -45.244000
N -16.899300 -6.462400 -54.012200
H -16.766800 -3.144800 -47.494600
H -16.703800 -7.553200 -55.816500
N -16.690600 -4.761200 -50.420400
C -16.684800 -5.422900 -51.618500
O -16.506000 -5.684100 -48.274300
C -16.136200 -5.083300 -47.023000
C -15.908400 -6.875100 -53.147300
C -15.895400 -3.619500 -47.371300
C -15.778900 -5.024000 -49.322300
N -15.776900 -6.387100 -51.949100
H -15.605000 -2.457200 -45.934500
H -15.340600 -2.963600 -49.289000
H -15.297200 -7.542100 -53.437400
H -15.283900 -5.492900 -46.695600
C -15.169500 -3.750900 -48.713400
O -15.113500 -2.961500 -46.391900
H -15.043800 -5.622100 -49.639300
H -14.192900 -3.850500 -48.583300
68
Fragment
H -17.909100 -8.012500 -36.130600
H -17.110500 -6.224500 -37.209300
C -16.936900 -8.099400 -36.296000
O -16.885700 -8.946000 -33.988400
H -16.826400 -6.406200 -34.258100
H -16.813400 -4.173200 -40.957000
H -16.777300 -8.875000 -36.889300
H -16.368700 -9.474800 -33.590200
N -16.366100 -5.383700 -39.505500
C -16.359700 -6.808900 -36.901300
C -16.218800 -4.862400 -40.686300
C -16.165400 -8.241400 -34.984200
C -15.965600 -6.778700 -34.606900
O -15.640200 -6.139700 -35.846900
C -15.468600 -6.362800 -39.193800
N -15.453000 -7.040900 -38.007200
H -15.428500 -4.139800 -43.341200
H -15.281500 -8.680100 -35.147700
N -15.239700 -5.265600 -41.560800
C -14.986800 -4.834300 -42.865300
H -14.968900 -7.197700 -32.854300
O -14.941300 -5.220600 -33.069000
C -14.875300 -6.546100 -33.592700
C -14.448700 -6.869800 -40.003300
C -14.423800 -7.961200 -38.046300
C -14.343800 -6.299200 -41.293700
H -14.194400 -8.555600 -37.340400
H -14.185400 -4.857100 -33.131500
H -13.993100 -6.688600 -34.018700
C -13.976400 -5.621600 -43.305400
C -13.783900 -7.887000 -39.256300
H -13.594700 -5.559100 -44.172800
N -13.563500 -6.530700 -42.339800
H -13.044100 -8.409900 -39.540600
H -19.098600 -3.364200 -51.935300
N -18.642400 -5.261300 -54.727200
H -18.615100 -6.194300 -56.582700
C -18.362000 -3.895000 -51.657800
C -18.215600 -6.133400 -55.721500
H -18.104100 -5.102400 -46.420900
H -17.954900 -7.020800 -45.753100
H -17.939200 -3.243400 -49.745200
C -17.832600 -5.472200 -53.703000
C -17.716000 -3.835100 -50.453600
C -17.711600 -4.909600 -52.415100
O -17.235200 -6.648300 -45.530800
C -17.228300 -5.307400 -46.007900
C -17.163000 -6.885700 -55.319800
H -17.097300 -4.689700 -45.244000
N -16.899300 -6.462400 -54.012200
H -16.766800 -3.144800 -47.494600
H -16.703800 -7.553200 -55.816500
N -16.690600 -4.761200 -50.420400
C -16.684800 -5.422900 -51.618500
O -16.506000 -5.684100 -48.274300
C -16.136200 -5.083300 -47.023000
C -15.908400 -6.875100 -53.147300
C -15.895400 -3.619500 -47.371300
C -15.778900 -5.024000 -49.322300
N -15.776900 -6.387100 -51.949100
H -15.605000 -2.457200 -45.934500
H -15.340600 -2.963600 -49.289000
H -15.297200 -7.542100 -53.437400
H -15.283900 -5.492900 -46.695600
C -15.169500 -3.750900 -48.713400
O -15.113500 -2.961500 -46.391900
H -15.043800 -5.622100 -49.639300
H -14.192900 -3.850500 -48.583300
