34
Fragment
H -17.909100 -8.012500 -36.130600
H -17.110500 -6.224500 -37.209300
C -16.936900 -8.099400 -36.296000
O -16.885700 -8.946000 -33.988400
H -16.826400 -6.406200 -34.258100
H -16.813400 -4.173200 -40.957000
H -16.777300 -8.875000 -36.889300
H -16.368700 -9.474800 -33.590200
N -16.366100 -5.383700 -39.505500
C -16.359700 -6.808900 -36.901300
C -16.218800 -4.862400 -40.686300
C -16.165400 -8.241400 -34.984200
C -15.965600 -6.778700 -34.606900
O -15.640200 -6.139700 -35.846900
C -15.468600 -6.362800 -39.193800
N -15.453000 -7.040900 -38.007200
H -15.428500 -4.139800 -43.341200
H -15.281500 -8.680100 -35.147700
N -15.239700 -5.265600 -41.560800
C -14.986800 -4.834300 -42.865300
H -14.968900 -7.197700 -32.854300
O -14.941300 -5.220600 -33.069000
C -14.875300 -6.546100 -33.592700
C -14.448700 -6.869800 -40.003300
C -14.423800 -7.961200 -38.046300
C -14.343800 -6.299200 -41.293700
H -14.194400 -8.555600 -37.340400
H -14.185400 -4.857100 -33.131500
H -13.993100 -6.688600 -34.018700
C -13.976400 -5.621600 -43.305400
C -13.783900 -7.887000 -39.256300
H -13.594700 -5.559100 -44.172800
N -13.563500 -6.530700 -42.339800
H -13.044100 -8.409900 -39.540600
34
Fragment
H -17.909100 -2.714600 -36.130600
H -17.110500 -0.926600 -37.209300
C -16.936900 -2.801500 -36.296000
O -16.885700 -3.648100 -33.988400
H -16.826400 -1.108300 -34.258100
H -16.813400 1.124700 -40.957000
H -16.777300 -3.577100 -36.889300
H -16.368700 -4.176900 -33.590200
N -16.366100 -0.085800 -39.505500
C -16.359700 -1.511000 -36.901300
C -16.218800 0.435500 -40.686300
C -16.165400 -2.943500 -34.984200
C -15.965600 -1.480800 -34.606900
O -15.640200 -0.841800 -35.846900
C -15.468600 -1.064900 -39.193800
N -15.453000 -1.743000 -38.007200
H -15.428500 1.158100 -43.341200
H -15.281500 -3.382200 -35.147700
N -15.239700 0.032300 -41.560800
C -14.986800 0.463600 -42.865300
H -14.968900 -1.899800 -32.854300
O -14.941300 0.077300 -33.069000
C -14.875300 -1.248200 -33.592700
C -14.448700 -1.571900 -40.003300
C -14.423800 -2.663300 -38.046300
C -14.343800 -1.001300 -41.293700
H -14.194400 -3.257700 -37.340400
H -14.185400 0.440800 -33.131500
H -13.993100 -1.390700 -34.018700
C -13.976400 -0.323700 -43.305400
C -13.783900 -2.589100 -39.256300
H -13.594700 -0.261200 -44.172800
N -13.563500 -1.232800 -42.339800
H -13.044100 -3.112000 -39.540600
68
Fragment
H -17.909100 -8.012500 -36.130600
H -17.110500 -6.224500 -37.209300
C -16.936900 -8.099400 -36.296000
O -16.885700 -8.946000 -33.988400
H -16.826400 -6.406200 -34.258100
H -16.813400 -4.173200 -40.957000
H -16.777300 -8.875000 -36.889300
H -16.368700 -9.474800 -33.590200
N -16.366100 -5.383700 -39.505500
C -16.359700 -6.808900 -36.901300
C -16.218800 -4.862400 -40.686300
C -16.165400 -8.241400 -34.984200
C -15.965600 -6.778700 -34.606900
O -15.640200 -6.139700 -35.846900
C -15.468600 -6.362800 -39.193800
N -15.453000 -7.040900 -38.007200
H -15.428500 -4.139800 -43.341200
H -15.281500 -8.680100 -35.147700
N -15.239700 -5.265600 -41.560800
C -14.986800 -4.834300 -42.865300
H -14.968900 -7.197700 -32.854300
O -14.941300 -5.220600 -33.069000
C -14.875300 -6.546100 -33.592700
C -14.448700 -6.869800 -40.003300
C -14.423800 -7.961200 -38.046300
C -14.343800 -6.299200 -41.293700
H -14.194400 -8.555600 -37.340400
H -14.185400 -4.857100 -33.131500
H -13.993100 -6.688600 -34.018700
C -13.976400 -5.621600 -43.305400
C -13.783900 -7.887000 -39.256300
H -13.594700 -5.559100 -44.172800
N -13.563500 -6.530700 -42.339800
H -13.044100 -8.409900 -39.540600
H -17.909100 -2.714600 -36.130600
H -17.110500 -0.926600 -37.209300
C -16.936900 -2.801500 -36.296000
O -16.885700 -3.648100 -33.988400
H -16.826400 -1.108300 -34.258100
H -16.813400 1.124700 -40.957000
H -16.777300 -3.577100 -36.889300
H -16.368700 -4.176900 -33.590200
N -16.366100 -0.085800 -39.505500
C -16.359700 -1.511000 -36.901300
C -16.218800 0.435500 -40.686300
C -16.165400 -2.943500 -34.984200
C -15.965600 -1.480800 -34.606900
O -15.640200 -0.841800 -35.846900
C -15.468600 -1.064900 -39.193800
N -15.453000 -1.743000 -38.007200
H -15.428500 1.158100 -43.341200
H -15.281500 -3.382200 -35.147700
N -15.239700 0.032300 -41.560800
C -14.986800 0.463600 -42.865300
H -14.968900 -1.899800 -32.854300
O -14.941300 0.077300 -33.069000
C -14.875300 -1.248200 -33.592700
C -14.448700 -1.571900 -40.003300
C -14.423800 -2.663300 -38.046300
C -14.343800 -1.001300 -41.293700
H -14.194400 -3.257700 -37.340400
H -14.185400 0.440800 -33.131500
H -13.993100 -1.390700 -34.018700
C -13.976400 -0.323700 -43.305400
C -13.783900 -2.589100 -39.256300
H -13.594700 -0.261200 -44.172800
N -13.563500 -1.232800 -42.339800
H -13.044100 -3.112000 -39.540600
