34
Fragment
H -17.909100 -8.012500 -36.130600
H -17.110500 -6.224500 -37.209300
C -16.936900 -8.099400 -36.296000
O -16.885700 -8.946000 -33.988400
H -16.826400 -6.406200 -34.258100
H -16.813400 -4.173200 -40.957000
H -16.777300 -8.875000 -36.889300
H -16.368700 -9.474800 -33.590200
N -16.366100 -5.383700 -39.505500
C -16.359700 -6.808900 -36.901300
C -16.218800 -4.862400 -40.686300
C -16.165400 -8.241400 -34.984200
C -15.965600 -6.778700 -34.606900
O -15.640200 -6.139700 -35.846900
C -15.468600 -6.362800 -39.193800
N -15.453000 -7.040900 -38.007200
H -15.428500 -4.139800 -43.341200
H -15.281500 -8.680100 -35.147700
N -15.239700 -5.265600 -41.560800
C -14.986800 -4.834300 -42.865300
H -14.968900 -7.197700 -32.854300
O -14.941300 -5.220600 -33.069000
C -14.875300 -6.546100 -33.592700
C -14.448700 -6.869800 -40.003300
C -14.423800 -7.961200 -38.046300
C -14.343800 -6.299200 -41.293700
H -14.194400 -8.555600 -37.340400
H -14.185400 -4.857100 -33.131500
H -13.993100 -6.688600 -34.018700
C -13.976400 -5.621600 -43.305400
C -13.783900 -7.887000 -39.256300
H -13.594700 -5.559100 -44.172800
N -13.563500 -6.530700 -42.339800
H -13.044100 -8.409900 -39.540600
34
Fragment
H -16.915100 -0.715200 -26.732500
N -16.458900 -2.612400 -29.524500
H -16.431600 -3.545400 -31.379900
C -16.178600 -1.246100 -26.455100
C -16.032200 -3.484400 -30.518800
H -15.920700 -2.453500 -21.218200
H -15.771400 -4.371800 -20.550300
H -15.755800 -0.594400 -24.542400
C -15.649100 -2.823300 -28.500300
C -15.532600 -1.186200 -25.250900
C -15.528100 -2.260600 -27.212400
O -15.051700 -3.999400 -20.328000
C -15.044800 -2.658500 -20.805100
C -14.979600 -4.236700 -30.117000
H -14.913900 -2.040800 -20.041200
N -14.715800 -3.813400 -28.809500
H -14.583300 -0.495900 -22.291800
H -14.520400 -4.904300 -30.613800
N -14.507200 -2.112300 -25.217600
C -14.501400 -2.774000 -26.415700
O -14.322600 -3.035200 -23.071600
C -13.952700 -2.434400 -21.820300
C -13.724900 -4.226100 -27.944500
C -13.712000 -0.970600 -22.168600
C -13.595400 -2.375000 -24.119500
N -13.593400 -3.738200 -26.746400
H -13.421600 0.191800 -20.731800
H -13.157100 -0.314700 -24.086300
H -13.113800 -4.893100 -28.234600
H -13.100500 -2.843900 -21.492900
C -12.986100 -1.102000 -23.510600
O -12.930000 -0.312600 -21.189200
H -12.860400 -2.973200 -24.436600
H -12.009500 -1.201600 -23.380600
68
Fragment
H -17.909100 -8.012500 -36.130600
H -17.110500 -6.224500 -37.209300
C -16.936900 -8.099400 -36.296000
O -16.885700 -8.946000 -33.988400
H -16.826400 -6.406200 -34.258100
H -16.813400 -4.173200 -40.957000
H -16.777300 -8.875000 -36.889300
H -16.368700 -9.474800 -33.590200
N -16.366100 -5.383700 -39.505500
C -16.359700 -6.808900 -36.901300
C -16.218800 -4.862400 -40.686300
C -16.165400 -8.241400 -34.984200
C -15.965600 -6.778700 -34.606900
O -15.640200 -6.139700 -35.846900
C -15.468600 -6.362800 -39.193800
N -15.453000 -7.040900 -38.007200
H -15.428500 -4.139800 -43.341200
H -15.281500 -8.680100 -35.147700
N -15.239700 -5.265600 -41.560800
C -14.986800 -4.834300 -42.865300
H -14.968900 -7.197700 -32.854300
O -14.941300 -5.220600 -33.069000
C -14.875300 -6.546100 -33.592700
C -14.448700 -6.869800 -40.003300
C -14.423800 -7.961200 -38.046300
C -14.343800 -6.299200 -41.293700
H -14.194400 -8.555600 -37.340400
H -14.185400 -4.857100 -33.131500
H -13.993100 -6.688600 -34.018700
C -13.976400 -5.621600 -43.305400
C -13.783900 -7.887000 -39.256300
H -13.594700 -5.559100 -44.172800
N -13.563500 -6.530700 -42.339800
H -13.044100 -8.409900 -39.540600
H -16.915100 -0.715200 -26.732500
N -16.458900 -2.612400 -29.524500
H -16.431600 -3.545400 -31.379900
C -16.178600 -1.246100 -26.455100
C -16.032200 -3.484400 -30.518800
H -15.920700 -2.453500 -21.218200
H -15.771400 -4.371800 -20.550300
H -15.755800 -0.594400 -24.542400
C -15.649100 -2.823300 -28.500300
C -15.532600 -1.186200 -25.250900
C -15.528100 -2.260600 -27.212400
O -15.051700 -3.999400 -20.328000
C -15.044800 -2.658500 -20.805100
C -14.979600 -4.236700 -30.117000
H -14.913900 -2.040800 -20.041200
N -14.715800 -3.813400 -28.809500
H -14.583300 -0.495900 -22.291800
H -14.520400 -4.904300 -30.613800
N -14.507200 -2.112300 -25.217600
C -14.501400 -2.774000 -26.415700
O -14.322600 -3.035200 -23.071600
C -13.952700 -2.434400 -21.820300
C -13.724900 -4.226100 -27.944500
C -13.712000 -0.970600 -22.168600
C -13.595400 -2.375000 -24.119500
N -13.593400 -3.738200 -26.746400
H -13.421600 0.191800 -20.731800
H -13.157100 -0.314700 -24.086300
H -13.113800 -4.893100 -28.234600
H -13.100500 -2.843900 -21.492900
C -12.986100 -1.102000 -23.510600
O -12.930000 -0.312600 -21.189200
H -12.860400 -2.973200 -24.436600
H -12.009500 -1.201600 -23.380600
