46
Fragment
H -29.977200 -19.535000 -19.872500
H -29.297500 -20.891500 -14.061600
H -29.280900 -17.100000 -25.564000
O -29.184500 -20.747900 -17.901700
O -29.167500 -18.418700 -21.910200
C -29.028000 -19.574500 -19.893800
H -28.709500 -21.095100 -17.301900
H -28.692900 -18.106800 -22.529800
N -28.456800 -21.006600 -13.775100
C -28.387500 -20.186600 -18.838400
C -28.376900 -19.007700 -20.991900
N -28.348400 -16.984600 -25.784300
H -28.300400 -21.134800 -12.753500
H -28.112400 -16.663200 -26.637400
N -27.633900 -20.907900 -15.964500
N -27.574500 -17.882800 -23.773600
C -27.457600 -21.028800 -14.643700
C -27.381500 -17.410200 -25.003900
C -26.966100 -20.198100 -18.810000
C -26.951400 -19.098600 -21.045600
C -26.373900 -20.909700 -16.583400
C -26.330000 -19.678100 -19.936200
C -26.324700 -18.254900 -23.237000
N -26.078100 -20.641200 -17.806300
N -26.053100 -18.732500 -22.074700
C -26.024700 -21.141800 -14.312500
C -25.949800 -17.480200 -25.379400
H -25.799400 -21.197600 -12.281500
H -25.718200 -16.755500 -27.282900
H -25.381300 -19.722000 -19.950700
C -25.355600 -21.123200 -15.529600
C -25.337900 -21.195100 -13.111400
C -25.294800 -18.020100 -24.276100
C -25.268200 -17.143100 -26.541600
C -23.977400 -21.202200 -15.588200
C -23.951100 -21.242400 -13.163900
C -23.943300 -18.296400 -24.325900
C -23.910400 -17.393200 -26.575300
H -23.522500 -21.218100 -16.421800
H -23.495400 -18.696000 -23.589100
H -23.451800 -21.265500 -12.355400
H -23.414200 -17.166600 -27.354000
C -23.280500 -21.257200 -14.389000
C -23.256300 -17.967200 -25.497400
H -22.331400 -21.305200 -14.401400
H -22.323900 -18.140100 -25.555400
11
Fragment
H -24.754200 -20.842800 -22.013700
H -24.677500 -21.079800 -24.314200
C -24.604900 -21.706100 -22.378000
C -24.556400 -21.836800 -23.753600
N -24.452500 -22.728300 -21.533600
C -24.331600 -23.070300 -24.294700
H -24.303000 -23.188100 -25.237000
C -24.227200 -23.911800 -22.092100
C -24.149600 -24.132200 -23.450500
H -24.112000 -24.657300 -21.516100
H -23.973700 -25.000600 -23.792400
57
Fragment
H -29.977200 -19.535000 -19.872500
H -29.297500 -20.891500 -14.061600
H -29.280900 -17.100000 -25.564000
O -29.184500 -20.747900 -17.901700
O -29.167500 -18.418700 -21.910200
C -29.028000 -19.574500 -19.893800
H -28.709500 -21.095100 -17.301900
H -28.692900 -18.106800 -22.529800
N -28.456800 -21.006600 -13.775100
C -28.387500 -20.186600 -18.838400
C -28.376900 -19.007700 -20.991900
N -28.348400 -16.984600 -25.784300
H -28.300400 -21.134800 -12.753500
H -28.112400 -16.663200 -26.637400
N -27.633900 -20.907900 -15.964500
N -27.574500 -17.882800 -23.773600
C -27.457600 -21.028800 -14.643700
C -27.381500 -17.410200 -25.003900
C -26.966100 -20.198100 -18.810000
C -26.951400 -19.098600 -21.045600
C -26.373900 -20.909700 -16.583400
C -26.330000 -19.678100 -19.936200
C -26.324700 -18.254900 -23.237000
N -26.078100 -20.641200 -17.806300
N -26.053100 -18.732500 -22.074700
C -26.024700 -21.141800 -14.312500
C -25.949800 -17.480200 -25.379400
H -25.799400 -21.197600 -12.281500
H -25.718200 -16.755500 -27.282900
H -25.381300 -19.722000 -19.950700
C -25.355600 -21.123200 -15.529600
C -25.337900 -21.195100 -13.111400
C -25.294800 -18.020100 -24.276100
C -25.268200 -17.143100 -26.541600
C -23.977400 -21.202200 -15.588200
C -23.951100 -21.242400 -13.163900
C -23.943300 -18.296400 -24.325900
C -23.910400 -17.393200 -26.575300
H -23.522500 -21.218100 -16.421800
H -23.495400 -18.696000 -23.589100
H -23.451800 -21.265500 -12.355400
H -23.414200 -17.166600 -27.354000
C -23.280500 -21.257200 -14.389000
C -23.256300 -17.967200 -25.497400
H -22.331400 -21.305200 -14.401400
H -22.323900 -18.140100 -25.555400
H -24.754200 -20.842800 -22.013700
H -24.677500 -21.079800 -24.314200
C -24.604900 -21.706100 -22.378000
C -24.556400 -21.836800 -23.753600
N -24.452500 -22.728300 -21.533600
C -24.331600 -23.070300 -24.294700
H -24.303000 -23.188100 -25.237000
C -24.227200 -23.911800 -22.092100
C -24.149600 -24.132200 -23.450500
H -24.112000 -24.657300 -21.516100
H -23.973700 -25.000600 -23.792400
