46
Fragment
H -29.977200 -19.535000 -19.872500
H -29.297500 -20.891500 -14.061600
H -29.280900 -17.100000 -25.564000
O -29.184500 -20.747900 -17.901700
O -29.167500 -18.418700 -21.910200
C -29.028000 -19.574500 -19.893800
H -28.709500 -21.095100 -17.301900
H -28.692900 -18.106800 -22.529800
N -28.456800 -21.006600 -13.775100
C -28.387500 -20.186600 -18.838400
C -28.376900 -19.007700 -20.991900
N -28.348400 -16.984600 -25.784300
H -28.300400 -21.134800 -12.753500
H -28.112400 -16.663200 -26.637400
N -27.633900 -20.907900 -15.964500
N -27.574500 -17.882800 -23.773600
C -27.457600 -21.028800 -14.643700
C -27.381500 -17.410200 -25.003900
C -26.966100 -20.198100 -18.810000
C -26.951400 -19.098600 -21.045600
C -26.373900 -20.909700 -16.583400
C -26.330000 -19.678100 -19.936200
C -26.324700 -18.254900 -23.237000
N -26.078100 -20.641200 -17.806300
N -26.053100 -18.732500 -22.074700
C -26.024700 -21.141800 -14.312500
C -25.949800 -17.480200 -25.379400
H -25.799400 -21.197600 -12.281500
H -25.718200 -16.755500 -27.282900
H -25.381300 -19.722000 -19.950700
C -25.355600 -21.123200 -15.529600
C -25.337900 -21.195100 -13.111400
C -25.294800 -18.020100 -24.276100
C -25.268200 -17.143100 -26.541600
C -23.977400 -21.202200 -15.588200
C -23.951100 -21.242400 -13.163900
C -23.943300 -18.296400 -24.325900
C -23.910400 -17.393200 -26.575300
H -23.522500 -21.218100 -16.421800
H -23.495400 -18.696000 -23.589100
H -23.451800 -21.265500 -12.355400
H -23.414200 -17.166600 -27.354000
C -23.280500 -21.257200 -14.389000
C -23.256300 -17.967200 -25.497400
H -22.331400 -21.305200 -14.401400
H -22.323900 -18.140100 -25.555400
46
Fragment
H -37.496700 -12.487500 -19.872500
H -36.817000 -11.131000 -14.061600
H -36.800400 -14.922500 -25.564000
O -36.704000 -11.274600 -17.901700
O -36.687000 -13.603800 -21.910200
C -36.547500 -12.448000 -19.893800
H -36.229000 -10.927400 -17.301900
H -36.212400 -13.915700 -22.529800
N -35.976300 -11.015900 -13.775100
C -35.907000 -11.835900 -18.838400
C -35.896400 -13.014800 -20.991900
N -35.867900 -15.037900 -25.784300
H -35.819900 -10.887600 -12.753500
H -35.631900 -15.359300 -26.637400
N -35.153400 -11.114600 -15.964500
N -35.094000 -14.139700 -23.773600
C -34.977100 -10.993700 -14.643700
C -34.901000 -14.612300 -25.003900
C -34.485600 -11.824400 -18.810000
C -34.470900 -12.923900 -21.045600
C -33.893400 -11.112800 -16.583400
C -33.849500 -12.344400 -19.936200
C -33.844200 -13.767600 -23.237000
N -33.597600 -11.381300 -17.806300
N -33.572600 -13.290000 -22.074700
C -33.544200 -10.880700 -14.312500
C -33.469300 -14.542300 -25.379400
H -33.318900 -10.824900 -12.281500
H -33.237700 -15.267000 -27.282900
H -32.900800 -12.300500 -19.950700
C -32.875100 -10.899300 -15.529600
C -32.857400 -10.827400 -13.111400
C -32.814300 -14.002400 -24.276100
C -32.787700 -14.879400 -26.541600
C -31.496900 -10.820300 -15.588200
C -31.470600 -10.780100 -13.163900
C -31.462800 -13.726100 -24.325900
C -31.429900 -14.629300 -26.575300
H -31.042000 -10.804400 -16.421800
H -31.014900 -13.326500 -23.589100
H -30.971300 -10.757000 -12.355400
H -30.933700 -14.855900 -27.354000
C -30.800000 -10.765300 -14.389000
C -30.775800 -14.055300 -25.497400
H -29.850900 -10.717300 -14.401400
H -29.843400 -13.882400 -25.555400
92
Fragment
H -29.977200 -19.535000 -19.872500
H -29.297500 -20.891500 -14.061600
H -29.280900 -17.100000 -25.564000
O -29.184500 -20.747900 -17.901700
O -29.167500 -18.418700 -21.910200
C -29.028000 -19.574500 -19.893800
H -28.709500 -21.095100 -17.301900
H -28.692900 -18.106800 -22.529800
N -28.456800 -21.006600 -13.775100
C -28.387500 -20.186600 -18.838400
C -28.376900 -19.007700 -20.991900
N -28.348400 -16.984600 -25.784300
H -28.300400 -21.134800 -12.753500
H -28.112400 -16.663200 -26.637400
N -27.633900 -20.907900 -15.964500
N -27.574500 -17.882800 -23.773600
C -27.457600 -21.028800 -14.643700
C -27.381500 -17.410200 -25.003900
C -26.966100 -20.198100 -18.810000
C -26.951400 -19.098600 -21.045600
C -26.373900 -20.909700 -16.583400
C -26.330000 -19.678100 -19.936200
C -26.324700 -18.254900 -23.237000
N -26.078100 -20.641200 -17.806300
N -26.053100 -18.732500 -22.074700
C -26.024700 -21.141800 -14.312500
C -25.949800 -17.480200 -25.379400
H -25.799400 -21.197600 -12.281500
H -25.718200 -16.755500 -27.282900
H -25.381300 -19.722000 -19.950700
C -25.355600 -21.123200 -15.529600
C -25.337900 -21.195100 -13.111400
C -25.294800 -18.020100 -24.276100
C -25.268200 -17.143100 -26.541600
C -23.977400 -21.202200 -15.588200
C -23.951100 -21.242400 -13.163900
C -23.943300 -18.296400 -24.325900
C -23.910400 -17.393200 -26.575300
H -23.522500 -21.218100 -16.421800
H -23.495400 -18.696000 -23.589100
H -23.451800 -21.265500 -12.355400
H -23.414200 -17.166600 -27.354000
C -23.280500 -21.257200 -14.389000
C -23.256300 -17.967200 -25.497400
H -22.331400 -21.305200 -14.401400
H -22.323900 -18.140100 -25.555400
H -37.496700 -12.487500 -19.872500
H -36.817000 -11.131000 -14.061600
H -36.800400 -14.922500 -25.564000
O -36.704000 -11.274600 -17.901700
O -36.687000 -13.603800 -21.910200
C -36.547500 -12.448000 -19.893800
H -36.229000 -10.927400 -17.301900
H -36.212400 -13.915700 -22.529800
N -35.976300 -11.015900 -13.775100
C -35.907000 -11.835900 -18.838400
C -35.896400 -13.014800 -20.991900
N -35.867900 -15.037900 -25.784300
H -35.819900 -10.887600 -12.753500
H -35.631900 -15.359300 -26.637400
N -35.153400 -11.114600 -15.964500
N -35.094000 -14.139700 -23.773600
C -34.977100 -10.993700 -14.643700
C -34.901000 -14.612300 -25.003900
C -34.485600 -11.824400 -18.810000
C -34.470900 -12.923900 -21.045600
C -33.893400 -11.112800 -16.583400
C -33.849500 -12.344400 -19.936200
C -33.844200 -13.767600 -23.237000
N -33.597600 -11.381300 -17.806300
N -33.572600 -13.290000 -22.074700
C -33.544200 -10.880700 -14.312500
C -33.469300 -14.542300 -25.379400
H -33.318900 -10.824900 -12.281500
H -33.237700 -15.267000 -27.282900
H -32.900800 -12.300500 -19.950700
C -32.875100 -10.899300 -15.529600
C -32.857400 -10.827400 -13.111400
C -32.814300 -14.002400 -24.276100
C -32.787700 -14.879400 -26.541600
C -31.496900 -10.820300 -15.588200
C -31.470600 -10.780100 -13.163900
C -31.462800 -13.726100 -24.325900
C -31.429900 -14.629300 -26.575300
H -31.042000 -10.804400 -16.421800
H -31.014900 -13.326500 -23.589100
H -30.971300 -10.757000 -12.355400
H -30.933700 -14.855900 -27.354000
C -30.800000 -10.765300 -14.389000
C -30.775800 -14.055300 -25.497400
H -29.850900 -10.717300 -14.401400
H -29.843400 -13.882400 -25.555400
