46
Fragment
H -29.977200 -19.535000 -19.872500
H -29.297500 -20.891500 -14.061600
H -29.280900 -17.100000 -25.564000
O -29.184500 -20.747900 -17.901700
O -29.167500 -18.418700 -21.910200
C -29.028000 -19.574500 -19.893800
H -28.709500 -21.095100 -17.301900
H -28.692900 -18.106800 -22.529800
N -28.456800 -21.006600 -13.775100
C -28.387500 -20.186600 -18.838400
C -28.376900 -19.007700 -20.991900
N -28.348400 -16.984600 -25.784300
H -28.300400 -21.134800 -12.753500
H -28.112400 -16.663200 -26.637400
N -27.633900 -20.907900 -15.964500
N -27.574500 -17.882800 -23.773600
C -27.457600 -21.028800 -14.643700
C -27.381500 -17.410200 -25.003900
C -26.966100 -20.198100 -18.810000
C -26.951400 -19.098600 -21.045600
C -26.373900 -20.909700 -16.583400
C -26.330000 -19.678100 -19.936200
C -26.324700 -18.254900 -23.237000
N -26.078100 -20.641200 -17.806300
N -26.053100 -18.732500 -22.074700
C -26.024700 -21.141800 -14.312500
C -25.949800 -17.480200 -25.379400
H -25.799400 -21.197600 -12.281500
H -25.718200 -16.755500 -27.282900
H -25.381300 -19.722000 -19.950700
C -25.355600 -21.123200 -15.529600
C -25.337900 -21.195100 -13.111400
C -25.294800 -18.020100 -24.276100
C -25.268200 -17.143100 -26.541600
C -23.977400 -21.202200 -15.588200
C -23.951100 -21.242400 -13.163900
C -23.943300 -18.296400 -24.325900
C -23.910400 -17.393200 -26.575300
H -23.522500 -21.218100 -16.421800
H -23.495400 -18.696000 -23.589100
H -23.451800 -21.265500 -12.355400
H -23.414200 -17.166600 -27.354000
C -23.280500 -21.257200 -14.389000
C -23.256300 -17.967200 -25.497400
H -22.331400 -21.305200 -14.401400
H -22.323900 -18.140100 -25.555400
46
Fragment
H -30.312600 -11.735600 -32.664400
H -30.305100 -14.900700 -21.510400
C -29.380200 -11.562700 -32.606400
C -29.356000 -14.852700 -21.498000
H -29.222300 -10.762100 -34.463000
H -29.184700 -14.861000 -19.464400
H -29.141100 -12.291500 -30.698100
H -29.114000 -14.813600 -23.530800
C -28.726100 -10.988700 -33.684300
C -28.693200 -11.891900 -31.434900
C -28.685400 -14.837900 -20.272900
C -28.659100 -14.797700 -22.697200
C -27.368300 -10.738600 -33.650600
C -27.341700 -11.615600 -31.385100
C -27.298600 -14.790600 -20.220400
C -27.280900 -14.718700 -22.638600
H -27.255200 -13.317500 -27.059700
H -26.918300 -10.351000 -34.391900
H -26.837100 -14.793100 -19.390500
C -26.686700 -11.075700 -32.488400
C -26.611800 -14.737300 -21.421500
N -26.583400 -12.328000 -29.183700
N -26.558400 -14.236700 -24.915300
C -26.311800 -11.850400 -30.346000
C -26.306500 -13.273600 -27.045200
C -26.262600 -14.505200 -23.692400
C -25.685100 -12.694100 -28.154600
C -25.670400 -13.793600 -25.919000
C -25.255000 -11.005700 -32.112900
C -25.178900 -14.624300 -21.752700
N -25.062000 -11.478300 -30.882600
N -25.002600 -14.503400 -23.073500
H -24.524100 -10.258700 -33.746400
H -24.336100 -14.730400 -19.862500
N -24.288100 -10.580100 -32.893300
C -24.259600 -12.603200 -28.100900
C -24.249000 -13.782100 -25.947400
N -24.179700 -14.602100 -20.884100
H -23.943600 -11.702300 -29.638800
H -23.927000 -14.690600 -24.410900
C -23.608500 -13.170000 -27.002800
O -23.469000 -12.014200 -29.019200
O -23.452000 -14.343400 -25.010700
H -23.355600 -10.695500 -32.673000
H -23.339000 -14.487000 -21.170600
H -22.659300 -13.130500 -26.981500
92
Fragment
H -29.977200 -19.535000 -19.872500
H -29.297500 -20.891500 -14.061600
H -29.280900 -17.100000 -25.564000
O -29.184500 -20.747900 -17.901700
O -29.167500 -18.418700 -21.910200
C -29.028000 -19.574500 -19.893800
H -28.709500 -21.095100 -17.301900
H -28.692900 -18.106800 -22.529800
N -28.456800 -21.006600 -13.775100
C -28.387500 -20.186600 -18.838400
C -28.376900 -19.007700 -20.991900
N -28.348400 -16.984600 -25.784300
H -28.300400 -21.134800 -12.753500
H -28.112400 -16.663200 -26.637400
N -27.633900 -20.907900 -15.964500
N -27.574500 -17.882800 -23.773600
C -27.457600 -21.028800 -14.643700
C -27.381500 -17.410200 -25.003900
C -26.966100 -20.198100 -18.810000
C -26.951400 -19.098600 -21.045600
C -26.373900 -20.909700 -16.583400
C -26.330000 -19.678100 -19.936200
C -26.324700 -18.254900 -23.237000
N -26.078100 -20.641200 -17.806300
N -26.053100 -18.732500 -22.074700
C -26.024700 -21.141800 -14.312500
C -25.949800 -17.480200 -25.379400
H -25.799400 -21.197600 -12.281500
H -25.718200 -16.755500 -27.282900
H -25.381300 -19.722000 -19.950700
C -25.355600 -21.123200 -15.529600
C -25.337900 -21.195100 -13.111400
C -25.294800 -18.020100 -24.276100
C -25.268200 -17.143100 -26.541600
C -23.977400 -21.202200 -15.588200
C -23.951100 -21.242400 -13.163900
C -23.943300 -18.296400 -24.325900
C -23.910400 -17.393200 -26.575300
H -23.522500 -21.218100 -16.421800
H -23.495400 -18.696000 -23.589100
H -23.451800 -21.265500 -12.355400
H -23.414200 -17.166600 -27.354000
C -23.280500 -21.257200 -14.389000
C -23.256300 -17.967200 -25.497400
H -22.331400 -21.305200 -14.401400
H -22.323900 -18.140100 -25.555400
H -30.312600 -11.735600 -32.664400
H -30.305100 -14.900700 -21.510400
C -29.380200 -11.562700 -32.606400
C -29.356000 -14.852700 -21.498000
H -29.222300 -10.762100 -34.463000
H -29.184700 -14.861000 -19.464400
H -29.141100 -12.291500 -30.698100
H -29.114000 -14.813600 -23.530800
C -28.726100 -10.988700 -33.684300
C -28.693200 -11.891900 -31.434900
C -28.685400 -14.837900 -20.272900
C -28.659100 -14.797700 -22.697200
C -27.368300 -10.738600 -33.650600
C -27.341700 -11.615600 -31.385100
C -27.298600 -14.790600 -20.220400
C -27.280900 -14.718700 -22.638600
H -27.255200 -13.317500 -27.059700
H -26.918300 -10.351000 -34.391900
H -26.837100 -14.793100 -19.390500
C -26.686700 -11.075700 -32.488400
C -26.611800 -14.737300 -21.421500
N -26.583400 -12.328000 -29.183700
N -26.558400 -14.236700 -24.915300
C -26.311800 -11.850400 -30.346000
C -26.306500 -13.273600 -27.045200
C -26.262600 -14.505200 -23.692400
C -25.685100 -12.694100 -28.154600
C -25.670400 -13.793600 -25.919000
C -25.255000 -11.005700 -32.112900
C -25.178900 -14.624300 -21.752700
N -25.062000 -11.478300 -30.882600
N -25.002600 -14.503400 -23.073500
H -24.524100 -10.258700 -33.746400
H -24.336100 -14.730400 -19.862500
N -24.288100 -10.580100 -32.893300
C -24.259600 -12.603200 -28.100900
C -24.249000 -13.782100 -25.947400
N -24.179700 -14.602100 -20.884100
H -23.943600 -11.702300 -29.638800
H -23.927000 -14.690600 -24.410900
C -23.608500 -13.170000 -27.002800
O -23.469000 -12.014200 -29.019200
O -23.452000 -14.343400 -25.010700
H -23.355600 -10.695500 -32.673000
H -23.339000 -14.487000 -21.170600
H -22.659300 -13.130500 -26.981500
