46
Fragment
H -29.977200 -19.535000 -19.872500
H -29.297500 -20.891500 -14.061600
H -29.280900 -17.100000 -25.564000
O -29.184500 -20.747900 -17.901700
O -29.167500 -18.418700 -21.910200
C -29.028000 -19.574500 -19.893800
H -28.709500 -21.095100 -17.301900
H -28.692900 -18.106800 -22.529800
N -28.456800 -21.006600 -13.775100
C -28.387500 -20.186600 -18.838400
C -28.376900 -19.007700 -20.991900
N -28.348400 -16.984600 -25.784300
H -28.300400 -21.134800 -12.753500
H -28.112400 -16.663200 -26.637400
N -27.633900 -20.907900 -15.964500
N -27.574500 -17.882800 -23.773600
C -27.457600 -21.028800 -14.643700
C -27.381500 -17.410200 -25.003900
C -26.966100 -20.198100 -18.810000
C -26.951400 -19.098600 -21.045600
C -26.373900 -20.909700 -16.583400
C -26.330000 -19.678100 -19.936200
C -26.324700 -18.254900 -23.237000
N -26.078100 -20.641200 -17.806300
N -26.053100 -18.732500 -22.074700
C -26.024700 -21.141800 -14.312500
C -25.949800 -17.480200 -25.379400
H -25.799400 -21.197600 -12.281500
H -25.718200 -16.755500 -27.282900
H -25.381300 -19.722000 -19.950700
C -25.355600 -21.123200 -15.529600
C -25.337900 -21.195100 -13.111400
C -25.294800 -18.020100 -24.276100
C -25.268200 -17.143100 -26.541600
C -23.977400 -21.202200 -15.588200
C -23.951100 -21.242400 -13.163900
C -23.943300 -18.296400 -24.325900
C -23.910400 -17.393200 -26.575300
H -23.522500 -21.218100 -16.421800
H -23.495400 -18.696000 -23.589100
H -23.451800 -21.265500 -12.355400
H -23.414200 -17.166600 -27.354000
C -23.280500 -21.257200 -14.389000
C -23.256300 -17.967200 -25.497400
H -22.331400 -21.305200 -14.401400
H -22.323900 -18.140100 -25.555400
46
Fragment
H -30.312600 -24.544600 -18.446400
H -30.305100 -27.709700 -7.292400
C -29.380200 -24.371700 -18.388400
C -29.356000 -27.661700 -7.280000
H -29.222300 -23.571100 -20.245000
H -29.184700 -27.670000 -5.246400
H -29.141100 -25.100500 -16.480100
H -29.114000 -27.622600 -9.312800
C -28.726100 -23.797700 -19.466300
C -28.693200 -24.700900 -17.216900
C -28.685400 -27.646900 -6.054900
C -28.659100 -27.606700 -8.479200
C -27.368300 -23.547600 -19.432600
C -27.341700 -24.424600 -17.167100
C -27.298600 -27.599600 -6.002400
C -27.280900 -27.527700 -8.420600
H -27.255200 -26.126500 -12.841700
H -26.918300 -23.160000 -20.173900
H -26.837100 -27.602100 -5.172500
C -26.686700 -23.884700 -18.270400
C -26.611800 -27.546300 -7.203500
N -26.583400 -25.137000 -14.965700
N -26.558400 -27.045700 -10.697300
C -26.311800 -24.659400 -16.128000
C -26.306500 -26.082600 -12.827200
C -26.262600 -27.314200 -9.474400
C -25.685100 -25.503100 -13.936600
C -25.670400 -26.602600 -11.701000
C -25.255000 -23.814700 -17.894900
C -25.178900 -27.433300 -7.534700
N -25.062000 -24.287300 -16.664600
N -25.002600 -27.312400 -8.855500
H -24.524100 -23.067700 -19.528400
H -24.336100 -27.539400 -5.644500
N -24.288100 -23.389100 -18.675300
C -24.259600 -25.412200 -13.882900
C -24.249000 -26.591100 -11.729400
N -24.179700 -27.411100 -6.666100
H -23.943600 -24.511300 -15.420800
H -23.927000 -27.499600 -10.192900
C -23.608500 -25.979000 -12.784800
O -23.469000 -24.823200 -14.801200
O -23.452000 -27.152400 -10.792700
H -23.355600 -23.504500 -18.455000
H -23.339000 -27.296000 -6.952600
H -22.659300 -25.939500 -12.763500
92
Fragment
H -29.977200 -19.535000 -19.872500
H -29.297500 -20.891500 -14.061600
H -29.280900 -17.100000 -25.564000
O -29.184500 -20.747900 -17.901700
O -29.167500 -18.418700 -21.910200
C -29.028000 -19.574500 -19.893800
H -28.709500 -21.095100 -17.301900
H -28.692900 -18.106800 -22.529800
N -28.456800 -21.006600 -13.775100
C -28.387500 -20.186600 -18.838400
C -28.376900 -19.007700 -20.991900
N -28.348400 -16.984600 -25.784300
H -28.300400 -21.134800 -12.753500
H -28.112400 -16.663200 -26.637400
N -27.633900 -20.907900 -15.964500
N -27.574500 -17.882800 -23.773600
C -27.457600 -21.028800 -14.643700
C -27.381500 -17.410200 -25.003900
C -26.966100 -20.198100 -18.810000
C -26.951400 -19.098600 -21.045600
C -26.373900 -20.909700 -16.583400
C -26.330000 -19.678100 -19.936200
C -26.324700 -18.254900 -23.237000
N -26.078100 -20.641200 -17.806300
N -26.053100 -18.732500 -22.074700
C -26.024700 -21.141800 -14.312500
C -25.949800 -17.480200 -25.379400
H -25.799400 -21.197600 -12.281500
H -25.718200 -16.755500 -27.282900
H -25.381300 -19.722000 -19.950700
C -25.355600 -21.123200 -15.529600
C -25.337900 -21.195100 -13.111400
C -25.294800 -18.020100 -24.276100
C -25.268200 -17.143100 -26.541600
C -23.977400 -21.202200 -15.588200
C -23.951100 -21.242400 -13.163900
C -23.943300 -18.296400 -24.325900
C -23.910400 -17.393200 -26.575300
H -23.522500 -21.218100 -16.421800
H -23.495400 -18.696000 -23.589100
H -23.451800 -21.265500 -12.355400
H -23.414200 -17.166600 -27.354000
C -23.280500 -21.257200 -14.389000
C -23.256300 -17.967200 -25.497400
H -22.331400 -21.305200 -14.401400
H -22.323900 -18.140100 -25.555400
H -30.312600 -24.544600 -18.446400
H -30.305100 -27.709700 -7.292400
C -29.380200 -24.371700 -18.388400
C -29.356000 -27.661700 -7.280000
H -29.222300 -23.571100 -20.245000
H -29.184700 -27.670000 -5.246400
H -29.141100 -25.100500 -16.480100
H -29.114000 -27.622600 -9.312800
C -28.726100 -23.797700 -19.466300
C -28.693200 -24.700900 -17.216900
C -28.685400 -27.646900 -6.054900
C -28.659100 -27.606700 -8.479200
C -27.368300 -23.547600 -19.432600
C -27.341700 -24.424600 -17.167100
C -27.298600 -27.599600 -6.002400
C -27.280900 -27.527700 -8.420600
H -27.255200 -26.126500 -12.841700
H -26.918300 -23.160000 -20.173900
H -26.837100 -27.602100 -5.172500
C -26.686700 -23.884700 -18.270400
C -26.611800 -27.546300 -7.203500
N -26.583400 -25.137000 -14.965700
N -26.558400 -27.045700 -10.697300
C -26.311800 -24.659400 -16.128000
C -26.306500 -26.082600 -12.827200
C -26.262600 -27.314200 -9.474400
C -25.685100 -25.503100 -13.936600
C -25.670400 -26.602600 -11.701000
C -25.255000 -23.814700 -17.894900
C -25.178900 -27.433300 -7.534700
N -25.062000 -24.287300 -16.664600
N -25.002600 -27.312400 -8.855500
H -24.524100 -23.067700 -19.528400
H -24.336100 -27.539400 -5.644500
N -24.288100 -23.389100 -18.675300
C -24.259600 -25.412200 -13.882900
C -24.249000 -26.591100 -11.729400
N -24.179700 -27.411100 -6.666100
H -23.943600 -24.511300 -15.420800
H -23.927000 -27.499600 -10.192900
C -23.608500 -25.979000 -12.784800
O -23.469000 -24.823200 -14.801200
O -23.452000 -27.152400 -10.792700
H -23.355600 -23.504500 -18.455000
H -23.339000 -27.296000 -6.952600
H -22.659300 -25.939500 -12.763500
