46
Fragment
H -29.977200 -19.535000 -19.872500
H -29.297500 -20.891500 -14.061600
H -29.280900 -17.100000 -25.564000
O -29.184500 -20.747900 -17.901700
O -29.167500 -18.418700 -21.910200
C -29.028000 -19.574500 -19.893800
H -28.709500 -21.095100 -17.301900
H -28.692900 -18.106800 -22.529800
N -28.456800 -21.006600 -13.775100
C -28.387500 -20.186600 -18.838400
C -28.376900 -19.007700 -20.991900
N -28.348400 -16.984600 -25.784300
H -28.300400 -21.134800 -12.753500
H -28.112400 -16.663200 -26.637400
N -27.633900 -20.907900 -15.964500
N -27.574500 -17.882800 -23.773600
C -27.457600 -21.028800 -14.643700
C -27.381500 -17.410200 -25.003900
C -26.966100 -20.198100 -18.810000
C -26.951400 -19.098600 -21.045600
C -26.373900 -20.909700 -16.583400
C -26.330000 -19.678100 -19.936200
C -26.324700 -18.254900 -23.237000
N -26.078100 -20.641200 -17.806300
N -26.053100 -18.732500 -22.074700
C -26.024700 -21.141800 -14.312500
C -25.949800 -17.480200 -25.379400
H -25.799400 -21.197600 -12.281500
H -25.718200 -16.755500 -27.282900
H -25.381300 -19.722000 -19.950700
C -25.355600 -21.123200 -15.529600
C -25.337900 -21.195100 -13.111400
C -25.294800 -18.020100 -24.276100
C -25.268200 -17.143100 -26.541600
C -23.977400 -21.202200 -15.588200
C -23.951100 -21.242400 -13.163900
C -23.943300 -18.296400 -24.325900
C -23.910400 -17.393200 -26.575300
H -23.522500 -21.218100 -16.421800
H -23.495400 -18.696000 -23.589100
H -23.451800 -21.265500 -12.355400
H -23.414200 -17.166600 -27.354000
C -23.280500 -21.257200 -14.389000
C -23.256300 -17.967200 -25.497400
H -22.331400 -21.305200 -14.401400
H -22.323900 -18.140100 -25.555400
46
Fragment
H -22.793100 -20.286900 -32.664400
H -22.785600 -17.121800 -21.510400
C -21.860700 -20.459800 -32.606400
C -21.836500 -17.169800 -21.498000
H -21.702800 -21.260400 -34.463000
H -21.665200 -17.161500 -19.464400
H -21.621600 -19.731000 -30.698100
H -21.594500 -17.208900 -23.530800
C -21.206600 -21.033800 -33.684300
C -21.173700 -20.130600 -31.434900
C -21.165900 -17.184600 -20.272900
C -21.139600 -17.224800 -22.697200
C -19.848800 -21.283900 -33.650600
C -19.822200 -20.406900 -31.385100
C -19.779100 -17.231900 -20.220400
C -19.761400 -17.303800 -22.638600
H -19.735700 -18.705000 -27.059700
H -19.398800 -21.671500 -34.391900
H -19.317600 -17.229400 -19.390500
C -19.167200 -20.946800 -32.488400
C -19.092300 -17.285200 -21.421500
N -19.063900 -19.694500 -29.183700
N -19.038900 -17.785800 -24.915300
C -18.792300 -20.172100 -30.346000
C -18.787000 -18.748900 -27.045200
C -18.743100 -17.517300 -23.692400
C -18.165600 -19.328400 -28.154600
C -18.150900 -18.228900 -25.919000
C -17.735500 -21.016800 -32.112900
C -17.659400 -17.398200 -21.752700
N -17.542500 -20.544200 -30.882600
N -17.483100 -17.519100 -23.073500
H -17.004600 -21.763800 -33.746400
H -16.816600 -17.292200 -19.862500
N -16.768600 -21.442400 -32.893300
C -16.740100 -19.419300 -28.100900
C -16.729500 -18.240400 -25.947400
N -16.660200 -17.420400 -20.884100
H -16.424100 -20.320200 -29.638800
H -16.407500 -17.331900 -24.410900
C -16.089000 -18.852500 -27.002800
O -15.949500 -20.008300 -29.019200
O -15.932500 -17.679100 -25.010700
H -15.836100 -21.327000 -32.673000
H -15.819500 -17.535500 -21.170600
H -15.139800 -18.892000 -26.981500
92
Fragment
H -29.977200 -19.535000 -19.872500
H -29.297500 -20.891500 -14.061600
H -29.280900 -17.100000 -25.564000
O -29.184500 -20.747900 -17.901700
O -29.167500 -18.418700 -21.910200
C -29.028000 -19.574500 -19.893800
H -28.709500 -21.095100 -17.301900
H -28.692900 -18.106800 -22.529800
N -28.456800 -21.006600 -13.775100
C -28.387500 -20.186600 -18.838400
C -28.376900 -19.007700 -20.991900
N -28.348400 -16.984600 -25.784300
H -28.300400 -21.134800 -12.753500
H -28.112400 -16.663200 -26.637400
N -27.633900 -20.907900 -15.964500
N -27.574500 -17.882800 -23.773600
C -27.457600 -21.028800 -14.643700
C -27.381500 -17.410200 -25.003900
C -26.966100 -20.198100 -18.810000
C -26.951400 -19.098600 -21.045600
C -26.373900 -20.909700 -16.583400
C -26.330000 -19.678100 -19.936200
C -26.324700 -18.254900 -23.237000
N -26.078100 -20.641200 -17.806300
N -26.053100 -18.732500 -22.074700
C -26.024700 -21.141800 -14.312500
C -25.949800 -17.480200 -25.379400
H -25.799400 -21.197600 -12.281500
H -25.718200 -16.755500 -27.282900
H -25.381300 -19.722000 -19.950700
C -25.355600 -21.123200 -15.529600
C -25.337900 -21.195100 -13.111400
C -25.294800 -18.020100 -24.276100
C -25.268200 -17.143100 -26.541600
C -23.977400 -21.202200 -15.588200
C -23.951100 -21.242400 -13.163900
C -23.943300 -18.296400 -24.325900
C -23.910400 -17.393200 -26.575300
H -23.522500 -21.218100 -16.421800
H -23.495400 -18.696000 -23.589100
H -23.451800 -21.265500 -12.355400
H -23.414200 -17.166600 -27.354000
C -23.280500 -21.257200 -14.389000
C -23.256300 -17.967200 -25.497400
H -22.331400 -21.305200 -14.401400
H -22.323900 -18.140100 -25.555400
H -22.793100 -20.286900 -32.664400
H -22.785600 -17.121800 -21.510400
C -21.860700 -20.459800 -32.606400
C -21.836500 -17.169800 -21.498000
H -21.702800 -21.260400 -34.463000
H -21.665200 -17.161500 -19.464400
H -21.621600 -19.731000 -30.698100
H -21.594500 -17.208900 -23.530800
C -21.206600 -21.033800 -33.684300
C -21.173700 -20.130600 -31.434900
C -21.165900 -17.184600 -20.272900
C -21.139600 -17.224800 -22.697200
C -19.848800 -21.283900 -33.650600
C -19.822200 -20.406900 -31.385100
C -19.779100 -17.231900 -20.220400
C -19.761400 -17.303800 -22.638600
H -19.735700 -18.705000 -27.059700
H -19.398800 -21.671500 -34.391900
H -19.317600 -17.229400 -19.390500
C -19.167200 -20.946800 -32.488400
C -19.092300 -17.285200 -21.421500
N -19.063900 -19.694500 -29.183700
N -19.038900 -17.785800 -24.915300
C -18.792300 -20.172100 -30.346000
C -18.787000 -18.748900 -27.045200
C -18.743100 -17.517300 -23.692400
C -18.165600 -19.328400 -28.154600
C -18.150900 -18.228900 -25.919000
C -17.735500 -21.016800 -32.112900
C -17.659400 -17.398200 -21.752700
N -17.542500 -20.544200 -30.882600
N -17.483100 -17.519100 -23.073500
H -17.004600 -21.763800 -33.746400
H -16.816600 -17.292200 -19.862500
N -16.768600 -21.442400 -32.893300
C -16.740100 -19.419300 -28.100900
C -16.729500 -18.240400 -25.947400
N -16.660200 -17.420400 -20.884100
H -16.424100 -20.320200 -29.638800
H -16.407500 -17.331900 -24.410900
C -16.089000 -18.852500 -27.002800
O -15.949500 -20.008300 -29.019200
O -15.932500 -17.679100 -25.010700
H -15.836100 -21.327000 -32.673000
H -15.819500 -17.535500 -21.170600
H -15.139800 -18.892000 -26.981500
