12
Fragment
H -13.749000 -19.521300 -16.618100
H -13.380200 -21.930800 -16.380800
H -12.848400 -19.346800 -15.297400
C -12.838700 -19.395600 -16.272900
H -12.455300 -18.546800 -16.643300
C -12.422500 -21.849800 -16.267900
H -12.200000 -21.992900 -15.343600
N -12.011100 -20.519000 -16.688100
H -12.002600 -22.517000 -16.822400
C -10.874600 -20.328800 -17.347300
H -10.721900 -19.370700 -17.586000
O -10.085000 -21.226200 -17.671000
26
Fragment
H -9.351800 -18.667100 -20.169100
H -8.873700 -20.754400 -18.959400
C -8.446700 -18.874500 -19.832000
H -8.396000 -22.920000 -19.006700
N -8.329400 -20.316500 -19.594800
H -8.256900 -18.393100 -19.000100
H -7.710100 -18.445000 -21.752400
H -7.687000 -25.133600 -18.855100
C -7.581900 -23.163400 -19.412800
C -7.350300 -18.616700 -20.878300
C -7.264200 -20.818600 -20.187500
C -7.155100 -24.474100 -19.340000
C -6.828300 -22.201500 -20.104600
H -6.767500 -17.901400 -20.604200
N -6.621500 -28.050700 -18.447700
N -6.617000 -19.887500 -20.879700
C -6.117700 -27.234500 -19.096200
C -5.956300 -24.886400 -19.954700
H -5.928400 -20.056600 -21.446900
C -5.636600 -22.605500 -20.716300
C -5.478100 -26.247600 -19.876900
C -5.210000 -23.909900 -20.650500
H -5.084400 -21.965000 -21.200800
H -4.398700 -24.167700 -21.056900
C -4.331400 -26.622500 -20.591700
N -3.389800 -26.880300 -21.218000
38
Fragment
H -13.749000 -19.521300 -16.618100
H -13.380200 -21.930800 -16.380800
H -12.848400 -19.346800 -15.297400
C -12.838700 -19.395600 -16.272900
H -12.455300 -18.546800 -16.643300
C -12.422500 -21.849800 -16.267900
H -12.200000 -21.992900 -15.343600
N -12.011100 -20.519000 -16.688100
H -12.002600 -22.517000 -16.822400
C -10.874600 -20.328800 -17.347300
H -10.721900 -19.370700 -17.586000
O -10.085000 -21.226200 -17.671000
H -9.351800 -18.667100 -20.169100
H -8.873700 -20.754400 -18.959400
C -8.446700 -18.874500 -19.832000
H -8.396000 -22.920000 -19.006700
N -8.329400 -20.316500 -19.594800
H -8.256900 -18.393100 -19.000100
H -7.710100 -18.445000 -21.752400
H -7.687000 -25.133600 -18.855100
C -7.581900 -23.163400 -19.412800
C -7.350300 -18.616700 -20.878300
C -7.264200 -20.818600 -20.187500
C -7.155100 -24.474100 -19.340000
C -6.828300 -22.201500 -20.104600
H -6.767500 -17.901400 -20.604200
N -6.621500 -28.050700 -18.447700
N -6.617000 -19.887500 -20.879700
C -6.117700 -27.234500 -19.096200
C -5.956300 -24.886400 -19.954700
H -5.928400 -20.056600 -21.446900
C -5.636600 -22.605500 -20.716300
C -5.478100 -26.247600 -19.876900
C -5.210000 -23.909900 -20.650500
H -5.084400 -21.965000 -21.200800
H -4.398700 -24.167700 -21.056900
C -4.331400 -26.622500 -20.591700
N -3.389800 -26.880300 -21.218000
