12
Fragment
H -13.749000 -19.521300 -16.618100
H -13.380200 -21.930800 -16.380800
H -12.848400 -19.346800 -15.297400
C -12.838700 -19.395600 -16.272900
H -12.455300 -18.546800 -16.643300
C -12.422500 -21.849800 -16.267900
H -12.200000 -21.992900 -15.343600
N -12.011100 -20.519000 -16.688100
H -12.002600 -22.517000 -16.822400
C -10.874600 -20.328800 -17.347300
H -10.721900 -19.370700 -17.586000
O -10.085000 -21.226200 -17.671000
12
Fragment
H -8.116200 -19.521300 -16.618100
H -7.747400 -21.930800 -16.380800
H -7.215600 -19.346800 -15.297400
C -7.205900 -19.395600 -16.272900
H -6.822500 -18.546800 -16.643300
C -6.789700 -21.849800 -16.267900
H -6.567200 -21.992900 -15.343600
N -6.378300 -20.519000 -16.688100
H -6.369800 -22.517000 -16.822400
C -5.241800 -20.328800 -17.347300
H -5.089100 -19.370700 -17.586000
O -4.452200 -21.226200 -17.671000
24
Fragment
H -13.749000 -19.521300 -16.618100
H -13.380200 -21.930800 -16.380800
H -12.848400 -19.346800 -15.297400
C -12.838700 -19.395600 -16.272900
H -12.455300 -18.546800 -16.643300
C -12.422500 -21.849800 -16.267900
H -12.200000 -21.992900 -15.343600
N -12.011100 -20.519000 -16.688100
H -12.002600 -22.517000 -16.822400
C -10.874600 -20.328800 -17.347300
H -10.721900 -19.370700 -17.586000
O -10.085000 -21.226200 -17.671000
H -8.116200 -19.521300 -16.618100
H -7.747400 -21.930800 -16.380800
H -7.215600 -19.346800 -15.297400
C -7.205900 -19.395600 -16.272900
H -6.822500 -18.546800 -16.643300
C -6.789700 -21.849800 -16.267900
H -6.567200 -21.992900 -15.343600
N -6.378300 -20.519000 -16.688100
H -6.369800 -22.517000 -16.822400
C -5.241800 -20.328800 -17.347300
H -5.089100 -19.370700 -17.586000
O -4.452200 -21.226200 -17.671000
