12
Fragment
H -13.749000 -19.521300 -16.618100
H -13.380200 -21.930800 -16.380800
H -12.848400 -19.346800 -15.297400
C -12.838700 -19.395600 -16.272900
H -12.455300 -18.546800 -16.643300
C -12.422500 -21.849800 -16.267900
H -12.200000 -21.992900 -15.343600
N -12.011100 -20.519000 -16.688100
H -12.002600 -22.517000 -16.822400
C -10.874600 -20.328800 -17.347300
H -10.721900 -19.370700 -17.586000
O -10.085000 -21.226200 -17.671000
26
Fragment
N -13.140300 -19.550300 -11.743500
C -12.198700 -19.808000 -12.369800
H -12.131500 -22.262800 -11.904600
H -11.445800 -24.465600 -11.760700
C -11.320100 -22.520600 -12.311000
C -11.052000 -20.182900 -13.084600
C -10.893500 -23.825000 -12.245200
H -10.601800 -26.374000 -11.514500
C -10.573900 -21.544100 -13.006800
C -10.412400 -19.196000 -13.865200
N -9.913100 -26.543000 -12.081800
N -9.908600 -18.379800 -14.513800
H -9.762600 -28.529200 -12.357300
C -9.701800 -24.229100 -12.856800
C -9.375000 -21.956400 -13.621400
C -9.265900 -25.612000 -12.774000
C -9.179900 -27.813800 -12.083100
C -8.948300 -23.267100 -13.548700
H -8.843200 -21.296900 -14.106400
H -8.820000 -27.985500 -11.209100
H -8.273300 -28.037500 -13.961400
N -8.200800 -26.114000 -13.366600
H -8.134100 -23.510500 -13.954800
C -8.083500 -27.556000 -13.129400
H -7.656400 -25.676100 -14.002000
H -7.178400 -27.763400 -12.792300
38
Fragment
H -13.749000 -19.521300 -16.618100
H -13.380200 -21.930800 -16.380800
H -12.848400 -19.346800 -15.297400
C -12.838700 -19.395600 -16.272900
H -12.455300 -18.546800 -16.643300
C -12.422500 -21.849800 -16.267900
H -12.200000 -21.992900 -15.343600
N -12.011100 -20.519000 -16.688100
H -12.002600 -22.517000 -16.822400
C -10.874600 -20.328800 -17.347300
H -10.721900 -19.370700 -17.586000
O -10.085000 -21.226200 -17.671000
N -13.140300 -19.550300 -11.743500
C -12.198700 -19.808000 -12.369800
H -12.131500 -22.262800 -11.904600
H -11.445800 -24.465600 -11.760700
C -11.320100 -22.520600 -12.311000
C -11.052000 -20.182900 -13.084600
C -10.893500 -23.825000 -12.245200
H -10.601800 -26.374000 -11.514500
C -10.573900 -21.544100 -13.006800
C -10.412400 -19.196000 -13.865200
N -9.913100 -26.543000 -12.081800
N -9.908600 -18.379800 -14.513800
H -9.762600 -28.529200 -12.357300
C -9.701800 -24.229100 -12.856800
C -9.375000 -21.956400 -13.621400
C -9.265900 -25.612000 -12.774000
C -9.179900 -27.813800 -12.083100
C -8.948300 -23.267100 -13.548700
H -8.843200 -21.296900 -14.106400
H -8.820000 -27.985500 -11.209100
H -8.273300 -28.037500 -13.961400
N -8.200800 -26.114000 -13.366600
H -8.134100 -23.510500 -13.954800
C -8.083500 -27.556000 -13.129400
H -7.656400 -25.676100 -14.002000
H -7.178400 -27.763400 -12.792300
