12
Fragment
H -13.749000 -19.521300 -16.618100
H -13.380200 -21.930800 -16.380800
H -12.848400 -19.346800 -15.297400
C -12.838700 -19.395600 -16.272900
H -12.455300 -18.546800 -16.643300
C -12.422500 -21.849800 -16.267900
H -12.200000 -21.992900 -15.343600
N -12.011100 -20.519000 -16.688100
H -12.002600 -22.517000 -16.822400
C -10.874600 -20.328800 -17.347300
H -10.721900 -19.370700 -17.586000
O -10.085000 -21.226200 -17.671000
12
Fragment
O -17.710800 -25.204300 -15.290500
H -17.073800 -27.059900 -15.375400
C -16.921200 -26.101700 -15.614200
H -15.793200 -23.913500 -16.139000
N -15.784700 -25.911600 -16.273400
H -15.595700 -24.437700 -17.617900
C -15.373300 -24.580700 -16.693600
H -15.340400 -27.883700 -16.318100
C -14.957000 -27.034900 -16.688600
H -14.947300 -27.083700 -17.664100
H -14.415500 -24.499700 -16.580700
H -14.046700 -26.909300 -16.343400
24
Fragment
H -13.749000 -19.521300 -16.618100
H -13.380200 -21.930800 -16.380800
H -12.848400 -19.346800 -15.297400
C -12.838700 -19.395600 -16.272900
H -12.455300 -18.546800 -16.643300
C -12.422500 -21.849800 -16.267900
H -12.200000 -21.992900 -15.343600
N -12.011100 -20.519000 -16.688100
H -12.002600 -22.517000 -16.822400
C -10.874600 -20.328800 -17.347300
H -10.721900 -19.370700 -17.586000
O -10.085000 -21.226200 -17.671000
O -17.710800 -25.204300 -15.290500
H -17.073800 -27.059900 -15.375400
C -16.921200 -26.101700 -15.614200
H -15.793200 -23.913500 -16.139000
N -15.784700 -25.911600 -16.273400
H -15.595700 -24.437700 -17.617900
C -15.373300 -24.580700 -16.693600
H -15.340400 -27.883700 -16.318100
C -14.957000 -27.034900 -16.688600
H -14.947300 -27.083700 -17.664100
H -14.415500 -24.499700 -16.580700
H -14.046700 -26.909300 -16.343400
