17
Fragment
O -10.281200 -12.759900 -34.736500
N -9.366800 -12.404200 -34.008200
O -9.352100 -12.522800 -32.796100
H -8.868200 -12.094100 -36.533000
C -8.184300 -11.805700 -34.646900
C -8.129500 -11.768800 -36.013100
H -7.245300 -11.349500 -32.908400
C -7.182300 -11.325700 -33.839600
C -6.976800 -11.262800 -36.610500
C -6.884800 -11.226600 -38.045600
N -6.822700 -11.199200 -39.183900
C -6.069000 -10.809500 -34.474400
C -5.939200 -10.782800 -35.838000
H -5.197500 -10.431400 -36.205200
O -5.156200 -10.237000 -32.443700
N -4.997600 -10.243500 -33.646200
O -4.016000 -9.798900 -34.207000
12
Fragment
H -12.833100 -10.604900 -27.708900
H -12.302200 -10.792900 -30.060800
C -11.926500 -10.938200 -28.016900
C -11.584000 -10.997500 -29.316300
H -11.293800 -11.212200 -26.131500
C -11.035600 -11.257000 -27.041600
C -10.343500 -11.398000 -29.680800
H -10.181600 -11.450700 -30.574600
C -9.769300 -11.654600 -27.369200
C -9.408800 -11.730500 -28.705400
H -9.152700 -11.884500 -26.647900
H -8.585700 -11.978500 -28.883600
29
Fragment
O -10.281200 -12.759900 -34.736500
N -9.366800 -12.404200 -34.008200
O -9.352100 -12.522800 -32.796100
H -8.868200 -12.094100 -36.533000
C -8.184300 -11.805700 -34.646900
C -8.129500 -11.768800 -36.013100
H -7.245300 -11.349500 -32.908400
C -7.182300 -11.325700 -33.839600
C -6.976800 -11.262800 -36.610500
C -6.884800 -11.226600 -38.045600
N -6.822700 -11.199200 -39.183900
C -6.069000 -10.809500 -34.474400
C -5.939200 -10.782800 -35.838000
H -5.197500 -10.431400 -36.205200
O -5.156200 -10.237000 -32.443700
N -4.997600 -10.243500 -33.646200
O -4.016000 -9.798900 -34.207000
H -12.833100 -10.604900 -27.708900
H -12.302200 -10.792900 -30.060800
C -11.926500 -10.938200 -28.016900
C -11.584000 -10.997500 -29.316300
H -11.293800 -11.212200 -26.131500
C -11.035600 -11.257000 -27.041600
C -10.343500 -11.398000 -29.680800
H -10.181600 -11.450700 -30.574600
C -9.769300 -11.654600 -27.369200
C -9.408800 -11.730500 -28.705400
H -9.152700 -11.884500 -26.647900
H -8.585700 -11.978500 -28.883600
