17
Fragment
O -10.281200 -12.759900 -34.736500
N -9.366800 -12.404200 -34.008200
O -9.352100 -12.522800 -32.796100
H -8.868200 -12.094100 -36.533000
C -8.184300 -11.805700 -34.646900
C -8.129500 -11.768800 -36.013100
H -7.245300 -11.349500 -32.908400
C -7.182300 -11.325700 -33.839600
C -6.976800 -11.262800 -36.610500
C -6.884800 -11.226600 -38.045600
N -6.822700 -11.199200 -39.183900
C -6.069000 -10.809500 -34.474400
C -5.939200 -10.782800 -35.838000
H -5.197500 -10.431400 -36.205200
O -5.156200 -10.237000 -32.443700
N -4.997600 -10.243500 -33.646200
O -4.016000 -9.798900 -34.207000
17
Fragment
O -3.445200 -12.759900 -34.736500
N -2.530800 -12.404200 -34.008200
O -2.516100 -12.522800 -32.796100
H -2.032200 -12.094100 -36.533000
C -1.348300 -11.805700 -34.646900
C -1.293500 -11.768800 -36.013100
H -0.409300 -11.349500 -32.908400
C -0.346300 -11.325700 -33.839600
C -0.140800 -11.262800 -36.610500
C -0.048800 -11.226600 -38.045600
N 0.013300 -11.199200 -39.183900
C 0.767000 -10.809500 -34.474400
C 0.896800 -10.782800 -35.838000
H 1.638500 -10.431400 -36.205200
O 1.679800 -10.237000 -32.443700
N 1.838400 -10.243500 -33.646200
O 2.820000 -9.798900 -34.207000
34
Fragment
O -10.281200 -12.759900 -34.736500
N -9.366800 -12.404200 -34.008200
O -9.352100 -12.522800 -32.796100
H -8.868200 -12.094100 -36.533000
C -8.184300 -11.805700 -34.646900
C -8.129500 -11.768800 -36.013100
H -7.245300 -11.349500 -32.908400
C -7.182300 -11.325700 -33.839600
C -6.976800 -11.262800 -36.610500
C -6.884800 -11.226600 -38.045600
N -6.822700 -11.199200 -39.183900
C -6.069000 -10.809500 -34.474400
C -5.939200 -10.782800 -35.838000
H -5.197500 -10.431400 -36.205200
O -5.156200 -10.237000 -32.443700
N -4.997600 -10.243500 -33.646200
O -4.016000 -9.798900 -34.207000
O -3.445200 -12.759900 -34.736500
N -2.530800 -12.404200 -34.008200
O -2.516100 -12.522800 -32.796100
H -2.032200 -12.094100 -36.533000
C -1.348300 -11.805700 -34.646900
C -1.293500 -11.768800 -36.013100
H -0.409300 -11.349500 -32.908400
C -0.346300 -11.325700 -33.839600
C -0.140800 -11.262800 -36.610500
C -0.048800 -11.226600 -38.045600
N 0.013300 -11.199200 -39.183900
C 0.767000 -10.809500 -34.474400
C 0.896800 -10.782800 -35.838000
H 1.638500 -10.431400 -36.205200
O 1.679800 -10.237000 -32.443700
N 1.838400 -10.243500 -33.646200
O 2.820000 -9.798900 -34.207000
