17
Fragment
O -10.281200 -12.759900 -34.736500
N -9.366800 -12.404200 -34.008200
O -9.352100 -12.522800 -32.796100
H -8.868200 -12.094100 -36.533000
C -8.184300 -11.805700 -34.646900
C -8.129500 -11.768800 -36.013100
H -7.245300 -11.349500 -32.908400
C -7.182300 -11.325700 -33.839600
C -6.976800 -11.262800 -36.610500
C -6.884800 -11.226600 -38.045600
N -6.822700 -11.199200 -39.183900
C -6.069000 -10.809500 -34.474400
C -5.939200 -10.782800 -35.838000
H -5.197500 -10.431400 -36.205200
O -5.156200 -10.237000 -32.443700
N -4.997600 -10.243500 -33.646200
O -4.016000 -9.798900 -34.207000
17
Fragment
O -6.905800 -13.413400 -30.334500
N -5.924200 -13.858000 -30.895200
O -5.765600 -13.851500 -32.097700
H -5.724200 -14.045900 -28.336300
C -4.982600 -14.397300 -28.703400
C -4.852700 -14.424000 -30.067000
N -4.099100 -14.813700 -25.357600
C -4.036900 -14.841100 -26.495800
C -3.945000 -14.877300 -27.930900
C -3.739400 -14.940200 -30.701800
H -3.676500 -14.964000 -31.633000
C -2.792300 -15.383300 -28.528300
C -2.737500 -15.420200 -29.894600
H -2.053600 -15.708600 -28.008400
O -1.569700 -16.137300 -31.745300
N -1.555000 -16.018700 -30.533300
O -0.640600 -16.374400 -29.805000
34
Fragment
O -10.281200 -12.759900 -34.736500
N -9.366800 -12.404200 -34.008200
O -9.352100 -12.522800 -32.796100
H -8.868200 -12.094100 -36.533000
C -8.184300 -11.805700 -34.646900
C -8.129500 -11.768800 -36.013100
H -7.245300 -11.349500 -32.908400
C -7.182300 -11.325700 -33.839600
C -6.976800 -11.262800 -36.610500
C -6.884800 -11.226600 -38.045600
N -6.822700 -11.199200 -39.183900
C -6.069000 -10.809500 -34.474400
C -5.939200 -10.782800 -35.838000
H -5.197500 -10.431400 -36.205200
O -5.156200 -10.237000 -32.443700
N -4.997600 -10.243500 -33.646200
O -4.016000 -9.798900 -34.207000
O -6.905800 -13.413400 -30.334500
N -5.924200 -13.858000 -30.895200
O -5.765600 -13.851500 -32.097700
H -5.724200 -14.045900 -28.336300
C -4.982600 -14.397300 -28.703400
C -4.852700 -14.424000 -30.067000
N -4.099100 -14.813700 -25.357600
C -4.036900 -14.841100 -26.495800
C -3.945000 -14.877300 -27.930900
C -3.739400 -14.940200 -30.701800
H -3.676500 -14.964000 -31.633000
C -2.792300 -15.383300 -28.528300
C -2.737500 -15.420200 -29.894600
H -2.053600 -15.708600 -28.008400
O -1.569700 -16.137300 -31.745300
N -1.555000 -16.018700 -30.533300
O -0.640600 -16.374400 -29.805000
