17
Fragment
O -10.281200 -12.759900 -34.736500
N -9.366800 -12.404200 -34.008200
O -9.352100 -12.522800 -32.796100
H -8.868200 -12.094100 -36.533000
C -8.184300 -11.805700 -34.646900
C -8.129500 -11.768800 -36.013100
H -7.245300 -11.349500 -32.908400
C -7.182300 -11.325700 -33.839600
C -6.976800 -11.262800 -36.610500
C -6.884800 -11.226600 -38.045600
N -6.822700 -11.199200 -39.183900
C -6.069000 -10.809500 -34.474400
C -5.939200 -10.782800 -35.838000
H -5.197500 -10.431400 -36.205200
O -5.156200 -10.237000 -32.443700
N -4.997600 -10.243500 -33.646200
O -4.016000 -9.798900 -34.207000
17
Fragment
O -6.355800 -11.888100 -43.242800
N -5.374100 -11.443500 -43.803500
O -5.215600 -11.450000 -45.006000
H -5.174200 -11.255600 -41.244600
C -4.432600 -10.904200 -41.611700
C -4.302700 -10.877500 -42.975300
N -3.549100 -10.487800 -38.265800
C -3.486900 -10.460400 -39.404100
C -3.395000 -10.424200 -40.839200
C -3.189400 -10.361300 -43.610100
H -3.126500 -10.337500 -44.541300
C -2.242300 -9.918200 -41.436600
C -2.187500 -9.881300 -42.802800
H -1.503600 -9.592900 -40.916700
O -1.019600 -9.164200 -44.653600
N -1.005000 -9.282800 -43.441500
O -0.090600 -8.927100 -42.713300
34
Fragment
O -10.281200 -12.759900 -34.736500
N -9.366800 -12.404200 -34.008200
O -9.352100 -12.522800 -32.796100
H -8.868200 -12.094100 -36.533000
C -8.184300 -11.805700 -34.646900
C -8.129500 -11.768800 -36.013100
H -7.245300 -11.349500 -32.908400
C -7.182300 -11.325700 -33.839600
C -6.976800 -11.262800 -36.610500
C -6.884800 -11.226600 -38.045600
N -6.822700 -11.199200 -39.183900
C -6.069000 -10.809500 -34.474400
C -5.939200 -10.782800 -35.838000
H -5.197500 -10.431400 -36.205200
O -5.156200 -10.237000 -32.443700
N -4.997600 -10.243500 -33.646200
O -4.016000 -9.798900 -34.207000
O -6.355800 -11.888100 -43.242800
N -5.374100 -11.443500 -43.803500
O -5.215600 -11.450000 -45.006000
H -5.174200 -11.255600 -41.244600
C -4.432600 -10.904200 -41.611700
C -4.302700 -10.877500 -42.975300
N -3.549100 -10.487800 -38.265800
C -3.486900 -10.460400 -39.404100
C -3.395000 -10.424200 -40.839200
C -3.189400 -10.361300 -43.610100
H -3.126500 -10.337500 -44.541300
C -2.242300 -9.918200 -41.436600
C -2.187500 -9.881300 -42.802800
H -1.503600 -9.592900 -40.916700
O -1.019600 -9.164200 -44.653600
N -1.005000 -9.282800 -43.441500
O -0.090600 -8.927100 -42.713300
