17
Fragment
O -12.618600 -26.158500 -32.762000
N -12.256400 -25.008700 -32.870900
H -12.221300 -25.746200 -30.390500
C -12.098600 -24.883200 -30.443300
C -12.065800 -24.218600 -31.645900
O -12.049400 -24.447400 -33.932700
C -11.911300 -24.130100 -29.311100
N -11.906000 -24.807900 -28.004300
O -11.900300 -26.023300 -27.995700
O -11.893900 -24.106700 -27.006700
C -11.849100 -22.866500 -31.746600
H -11.806100 -22.447600 -32.553000
C -11.718400 -22.776300 -29.347500
C -11.684000 -22.144600 -30.577100
H -11.608800 -22.316400 -28.569700
C -11.474800 -20.727400 -30.630100
N -11.295000 -19.597900 -30.654300
17
Fragment
O -11.034700 -13.709800 -36.339300
N -10.819100 -14.906100 -36.399100
O -10.737000 -15.544100 -37.439600
H -10.669600 -17.446900 -35.986800
C -10.660700 -15.641800 -35.136200
C -10.633700 -17.007800 -35.171400
N -10.557600 -20.267900 -33.970000
C -10.557600 -19.138200 -33.970000
C -10.557600 -17.693200 -33.970000
C -10.557600 -14.926300 -33.970000
H -10.557600 -14.057700 -33.970000
C -10.481500 -17.007800 -32.768600
C -10.454500 -15.641800 -32.803800
H -10.445500 -17.446900 -31.953100
O -10.378100 -15.544100 -30.500400
N -10.296000 -14.906100 -31.540800
O -10.080500 -13.709800 -31.600600
34
Fragment
O -12.618600 -26.158500 -32.762000
N -12.256400 -25.008700 -32.870900
H -12.221300 -25.746200 -30.390500
C -12.098600 -24.883200 -30.443300
C -12.065800 -24.218600 -31.645900
O -12.049400 -24.447400 -33.932700
C -11.911300 -24.130100 -29.311100
N -11.906000 -24.807900 -28.004300
O -11.900300 -26.023300 -27.995700
O -11.893900 -24.106700 -27.006700
C -11.849100 -22.866500 -31.746600
H -11.806100 -22.447600 -32.553000
C -11.718400 -22.776300 -29.347500
C -11.684000 -22.144600 -30.577100
H -11.608800 -22.316400 -28.569700
C -11.474800 -20.727400 -30.630100
N -11.295000 -19.597900 -30.654300
O -11.034700 -13.709800 -36.339300
N -10.819100 -14.906100 -36.399100
O -10.737000 -15.544100 -37.439600
H -10.669600 -17.446900 -35.986800
C -10.660700 -15.641800 -35.136200
C -10.633700 -17.007800 -35.171400
N -10.557600 -20.267900 -33.970000
C -10.557600 -19.138200 -33.970000
C -10.557600 -17.693200 -33.970000
C -10.557600 -14.926300 -33.970000
H -10.557600 -14.057700 -33.970000
C -10.481500 -17.007800 -32.768600
C -10.454500 -15.641800 -32.803800
H -10.445500 -17.446900 -31.953100
O -10.378100 -15.544100 -30.500400
N -10.296000 -14.906100 -31.540800
O -10.080500 -13.709800 -31.600600
