17
Fragment
O -12.618600 -26.158500 -32.762000
N -12.256400 -25.008700 -32.870900
H -12.221300 -25.746200 -30.390500
C -12.098600 -24.883200 -30.443300
C -12.065800 -24.218600 -31.645900
O -12.049400 -24.447400 -33.932700
C -11.911300 -24.130100 -29.311100
N -11.906000 -24.807900 -28.004300
O -11.900300 -26.023300 -27.995700
O -11.893900 -24.106700 -27.006700
C -11.849100 -22.866500 -31.746600
H -11.806100 -22.447600 -32.553000
C -11.718400 -22.776300 -29.347500
C -11.684000 -22.144600 -30.577100
H -11.608800 -22.316400 -28.569700
C -11.474800 -20.727400 -30.630100
N -11.295000 -19.597900 -30.654300
18
Fragment
H -13.642000 -21.634500 -36.345900
H -13.160000 -22.676300 -35.717000
H -13.147600 -25.395800 -41.715100
H -13.030000 -21.442300 -38.902400
C -12.899900 -22.163500 -36.354900
C -12.894300 -22.332600 -38.859700
H -12.863300 -22.605900 -40.870800
C -12.777100 -22.952300 -37.624200
C -12.776400 -23.044300 -40.027500
C -12.542900 -24.310700 -37.618200
C -12.542200 -24.402700 -40.021500
H -12.456000 -24.749100 -36.774900
C -12.425000 -25.022400 -38.786000
C -12.419400 -25.191500 -41.290800
H -12.289300 -25.912700 -38.743300
H -12.171700 -21.959200 -35.930500
H -12.159300 -24.678700 -41.928700
H -11.677300 -25.720500 -41.299700
35
Fragment
O -12.618600 -26.158500 -32.762000
N -12.256400 -25.008700 -32.870900
H -12.221300 -25.746200 -30.390500
C -12.098600 -24.883200 -30.443300
C -12.065800 -24.218600 -31.645900
O -12.049400 -24.447400 -33.932700
C -11.911300 -24.130100 -29.311100
N -11.906000 -24.807900 -28.004300
O -11.900300 -26.023300 -27.995700
O -11.893900 -24.106700 -27.006700
C -11.849100 -22.866500 -31.746600
H -11.806100 -22.447600 -32.553000
C -11.718400 -22.776300 -29.347500
C -11.684000 -22.144600 -30.577100
H -11.608800 -22.316400 -28.569700
C -11.474800 -20.727400 -30.630100
N -11.295000 -19.597900 -30.654300
H -13.642000 -21.634500 -36.345900
H -13.160000 -22.676300 -35.717000
H -13.147600 -25.395800 -41.715100
H -13.030000 -21.442300 -38.902400
C -12.899900 -22.163500 -36.354900
C -12.894300 -22.332600 -38.859700
H -12.863300 -22.605900 -40.870800
C -12.777100 -22.952300 -37.624200
C -12.776400 -23.044300 -40.027500
C -12.542900 -24.310700 -37.618200
C -12.542200 -24.402700 -40.021500
H -12.456000 -24.749100 -36.774900
C -12.425000 -25.022400 -38.786000
C -12.419400 -25.191500 -41.290800
H -12.289300 -25.912700 -38.743300
H -12.171700 -21.959200 -35.930500
H -12.159300 -24.678700 -41.928700
H -11.677300 -25.720500 -41.299700
