22
Fragment
H -16.483300 -11.860900 -40.382700
H -16.339300 -12.014400 -38.032500
C -15.678800 -11.622600 -39.947500
C -15.632900 -11.704500 -38.602300
H -14.666900 -11.159300 -41.698300
C -14.559300 -11.190000 -40.690100
C -14.446100 -11.345700 -37.896500
N -14.417300 -11.424200 -36.558800
H -13.973900 -11.378600 -34.073400
C -13.421700 -10.835600 -40.067600
C -13.322300 -10.886000 -38.648100
C -13.284100 -11.038000 -35.959700
C -13.184800 -11.088400 -34.540200
H -12.632600 -10.545400 -40.534400
N -12.189200 -10.499800 -38.049000
C -12.160400 -10.578300 -36.711200
C -12.047200 -10.734000 -33.917700
H -11.939600 -10.764700 -32.909500
C -10.973600 -10.219500 -36.005400
C -10.927700 -10.301400 -34.660300
H -10.267200 -9.909600 -36.575200
H -10.123200 -10.063100 -34.225100
17
Fragment
O -21.764200 -15.741400 -33.287000
N -20.829600 -15.434500 -32.575500
O -20.801300 -15.593100 -31.372100
H -20.312800 -15.010600 -35.063200
C -19.653000 -14.818400 -33.208700
C -19.621100 -14.703700 -34.568500
H -18.651100 -14.484500 -31.459600
C -18.620700 -14.404100 -32.401600
C -18.488200 -14.164400 -35.162600
C -18.419000 -14.069400 -36.596800
N -18.373900 -14.002900 -37.728600
C -17.534900 -13.841400 -33.024100
C -17.426600 -13.720000 -34.387500
H -16.680100 -13.351700 -34.804500
O -16.487500 -13.560000 -30.989300
N -16.442500 -13.331300 -32.174100
O -15.557200 -12.705700 -32.707800
39
Fragment
H -16.483300 -11.860900 -40.382700
H -16.339300 -12.014400 -38.032500
C -15.678800 -11.622600 -39.947500
C -15.632900 -11.704500 -38.602300
H -14.666900 -11.159300 -41.698300
C -14.559300 -11.190000 -40.690100
C -14.446100 -11.345700 -37.896500
N -14.417300 -11.424200 -36.558800
H -13.973900 -11.378600 -34.073400
C -13.421700 -10.835600 -40.067600
C -13.322300 -10.886000 -38.648100
C -13.284100 -11.038000 -35.959700
C -13.184800 -11.088400 -34.540200
H -12.632600 -10.545400 -40.534400
N -12.189200 -10.499800 -38.049000
C -12.160400 -10.578300 -36.711200
C -12.047200 -10.734000 -33.917700
H -11.939600 -10.764700 -32.909500
C -10.973600 -10.219500 -36.005400
C -10.927700 -10.301400 -34.660300
H -10.267200 -9.909600 -36.575200
H -10.123200 -10.063100 -34.225100
O -21.764200 -15.741400 -33.287000
N -20.829600 -15.434500 -32.575500
O -20.801300 -15.593100 -31.372100
H -20.312800 -15.010600 -35.063200
C -19.653000 -14.818400 -33.208700
C -19.621100 -14.703700 -34.568500
H -18.651100 -14.484500 -31.459600
C -18.620700 -14.404100 -32.401600
C -18.488200 -14.164400 -35.162600
C -18.419000 -14.069400 -36.596800
N -18.373900 -14.002900 -37.728600
C -17.534900 -13.841400 -33.024100
C -17.426600 -13.720000 -34.387500
H -16.680100 -13.351700 -34.804500
O -16.487500 -13.560000 -30.989300
N -16.442500 -13.331300 -32.174100
O -15.557200 -12.705700 -32.707800
