17
Fragment
O -12.618600 -26.158500 -32.762000
N -12.256400 -25.008700 -32.870900
H -12.221300 -25.746200 -30.390500
C -12.098600 -24.883200 -30.443300
C -12.065800 -24.218600 -31.645900
O -12.049400 -24.447400 -33.932700
C -11.911300 -24.130100 -29.311100
N -11.906000 -24.807900 -28.004300
O -11.900300 -26.023300 -27.995700
O -11.893900 -24.106700 -27.006700
C -11.849100 -22.866500 -31.746600
H -11.806100 -22.447600 -32.553000
C -11.718400 -22.776300 -29.347500
C -11.684000 -22.144600 -30.577100
H -11.608800 -22.316400 -28.569700
C -11.474800 -20.727400 -30.630100
N -11.295000 -19.597900 -30.654300
18
Fragment
H -15.430800 -26.072300 -35.930500
H -15.099300 -26.424100 -34.435900
C -14.846800 -26.517400 -35.338500
C -14.497200 -27.934400 -35.696200
H -14.432300 -27.655300 -37.652300
H -14.375600 -28.655200 -33.839900
C -14.370800 -28.331800 -37.008800
H -14.329600 -32.553200 -36.881700
C -14.312600 -28.893300 -34.731900
H -14.188100 -26.004700 -35.134700
C -14.093800 -29.630700 -37.346000
C -14.033500 -30.193500 -35.060100
H -13.956300 -29.887800 -38.250200
H -13.930300 -30.824000 -34.420300
C -13.927100 -30.604900 -36.375800
C -13.639800 -32.014700 -36.755500
H -13.236600 -32.512600 -36.085800
H -12.901100 -32.093200 -37.192300
35
Fragment
O -12.618600 -26.158500 -32.762000
N -12.256400 -25.008700 -32.870900
H -12.221300 -25.746200 -30.390500
C -12.098600 -24.883200 -30.443300
C -12.065800 -24.218600 -31.645900
O -12.049400 -24.447400 -33.932700
C -11.911300 -24.130100 -29.311100
N -11.906000 -24.807900 -28.004300
O -11.900300 -26.023300 -27.995700
O -11.893900 -24.106700 -27.006700
C -11.849100 -22.866500 -31.746600
H -11.806100 -22.447600 -32.553000
C -11.718400 -22.776300 -29.347500
C -11.684000 -22.144600 -30.577100
H -11.608800 -22.316400 -28.569700
C -11.474800 -20.727400 -30.630100
N -11.295000 -19.597900 -30.654300
H -15.430800 -26.072300 -35.930500
H -15.099300 -26.424100 -34.435900
C -14.846800 -26.517400 -35.338500
C -14.497200 -27.934400 -35.696200
H -14.432300 -27.655300 -37.652300
H -14.375600 -28.655200 -33.839900
C -14.370800 -28.331800 -37.008800
H -14.329600 -32.553200 -36.881700
C -14.312600 -28.893300 -34.731900
H -14.188100 -26.004700 -35.134700
C -14.093800 -29.630700 -37.346000
C -14.033500 -30.193500 -35.060100
H -13.956300 -29.887800 -38.250200
H -13.930300 -30.824000 -34.420300
C -13.927100 -30.604900 -36.375800
C -13.639800 -32.014700 -36.755500
H -13.236600 -32.512600 -36.085800
H -12.901100 -32.093200 -37.192300
