17
Fragment
O -12.618600 -26.158500 -32.762000
N -12.256400 -25.008700 -32.870900
H -12.221300 -25.746200 -30.390500
C -12.098600 -24.883200 -30.443300
C -12.065800 -24.218600 -31.645900
O -12.049400 -24.447400 -33.932700
C -11.911300 -24.130100 -29.311100
N -11.906000 -24.807900 -28.004300
O -11.900300 -26.023300 -27.995700
O -11.893900 -24.106700 -27.006700
C -11.849100 -22.866500 -31.746600
H -11.806100 -22.447600 -32.553000
C -11.718400 -22.776300 -29.347500
C -11.684000 -22.144600 -30.577100
H -11.608800 -22.316400 -28.569700
C -11.474800 -20.727400 -30.630100
N -11.295000 -19.597900 -30.654300
17
Fragment
N -9.820200 -19.597900 -37.285700
C -9.640300 -20.727400 -37.309900
H -9.506300 -22.316400 -39.370200
C -9.431100 -22.144600 -37.362900
C -9.396700 -22.776300 -38.592400
H -9.309000 -22.447600 -35.387000
C -9.266100 -22.866500 -36.193400
O -9.221300 -24.106700 -40.933300
O -9.214900 -26.023300 -39.944200
N -9.209200 -24.807900 -39.935700
C -9.203800 -24.130100 -38.628900
O -9.065700 -24.447400 -34.007300
C -9.049300 -24.218600 -36.294100
C -9.016500 -24.883200 -37.496700
H -8.893900 -25.746200 -37.549500
N -8.858700 -25.008700 -35.069100
O -8.496500 -26.158500 -35.178000
34
Fragment
O -12.618600 -26.158500 -32.762000
N -12.256400 -25.008700 -32.870900
H -12.221300 -25.746200 -30.390500
C -12.098600 -24.883200 -30.443300
C -12.065800 -24.218600 -31.645900
O -12.049400 -24.447400 -33.932700
C -11.911300 -24.130100 -29.311100
N -11.906000 -24.807900 -28.004300
O -11.900300 -26.023300 -27.995700
O -11.893900 -24.106700 -27.006700
C -11.849100 -22.866500 -31.746600
H -11.806100 -22.447600 -32.553000
C -11.718400 -22.776300 -29.347500
C -11.684000 -22.144600 -30.577100
H -11.608800 -22.316400 -28.569700
C -11.474800 -20.727400 -30.630100
N -11.295000 -19.597900 -30.654300
N -9.820200 -19.597900 -37.285700
C -9.640300 -20.727400 -37.309900
H -9.506300 -22.316400 -39.370200
C -9.431100 -22.144600 -37.362900
C -9.396700 -22.776300 -38.592400
H -9.309000 -22.447600 -35.387000
C -9.266100 -22.866500 -36.193400
O -9.221300 -24.106700 -40.933300
O -9.214900 -26.023300 -39.944200
N -9.209200 -24.807900 -39.935700
C -9.203800 -24.130100 -38.628900
O -9.065700 -24.447400 -34.007300
C -9.049300 -24.218600 -36.294100
C -9.016500 -24.883200 -37.496700
H -8.893900 -25.746200 -37.549500
N -8.858700 -25.008700 -35.069100
O -8.496500 -26.158500 -35.178000
