17
Fragment
O -12.618600 -26.158500 -32.762000
N -12.256400 -25.008700 -32.870900
H -12.221300 -25.746200 -30.390500
C -12.098600 -24.883200 -30.443300
C -12.065800 -24.218600 -31.645900
O -12.049400 -24.447400 -33.932700
C -11.911300 -24.130100 -29.311100
N -11.906000 -24.807900 -28.004300
O -11.900300 -26.023300 -27.995700
O -11.893900 -24.106700 -27.006700
C -11.849100 -22.866500 -31.746600
H -11.806100 -22.447600 -32.553000
C -11.718400 -22.776300 -29.347500
C -11.684000 -22.144600 -30.577100
H -11.608800 -22.316400 -28.569700
C -11.474800 -20.727400 -30.630100
N -11.295000 -19.597900 -30.654300
17
Fragment
N -13.930000 -20.992100 -27.579900
C -13.750100 -19.862600 -27.604200
H -13.616200 -18.273600 -29.664500
C -13.541000 -18.445400 -27.657200
C -13.506500 -17.813700 -28.886700
H -13.418900 -18.142400 -25.681300
C -13.375900 -17.723500 -26.487700
O -13.331100 -16.483300 -31.227500
O -13.324700 -14.566700 -30.238500
N -13.319000 -15.782100 -30.230000
C -13.313700 -16.459900 -28.923200
O -13.175600 -16.142600 -24.301500
C -13.159100 -16.371400 -26.588400
C -13.126300 -15.706800 -27.790900
H -13.003700 -14.843800 -27.843700
N -12.968500 -15.581300 -25.363400
O -12.606300 -14.431500 -25.472300
34
Fragment
O -12.618600 -26.158500 -32.762000
N -12.256400 -25.008700 -32.870900
H -12.221300 -25.746200 -30.390500
C -12.098600 -24.883200 -30.443300
C -12.065800 -24.218600 -31.645900
O -12.049400 -24.447400 -33.932700
C -11.911300 -24.130100 -29.311100
N -11.906000 -24.807900 -28.004300
O -11.900300 -26.023300 -27.995700
O -11.893900 -24.106700 -27.006700
C -11.849100 -22.866500 -31.746600
H -11.806100 -22.447600 -32.553000
C -11.718400 -22.776300 -29.347500
C -11.684000 -22.144600 -30.577100
H -11.608800 -22.316400 -28.569700
C -11.474800 -20.727400 -30.630100
N -11.295000 -19.597900 -30.654300
N -13.930000 -20.992100 -27.579900
C -13.750100 -19.862600 -27.604200
H -13.616200 -18.273600 -29.664500
C -13.541000 -18.445400 -27.657200
C -13.506500 -17.813700 -28.886700
H -13.418900 -18.142400 -25.681300
C -13.375900 -17.723500 -26.487700
O -13.331100 -16.483300 -31.227500
O -13.324700 -14.566700 -30.238500
N -13.319000 -15.782100 -30.230000
C -13.313700 -16.459900 -28.923200
O -13.175600 -16.142600 -24.301500
C -13.159100 -16.371400 -26.588400
C -13.126300 -15.706800 -27.790900
H -13.003700 -14.843800 -27.843700
N -12.968500 -15.581300 -25.363400
O -12.606300 -14.431500 -25.472300
