22
Fragment
H -16.483300 -11.860900 -40.382700
H -16.339300 -12.014400 -38.032500
C -15.678800 -11.622600 -39.947500
C -15.632900 -11.704500 -38.602300
H -14.666900 -11.159300 -41.698300
C -14.559300 -11.190000 -40.690100
C -14.446100 -11.345700 -37.896500
N -14.417300 -11.424200 -36.558800
H -13.973900 -11.378600 -34.073400
C -13.421700 -10.835600 -40.067600
C -13.322300 -10.886000 -38.648100
C -13.284100 -11.038000 -35.959700
C -13.184800 -11.088400 -34.540200
H -12.632600 -10.545400 -40.534400
N -12.189200 -10.499800 -38.049000
C -12.160400 -10.578300 -36.711200
C -12.047200 -10.734000 -33.917700
H -11.939600 -10.764700 -32.909500
C -10.973600 -10.219500 -36.005400
C -10.927700 -10.301400 -34.660300
H -10.267200 -9.909600 -36.575200
H -10.123200 -10.063100 -34.225100
17
Fragment
O -24.795300 -16.526300 -41.900000
N -23.909900 -15.900700 -42.433700
O -23.865000 -15.672000 -43.618400
H -23.672400 -15.880300 -39.803200
C -22.925900 -15.512000 -40.220300
C -22.817600 -15.390600 -41.583600
N -21.978600 -15.229100 -36.879100
C -21.933500 -15.162600 -38.010900
C -21.864300 -15.067600 -39.445100
C -21.731800 -14.827900 -42.206100
H -21.701400 -14.747500 -43.148100
C -20.731400 -14.528300 -40.039200
C -20.699500 -14.413600 -41.399100
H -20.039700 -14.221400 -39.544600
O -19.551200 -13.638900 -43.235700
N -19.522900 -13.797500 -42.032300
O -18.588300 -13.490600 -41.320800
39
Fragment
H -16.483300 -11.860900 -40.382700
H -16.339300 -12.014400 -38.032500
C -15.678800 -11.622600 -39.947500
C -15.632900 -11.704500 -38.602300
H -14.666900 -11.159300 -41.698300
C -14.559300 -11.190000 -40.690100
C -14.446100 -11.345700 -37.896500
N -14.417300 -11.424200 -36.558800
H -13.973900 -11.378600 -34.073400
C -13.421700 -10.835600 -40.067600
C -13.322300 -10.886000 -38.648100
C -13.284100 -11.038000 -35.959700
C -13.184800 -11.088400 -34.540200
H -12.632600 -10.545400 -40.534400
N -12.189200 -10.499800 -38.049000
C -12.160400 -10.578300 -36.711200
C -12.047200 -10.734000 -33.917700
H -11.939600 -10.764700 -32.909500
C -10.973600 -10.219500 -36.005400
C -10.927700 -10.301400 -34.660300
H -10.267200 -9.909600 -36.575200
H -10.123200 -10.063100 -34.225100
O -24.795300 -16.526300 -41.900000
N -23.909900 -15.900700 -42.433700
O -23.865000 -15.672000 -43.618400
H -23.672400 -15.880300 -39.803200
C -22.925900 -15.512000 -40.220300
C -22.817600 -15.390600 -41.583600
N -21.978600 -15.229100 -36.879100
C -21.933500 -15.162600 -38.010900
C -21.864300 -15.067600 -39.445100
C -21.731800 -14.827900 -42.206100
H -21.701400 -14.747500 -43.148100
C -20.731400 -14.528300 -40.039200
C -20.699500 -14.413600 -41.399100
H -20.039700 -14.221400 -39.544600
O -19.551200 -13.638900 -43.235700
N -19.522900 -13.797500 -42.032300
O -18.588300 -13.490600 -41.320800
