17
Fragment
O -12.618600 -26.158500 -32.762000
N -12.256400 -25.008700 -32.870900
H -12.221300 -25.746200 -30.390500
C -12.098600 -24.883200 -30.443300
C -12.065800 -24.218600 -31.645900
O -12.049400 -24.447400 -33.932700
C -11.911300 -24.130100 -29.311100
N -11.906000 -24.807900 -28.004300
O -11.900300 -26.023300 -27.995700
O -11.893900 -24.106700 -27.006700
C -11.849100 -22.866500 -31.746600
H -11.806100 -22.447600 -32.553000
C -11.718400 -22.776300 -29.347500
C -11.684000 -22.144600 -30.577100
H -11.608800 -22.316400 -28.569700
C -11.474800 -20.727400 -30.630100
N -11.295000 -19.597900 -30.654300
17
Fragment
O -15.144500 -26.880200 -26.633600
N -14.929000 -25.683900 -26.693400
O -14.846900 -25.045900 -27.733900
H -14.779500 -23.143100 -26.281100
C -14.770500 -24.948200 -25.430500
C -14.743500 -23.582200 -25.465700
H -14.667400 -26.532300 -24.264300
C -14.667400 -25.663700 -24.264300
C -14.667400 -22.896800 -24.264300
C -14.667400 -21.451800 -24.264300
N -14.667400 -20.322100 -24.264300
C -14.591300 -23.582200 -23.062900
C -14.564300 -24.948200 -23.098000
H -14.555300 -23.143100 -22.247400
O -14.487900 -25.045900 -20.794700
N -14.405800 -25.683900 -21.835100
O -14.190300 -26.880200 -21.894900
34
Fragment
O -12.618600 -26.158500 -32.762000
N -12.256400 -25.008700 -32.870900
H -12.221300 -25.746200 -30.390500
C -12.098600 -24.883200 -30.443300
C -12.065800 -24.218600 -31.645900
O -12.049400 -24.447400 -33.932700
C -11.911300 -24.130100 -29.311100
N -11.906000 -24.807900 -28.004300
O -11.900300 -26.023300 -27.995700
O -11.893900 -24.106700 -27.006700
C -11.849100 -22.866500 -31.746600
H -11.806100 -22.447600 -32.553000
C -11.718400 -22.776300 -29.347500
C -11.684000 -22.144600 -30.577100
H -11.608800 -22.316400 -28.569700
C -11.474800 -20.727400 -30.630100
N -11.295000 -19.597900 -30.654300
O -15.144500 -26.880200 -26.633600
N -14.929000 -25.683900 -26.693400
O -14.846900 -25.045900 -27.733900
H -14.779500 -23.143100 -26.281100
C -14.770500 -24.948200 -25.430500
C -14.743500 -23.582200 -25.465700
H -14.667400 -26.532300 -24.264300
C -14.667400 -25.663700 -24.264300
C -14.667400 -22.896800 -24.264300
C -14.667400 -21.451800 -24.264300
N -14.667400 -20.322100 -24.264300
C -14.591300 -23.582200 -23.062900
C -14.564300 -24.948200 -23.098000
H -14.555300 -23.143100 -22.247400
O -14.487900 -25.045900 -20.794700
N -14.405800 -25.683900 -21.835100
O -14.190300 -26.880200 -21.894900
