22
Fragment
H -16.483300 -11.860900 -40.382700
H -16.339300 -12.014400 -38.032500
C -15.678800 -11.622600 -39.947500
C -15.632900 -11.704500 -38.602300
H -14.666900 -11.159300 -41.698300
C -14.559300 -11.190000 -40.690100
C -14.446100 -11.345700 -37.896500
N -14.417300 -11.424200 -36.558800
H -13.973900 -11.378600 -34.073400
C -13.421700 -10.835600 -40.067600
C -13.322300 -10.886000 -38.648100
C -13.284100 -11.038000 -35.959700
C -13.184800 -11.088400 -34.540200
H -12.632600 -10.545400 -40.534400
N -12.189200 -10.499800 -38.049000
C -12.160400 -10.578300 -36.711200
C -12.047200 -10.734000 -33.917700
H -11.939600 -10.764700 -32.909500
C -10.973600 -10.219500 -36.005400
C -10.927700 -10.301400 -34.660300
H -10.267200 -9.909600 -36.575200
H -10.123200 -10.063100 -34.225100
22
Fragment
H -23.356300 -11.860900 -40.382700
H -23.212300 -12.014400 -38.032500
C -22.551800 -11.622600 -39.947500
C -22.505900 -11.704500 -38.602300
H -21.539900 -11.159300 -41.698300
C -21.432300 -11.190000 -40.690100
C -21.319100 -11.345700 -37.896500
N -21.290300 -11.424200 -36.558800
H -20.846900 -11.378600 -34.073400
C -20.294700 -10.835600 -40.067600
C -20.195300 -10.886000 -38.648100
C -20.157100 -11.038000 -35.959700
C -20.057800 -11.088400 -34.540200
H -19.505600 -10.545400 -40.534400
N -19.062200 -10.499800 -38.049000
C -19.033400 -10.578300 -36.711200
C -18.920200 -10.734000 -33.917700
H -18.812600 -10.764700 -32.909500
C -17.846600 -10.219500 -36.005400
C -17.800700 -10.301400 -34.660300
H -17.140200 -9.909600 -36.575200
H -16.996200 -10.063100 -34.225100
44
Fragment
H -16.483300 -11.860900 -40.382700
H -16.339300 -12.014400 -38.032500
C -15.678800 -11.622600 -39.947500
C -15.632900 -11.704500 -38.602300
H -14.666900 -11.159300 -41.698300
C -14.559300 -11.190000 -40.690100
C -14.446100 -11.345700 -37.896500
N -14.417300 -11.424200 -36.558800
H -13.973900 -11.378600 -34.073400
C -13.421700 -10.835600 -40.067600
C -13.322300 -10.886000 -38.648100
C -13.284100 -11.038000 -35.959700
C -13.184800 -11.088400 -34.540200
H -12.632600 -10.545400 -40.534400
N -12.189200 -10.499800 -38.049000
C -12.160400 -10.578300 -36.711200
C -12.047200 -10.734000 -33.917700
H -11.939600 -10.764700 -32.909500
C -10.973600 -10.219500 -36.005400
C -10.927700 -10.301400 -34.660300
H -10.267200 -9.909600 -36.575200
H -10.123200 -10.063100 -34.225100
H -23.356300 -11.860900 -40.382700
H -23.212300 -12.014400 -38.032500
C -22.551800 -11.622600 -39.947500
C -22.505900 -11.704500 -38.602300
H -21.539900 -11.159300 -41.698300
C -21.432300 -11.190000 -40.690100
C -21.319100 -11.345700 -37.896500
N -21.290300 -11.424200 -36.558800
H -20.846900 -11.378600 -34.073400
C -20.294700 -10.835600 -40.067600
C -20.195300 -10.886000 -38.648100
C -20.157100 -11.038000 -35.959700
C -20.057800 -11.088400 -34.540200
H -19.505600 -10.545400 -40.534400
N -19.062200 -10.499800 -38.049000
C -19.033400 -10.578300 -36.711200
C -18.920200 -10.734000 -33.917700
H -18.812600 -10.764700 -32.909500
C -17.846600 -10.219500 -36.005400
C -17.800700 -10.301400 -34.660300
H -17.140200 -9.909600 -36.575200
H -16.996200 -10.063100 -34.225100
