34
Fragment
H -10.576800 -19.790900 -5.044700
H -10.324200 -22.064800 -4.954500
C -10.095100 -20.226000 -5.710600
H -10.072400 -17.688900 -6.143300
C -9.935600 -21.589700 -5.653200
N -9.813300 -18.128300 -6.897800
O -9.773600 -24.410600 -5.742400
C -9.542100 -19.487000 -6.757100
H -9.254600 -17.688900 -7.364600
C -9.202800 -22.275300 -6.620100
C -9.069200 -23.740100 -6.513400
C -8.792300 -20.158600 -7.722400
C -8.633600 -21.525900 -7.658700
H -8.623100 -26.088700 -7.778700
H -8.396400 -19.679100 -8.414300
N -8.166400 -24.334200 -7.321500
H -8.139700 -21.959700 -8.316600
H -8.053900 -28.089000 -8.316600
N -8.027200 -25.714500 -7.321500
H -7.797200 -30.369600 -8.414300
H -7.570500 -23.960000 -7.778700
C -7.560000 -28.522800 -7.658700
C -7.401300 -29.890100 -7.722400
C -7.124400 -26.308600 -6.513400
C -6.990800 -27.773400 -6.620100
H -6.939000 -32.359800 -7.364600
C -6.651500 -30.561700 -6.757100
O -6.420000 -25.638100 -5.742400
N -6.380300 -31.920400 -6.897800
C -6.258000 -28.459000 -5.653200
H -6.121200 -32.359800 -6.143300
C -6.098500 -29.822700 -5.710600
H -5.869400 -27.983900 -4.954500
H -5.616800 -30.257800 -5.044700
34
Fragment
H -10.576800 -19.790900 0.265000
H -10.324200 -22.064800 0.355200
C -10.095100 -20.226000 -0.400900
H -10.072400 -17.688900 -0.833600
C -9.935600 -21.589700 -0.343500
N -9.813300 -18.128300 -1.588100
O -9.773600 -24.410600 -0.432700
C -9.542100 -19.487000 -1.447400
H -9.254600 -17.688900 -2.054900
C -9.202800 -22.275300 -1.310400
C -9.069200 -23.740100 -1.203700
C -8.792300 -20.158600 -2.412700
C -8.633600 -21.525900 -2.349000
H -8.623100 -26.088700 -2.469000
H -8.396400 -19.679100 -3.104600
N -8.166400 -24.334200 -2.011800
H -8.139700 -21.959700 -3.006900
H -8.053900 -28.089000 -3.006900
N -8.027200 -25.714500 -2.011800
H -7.797200 -30.369600 -3.104600
H -7.570500 -23.960000 -2.469000
C -7.560000 -28.522800 -2.349000
C -7.401300 -29.890100 -2.412700
C -7.124400 -26.308600 -1.203700
C -6.990800 -27.773400 -1.310400
H -6.939000 -32.359800 -2.054900
C -6.651500 -30.561700 -1.447400
O -6.420000 -25.638100 -0.432700
N -6.380300 -31.920400 -1.588100
C -6.258000 -28.459000 -0.343500
H -6.121200 -32.359800 -0.833600
C -6.098500 -29.822700 -0.400900
H -5.869400 -27.983900 0.355200
H -5.616800 -30.257800 0.265000
68
Fragment
H -10.576800 -19.790900 -5.044700
H -10.324200 -22.064800 -4.954500
C -10.095100 -20.226000 -5.710600
H -10.072400 -17.688900 -6.143300
C -9.935600 -21.589700 -5.653200
N -9.813300 -18.128300 -6.897800
O -9.773600 -24.410600 -5.742400
C -9.542100 -19.487000 -6.757100
H -9.254600 -17.688900 -7.364600
C -9.202800 -22.275300 -6.620100
C -9.069200 -23.740100 -6.513400
C -8.792300 -20.158600 -7.722400
C -8.633600 -21.525900 -7.658700
H -8.623100 -26.088700 -7.778700
H -8.396400 -19.679100 -8.414300
N -8.166400 -24.334200 -7.321500
H -8.139700 -21.959700 -8.316600
H -8.053900 -28.089000 -8.316600
N -8.027200 -25.714500 -7.321500
H -7.797200 -30.369600 -8.414300
H -7.570500 -23.960000 -7.778700
C -7.560000 -28.522800 -7.658700
C -7.401300 -29.890100 -7.722400
C -7.124400 -26.308600 -6.513400
C -6.990800 -27.773400 -6.620100
H -6.939000 -32.359800 -7.364600
C -6.651500 -30.561700 -6.757100
O -6.420000 -25.638100 -5.742400
N -6.380300 -31.920400 -6.897800
C -6.258000 -28.459000 -5.653200
H -6.121200 -32.359800 -6.143300
C -6.098500 -29.822700 -5.710600
H -5.869400 -27.983900 -4.954500
H -5.616800 -30.257800 -5.044700
H -10.576800 -19.790900 0.265000
H -10.324200 -22.064800 0.355200
C -10.095100 -20.226000 -0.400900
H -10.072400 -17.688900 -0.833600
C -9.935600 -21.589700 -0.343500
N -9.813300 -18.128300 -1.588100
O -9.773600 -24.410600 -0.432700
C -9.542100 -19.487000 -1.447400
H -9.254600 -17.688900 -2.054900
C -9.202800 -22.275300 -1.310400
C -9.069200 -23.740100 -1.203700
C -8.792300 -20.158600 -2.412700
C -8.633600 -21.525900 -2.349000
H -8.623100 -26.088700 -2.469000
H -8.396400 -19.679100 -3.104600
N -8.166400 -24.334200 -2.011800
H -8.139700 -21.959700 -3.006900
H -8.053900 -28.089000 -3.006900
N -8.027200 -25.714500 -2.011800
H -7.797200 -30.369600 -3.104600
H -7.570500 -23.960000 -2.469000
C -7.560000 -28.522800 -2.349000
C -7.401300 -29.890100 -2.412700
C -7.124400 -26.308600 -1.203700
C -6.990800 -27.773400 -1.310400
H -6.939000 -32.359800 -2.054900
C -6.651500 -30.561700 -1.447400
O -6.420000 -25.638100 -0.432700
N -6.380300 -31.920400 -1.588100
C -6.258000 -28.459000 -0.343500
H -6.121200 -32.359800 -0.833600
C -6.098500 -29.822700 -0.400900
H -5.869400 -27.983900 0.355200
H -5.616800 -30.257800 0.265000
