34
Fragment
H -10.576800 -19.790900 -5.044700
H -10.324200 -22.064800 -4.954500
C -10.095100 -20.226000 -5.710600
H -10.072400 -17.688900 -6.143300
C -9.935600 -21.589700 -5.653200
N -9.813300 -18.128300 -6.897800
O -9.773600 -24.410600 -5.742400
C -9.542100 -19.487000 -6.757100
H -9.254600 -17.688900 -7.364600
C -9.202800 -22.275300 -6.620100
C -9.069200 -23.740100 -6.513400
C -8.792300 -20.158600 -7.722400
C -8.633600 -21.525900 -7.658700
H -8.623100 -26.088700 -7.778700
H -8.396400 -19.679100 -8.414300
N -8.166400 -24.334200 -7.321500
H -8.139700 -21.959700 -8.316600
H -8.053900 -28.089000 -8.316600
N -8.027200 -25.714500 -7.321500
H -7.797200 -30.369600 -8.414300
H -7.570500 -23.960000 -7.778700
C -7.560000 -28.522800 -7.658700
C -7.401300 -29.890100 -7.722400
C -7.124400 -26.308600 -6.513400
C -6.990800 -27.773400 -6.620100
H -6.939000 -32.359800 -7.364600
C -6.651500 -30.561700 -6.757100
O -6.420000 -25.638100 -5.742400
N -6.380300 -31.920400 -6.897800
C -6.258000 -28.459000 -5.653200
H -6.121200 -32.359800 -6.143300
C -6.098500 -29.822700 -5.710600
H -5.869400 -27.983900 -4.954500
H -5.616800 -30.257800 -5.044700
34
Fragment
H -6.528400 -21.916300 -10.884400
H -6.275800 -19.642400 -10.974600
C -6.046700 -21.481200 -10.218500
H -6.024000 -24.018400 -9.785800
C -5.887200 -20.117600 -10.275900
N -5.764900 -23.578900 -9.031300
O -5.725200 -17.296700 -10.186700
C -5.493700 -22.220300 -9.172000
H -5.206200 -24.018400 -8.564500
C -5.154400 -19.431900 -9.309000
C -5.020800 -17.967100 -9.415700
C -4.743900 -21.548600 -8.206700
C -4.585200 -20.181300 -8.270400
H -4.574700 -15.618500 -8.150400
H -4.348000 -22.028100 -7.514800
N -4.118000 -17.373100 -8.607600
H -4.091300 -19.747500 -7.612500
H -4.005500 -13.618300 -7.612500
N -3.978800 -15.992700 -8.607600
H -3.748800 -11.337700 -7.514800
H -3.522100 -17.747300 -8.150400
C -3.511600 -13.184500 -8.270400
C -3.352900 -11.817200 -8.206700
C -3.076000 -15.398700 -9.415700
C -2.942400 -13.933900 -9.309000
H -2.890600 -9.347400 -8.564500
C -2.603100 -11.145500 -9.172000
O -2.371600 -16.069100 -10.186700
N -2.331900 -9.786900 -9.031300
C -2.209600 -13.248200 -10.275900
H -2.072800 -9.347400 -9.785800
C -2.050100 -11.884600 -10.218500
H -1.821000 -13.723400 -10.974600
H -1.568400 -11.449500 -10.884400
68
Fragment
H -10.576800 -19.790900 -5.044700
H -10.324200 -22.064800 -4.954500
C -10.095100 -20.226000 -5.710600
H -10.072400 -17.688900 -6.143300
C -9.935600 -21.589700 -5.653200
N -9.813300 -18.128300 -6.897800
O -9.773600 -24.410600 -5.742400
C -9.542100 -19.487000 -6.757100
H -9.254600 -17.688900 -7.364600
C -9.202800 -22.275300 -6.620100
C -9.069200 -23.740100 -6.513400
C -8.792300 -20.158600 -7.722400
C -8.633600 -21.525900 -7.658700
H -8.623100 -26.088700 -7.778700
H -8.396400 -19.679100 -8.414300
N -8.166400 -24.334200 -7.321500
H -8.139700 -21.959700 -8.316600
H -8.053900 -28.089000 -8.316600
N -8.027200 -25.714500 -7.321500
H -7.797200 -30.369600 -8.414300
H -7.570500 -23.960000 -7.778700
C -7.560000 -28.522800 -7.658700
C -7.401300 -29.890100 -7.722400
C -7.124400 -26.308600 -6.513400
C -6.990800 -27.773400 -6.620100
H -6.939000 -32.359800 -7.364600
C -6.651500 -30.561700 -6.757100
O -6.420000 -25.638100 -5.742400
N -6.380300 -31.920400 -6.897800
C -6.258000 -28.459000 -5.653200
H -6.121200 -32.359800 -6.143300
C -6.098500 -29.822700 -5.710600
H -5.869400 -27.983900 -4.954500
H -5.616800 -30.257800 -5.044700
H -6.528400 -21.916300 -10.884400
H -6.275800 -19.642400 -10.974600
C -6.046700 -21.481200 -10.218500
H -6.024000 -24.018400 -9.785800
C -5.887200 -20.117600 -10.275900
N -5.764900 -23.578900 -9.031300
O -5.725200 -17.296700 -10.186700
C -5.493700 -22.220300 -9.172000
H -5.206200 -24.018400 -8.564500
C -5.154400 -19.431900 -9.309000
C -5.020800 -17.967100 -9.415700
C -4.743900 -21.548600 -8.206700
C -4.585200 -20.181300 -8.270400
H -4.574700 -15.618500 -8.150400
H -4.348000 -22.028100 -7.514800
N -4.118000 -17.373100 -8.607600
H -4.091300 -19.747500 -7.612500
H -4.005500 -13.618300 -7.612500
N -3.978800 -15.992700 -8.607600
H -3.748800 -11.337700 -7.514800
H -3.522100 -17.747300 -8.150400
C -3.511600 -13.184500 -8.270400
C -3.352900 -11.817200 -8.206700
C -3.076000 -15.398700 -9.415700
C -2.942400 -13.933900 -9.309000
H -2.890600 -9.347400 -8.564500
C -2.603100 -11.145500 -9.172000
O -2.371600 -16.069100 -10.186700
N -2.331900 -9.786900 -9.031300
C -2.209600 -13.248200 -10.275900
H -2.072800 -9.347400 -9.785800
C -2.050100 -11.884600 -10.218500
H -1.821000 -13.723400 -10.974600
H -1.568400 -11.449500 -10.884400
