21
Fragment
H -5.963300 -21.421200 -23.882500
H -5.335400 -20.383100 -22.888000
C -5.146100 -21.010200 -23.589600
H -4.737900 -20.550600 -24.328600
O -4.273900 -23.008200 -25.100500
O -4.250400 -22.021100 -23.100200
C -3.897600 -22.968900 -23.959100
C -2.961400 -23.925400 -23.334200
H -2.743200 -23.828000 -22.435100
H -2.679700 -24.966300 -24.912700
C -2.433300 -24.906200 -24.018700
C -1.500700 -25.914100 -23.530000
H -1.347000 -25.355700 -21.592200
H -1.304500 -26.884900 -25.270300
C -1.048800 -25.972900 -22.220500
C -1.023700 -26.872000 -24.383100
C -0.153800 -26.956500 -21.859500
C -0.131400 -27.814100 -23.933600
H 0.140600 -26.973700 -20.977400
H 0.179900 -28.444100 -24.543200
N 0.314800 -27.881400 -22.687100
21
Fragment
N -7.421800 -15.072600 -28.398500
H -7.286900 -14.509900 -26.542400
H -7.247600 -15.980300 -30.108100
C -6.975600 -15.139900 -27.152000
C -6.953200 -15.997500 -29.226000
C -6.083300 -16.082000 -26.702400
C -6.058200 -16.981100 -28.865000
H -5.802500 -16.069100 -25.815200
H -5.760000 -17.598300 -29.493400
C -5.606300 -17.039900 -27.555600
C -4.673700 -18.047800 -27.066800
H -4.427300 -17.987700 -26.172800
H -4.363800 -19.126000 -28.650500
C -4.145600 -19.028600 -27.751400
C -3.209500 -19.985100 -27.126400
O -2.856600 -20.932900 -27.985400
O -2.833100 -19.945800 -25.985000
H -2.369200 -22.403400 -26.756900
C -1.960900 -21.943800 -27.496000
H -1.771600 -22.570900 -28.197500
H -1.143700 -21.532800 -27.203100
42
Fragment
H -5.963300 -21.421200 -23.882500
H -5.335400 -20.383100 -22.888000
C -5.146100 -21.010200 -23.589600
H -4.737900 -20.550600 -24.328600
O -4.273900 -23.008200 -25.100500
O -4.250400 -22.021100 -23.100200
C -3.897600 -22.968900 -23.959100
C -2.961400 -23.925400 -23.334200
H -2.743200 -23.828000 -22.435100
H -2.679700 -24.966300 -24.912700
C -2.433300 -24.906200 -24.018700
C -1.500700 -25.914100 -23.530000
H -1.347000 -25.355700 -21.592200
H -1.304500 -26.884900 -25.270300
C -1.048800 -25.972900 -22.220500
C -1.023700 -26.872000 -24.383100
C -0.153800 -26.956500 -21.859500
C -0.131400 -27.814100 -23.933600
H 0.140600 -26.973700 -20.977400
H 0.179900 -28.444100 -24.543200
N 0.314800 -27.881400 -22.687100
N -7.421800 -15.072600 -28.398500
H -7.286900 -14.509900 -26.542400
H -7.247600 -15.980300 -30.108100
C -6.975600 -15.139900 -27.152000
C -6.953200 -15.997500 -29.226000
C -6.083300 -16.082000 -26.702400
C -6.058200 -16.981100 -28.865000
H -5.802500 -16.069100 -25.815200
H -5.760000 -17.598300 -29.493400
C -5.606300 -17.039900 -27.555600
C -4.673700 -18.047800 -27.066800
H -4.427300 -17.987700 -26.172800
H -4.363800 -19.126000 -28.650500
C -4.145600 -19.028600 -27.751400
C -3.209500 -19.985100 -27.126400
O -2.856600 -20.932900 -27.985400
O -2.833100 -19.945800 -25.985000
H -2.369200 -22.403400 -26.756900
C -1.960900 -21.943800 -27.496000
H -1.771600 -22.570900 -28.197500
H -1.143700 -21.532800 -27.203100
