21
Fragment
H -5.963300 -21.421200 -23.882500
H -5.335400 -20.383100 -22.888000
C -5.146100 -21.010200 -23.589600
H -4.737900 -20.550600 -24.328600
O -4.273900 -23.008200 -25.100500
O -4.250400 -22.021100 -23.100200
C -3.897600 -22.968900 -23.959100
C -2.961400 -23.925400 -23.334200
H -2.743200 -23.828000 -22.435100
H -2.679700 -24.966300 -24.912700
C -2.433300 -24.906200 -24.018700
C -1.500700 -25.914100 -23.530000
H -1.347000 -25.355700 -21.592200
H -1.304500 -26.884900 -25.270300
C -1.048800 -25.972900 -22.220500
C -1.023700 -26.872000 -24.383100
C -0.153800 -26.956500 -21.859500
C -0.131400 -27.814100 -23.933600
H 0.140600 -26.973700 -20.977400
H 0.179900 -28.444100 -24.543200
N 0.314800 -27.881400 -22.687100
21
Fragment
N -7.773000 -20.722400 -19.884200
H -7.638100 -21.285100 -18.028100
H -7.598800 -19.814700 -21.593900
C -7.326800 -20.655100 -18.637700
C -7.304400 -19.797500 -20.711800
C -6.434500 -19.713000 -18.188200
C -6.409400 -18.813900 -20.350800
H -6.153700 -19.725900 -17.301000
H -6.111200 -18.196700 -20.979100
C -5.957500 -18.755100 -19.041300
C -5.024900 -17.747200 -18.552600
H -4.778500 -17.807300 -17.658600
H -4.715000 -16.669000 -20.136200
C -4.496800 -16.766400 -19.237100
C -3.560700 -15.809900 -18.612200
O -3.207800 -14.862100 -19.471100
O -3.184300 -15.849200 -17.470800
H -2.720400 -13.391600 -18.242700
C -2.312100 -13.851200 -18.981700
H -2.122800 -13.224100 -19.683300
H -1.494900 -14.262200 -18.688800
42
Fragment
H -5.963300 -21.421200 -23.882500
H -5.335400 -20.383100 -22.888000
C -5.146100 -21.010200 -23.589600
H -4.737900 -20.550600 -24.328600
O -4.273900 -23.008200 -25.100500
O -4.250400 -22.021100 -23.100200
C -3.897600 -22.968900 -23.959100
C -2.961400 -23.925400 -23.334200
H -2.743200 -23.828000 -22.435100
H -2.679700 -24.966300 -24.912700
C -2.433300 -24.906200 -24.018700
C -1.500700 -25.914100 -23.530000
H -1.347000 -25.355700 -21.592200
H -1.304500 -26.884900 -25.270300
C -1.048800 -25.972900 -22.220500
C -1.023700 -26.872000 -24.383100
C -0.153800 -26.956500 -21.859500
C -0.131400 -27.814100 -23.933600
H 0.140600 -26.973700 -20.977400
H 0.179900 -28.444100 -24.543200
N 0.314800 -27.881400 -22.687100
N -7.773000 -20.722400 -19.884200
H -7.638100 -21.285100 -18.028100
H -7.598800 -19.814700 -21.593900
C -7.326800 -20.655100 -18.637700
C -7.304400 -19.797500 -20.711800
C -6.434500 -19.713000 -18.188200
C -6.409400 -18.813900 -20.350800
H -6.153700 -19.725900 -17.301000
H -6.111200 -18.196700 -20.979100
C -5.957500 -18.755100 -19.041300
C -5.024900 -17.747200 -18.552600
H -4.778500 -17.807300 -17.658600
H -4.715000 -16.669000 -20.136200
C -4.496800 -16.766400 -19.237100
C -3.560700 -15.809900 -18.612200
O -3.207800 -14.862100 -19.471100
O -3.184300 -15.849200 -17.470800
H -2.720400 -13.391600 -18.242700
C -2.312100 -13.851200 -18.981700
H -2.122800 -13.224100 -19.683300
H -1.494900 -14.262200 -18.688800
