21
Fragment
H -5.963300 -21.421200 -23.882500
H -5.335400 -20.383100 -22.888000
C -5.146100 -21.010200 -23.589600
H -4.737900 -20.550600 -24.328600
O -4.273900 -23.008200 -25.100500
O -4.250400 -22.021100 -23.100200
C -3.897600 -22.968900 -23.959100
C -2.961400 -23.925400 -23.334200
H -2.743200 -23.828000 -22.435100
H -2.679700 -24.966300 -24.912700
C -2.433300 -24.906200 -24.018700
C -1.500700 -25.914100 -23.530000
H -1.347000 -25.355700 -21.592200
H -1.304500 -26.884900 -25.270300
C -1.048800 -25.972900 -22.220500
C -1.023700 -26.872000 -24.383100
C -0.153800 -26.956500 -21.859500
C -0.131400 -27.814100 -23.933600
H 0.140600 -26.973700 -20.977400
H 0.179900 -28.444100 -24.543200
N 0.314800 -27.881400 -22.687100
21
Fragment
H -1.356200 -21.421200 -23.882500
H -0.728300 -20.383100 -22.888000
C -0.539000 -21.010200 -23.589600
H -0.130800 -20.550600 -24.328600
O 0.333200 -23.008200 -25.100500
O 0.356700 -22.021100 -23.100200
C 0.709500 -22.968900 -23.959100
C 1.645700 -23.925400 -23.334200
H 1.863900 -23.828000 -22.435100
H 1.927400 -24.966300 -24.912700
C 2.173800 -24.906200 -24.018700
C 3.106400 -25.914100 -23.530000
H 3.260100 -25.355700 -21.592200
H 3.302600 -26.884900 -25.270300
C 3.558300 -25.972900 -22.220500
C 3.583400 -26.872000 -24.383100
C 4.453300 -26.956500 -21.859500
C 4.475700 -27.814100 -23.933600
H 4.747700 -26.973700 -20.977400
H 4.787000 -28.444100 -24.543200
N 4.921900 -27.881400 -22.687100
42
Fragment
H -5.963300 -21.421200 -23.882500
H -5.335400 -20.383100 -22.888000
C -5.146100 -21.010200 -23.589600
H -4.737900 -20.550600 -24.328600
O -4.273900 -23.008200 -25.100500
O -4.250400 -22.021100 -23.100200
C -3.897600 -22.968900 -23.959100
C -2.961400 -23.925400 -23.334200
H -2.743200 -23.828000 -22.435100
H -2.679700 -24.966300 -24.912700
C -2.433300 -24.906200 -24.018700
C -1.500700 -25.914100 -23.530000
H -1.347000 -25.355700 -21.592200
H -1.304500 -26.884900 -25.270300
C -1.048800 -25.972900 -22.220500
C -1.023700 -26.872000 -24.383100
C -0.153800 -26.956500 -21.859500
C -0.131400 -27.814100 -23.933600
H 0.140600 -26.973700 -20.977400
H 0.179900 -28.444100 -24.543200
N 0.314800 -27.881400 -22.687100
H -1.356200 -21.421200 -23.882500
H -0.728300 -20.383100 -22.888000
C -0.539000 -21.010200 -23.589600
H -0.130800 -20.550600 -24.328600
O 0.333200 -23.008200 -25.100500
O 0.356700 -22.021100 -23.100200
C 0.709500 -22.968900 -23.959100
C 1.645700 -23.925400 -23.334200
H 1.863900 -23.828000 -22.435100
H 1.927400 -24.966300 -24.912700
C 2.173800 -24.906200 -24.018700
C 3.106400 -25.914100 -23.530000
H 3.260100 -25.355700 -21.592200
H 3.302600 -26.884900 -25.270300
C 3.558300 -25.972900 -22.220500
C 3.583400 -26.872000 -24.383100
C 4.453300 -26.956500 -21.859500
C 4.475700 -27.814100 -23.933600
H 4.747700 -26.973700 -20.977400
H 4.787000 -28.444100 -24.543200
N 4.921900 -27.881400 -22.687100
