16
Fragment
H -5.782600 -29.300800 -15.574900
O -5.452800 -31.363600 -16.999800
N -5.343600 -29.469500 -14.818400
C -5.089100 -31.782200 -15.883500
H -4.866000 -33.691400 -16.278900
N -4.856200 -33.059500 -15.610200
C -4.827300 -30.834500 -14.753800
H -4.778200 -31.200600 -13.857700
H -4.639600 -33.268100 -14.819300
C -3.914300 -29.687300 -15.092400
H -3.622300 -29.654500 -16.012800
O -3.281900 -29.116300 -12.862500
C -2.945000 -29.232300 -14.043800
N -1.709900 -28.998500 -14.501100
H -1.544400 -29.104400 -15.386000
H -1.062200 -28.728200 -13.917800
3
Fragment
H 0.381700 -26.981700 -13.316800
O 0.538700 -27.720400 -12.879400
H 1.057500 -28.225100 -13.428400
19
Fragment
H -5.782600 -29.300800 -15.574900
O -5.452800 -31.363600 -16.999800
N -5.343600 -29.469500 -14.818400
C -5.089100 -31.782200 -15.883500
H -4.866000 -33.691400 -16.278900
N -4.856200 -33.059500 -15.610200
C -4.827300 -30.834500 -14.753800
H -4.778200 -31.200600 -13.857700
H -4.639600 -33.268100 -14.819300
C -3.914300 -29.687300 -15.092400
H -3.622300 -29.654500 -16.012800
O -3.281900 -29.116300 -12.862500
C -2.945000 -29.232300 -14.043800
N -1.709900 -28.998500 -14.501100
H -1.544400 -29.104400 -15.386000
H -1.062200 -28.728200 -13.917800
H 0.381700 -26.981700 -13.316800
O 0.538700 -27.720400 -12.879400
H 1.057500 -28.225100 -13.428400
