16
Fragment
H -5.782600 -29.300800 -15.574900
O -5.452800 -31.363600 -16.999800
N -5.343600 -29.469500 -14.818400
C -5.089100 -31.782200 -15.883500
H -4.866000 -33.691400 -16.278900
N -4.856200 -33.059500 -15.610200
C -4.827300 -30.834500 -14.753800
H -4.778200 -31.200600 -13.857700
H -4.639600 -33.268100 -14.819300
C -3.914300 -29.687300 -15.092400
H -3.622300 -29.654500 -16.012800
O -3.281900 -29.116300 -12.862500
C -2.945000 -29.232300 -14.043800
N -1.709900 -28.998500 -14.501100
H -1.544400 -29.104400 -15.386000
H -1.062200 -28.728200 -13.917800
16
Fragment
H -8.645700 -36.298800 -14.441500
N -8.472000 -35.953300 -15.280000
H -8.406900 -31.650500 -16.236000
N -8.308300 -32.328200 -15.613400
O -8.239200 -33.838000 -17.305200
C -8.185400 -33.561700 -16.094900
H -8.159400 -32.210800 -14.759200
C -7.910500 -34.608600 -15.059700
H -7.850200 -34.323300 -14.106700
C -7.028000 -35.748800 -15.462800
H -6.729500 -35.765000 -16.382000
O -6.483900 -36.412000 -13.249400
C -6.087300 -36.244800 -14.413000
N -4.839400 -36.463800 -14.813700
H -4.640900 -36.311000 -15.660700
H -4.253400 -36.736400 -14.252700
32
Fragment
H -5.782600 -29.300800 -15.574900
O -5.452800 -31.363600 -16.999800
N -5.343600 -29.469500 -14.818400
C -5.089100 -31.782200 -15.883500
H -4.866000 -33.691400 -16.278900
N -4.856200 -33.059500 -15.610200
C -4.827300 -30.834500 -14.753800
H -4.778200 -31.200600 -13.857700
H -4.639600 -33.268100 -14.819300
C -3.914300 -29.687300 -15.092400
H -3.622300 -29.654500 -16.012800
O -3.281900 -29.116300 -12.862500
C -2.945000 -29.232300 -14.043800
N -1.709900 -28.998500 -14.501100
H -1.544400 -29.104400 -15.386000
H -1.062200 -28.728200 -13.917800
H -8.645700 -36.298800 -14.441500
N -8.472000 -35.953300 -15.280000
H -8.406900 -31.650500 -16.236000
N -8.308300 -32.328200 -15.613400
O -8.239200 -33.838000 -17.305200
C -8.185400 -33.561700 -16.094900
H -8.159400 -32.210800 -14.759200
C -7.910500 -34.608600 -15.059700
H -7.850200 -34.323300 -14.106700
C -7.028000 -35.748800 -15.462800
H -6.729500 -35.765000 -16.382000
O -6.483900 -36.412000 -13.249400
C -6.087300 -36.244800 -14.413000
N -4.839400 -36.463800 -14.813700
H -4.640900 -36.311000 -15.660700
H -4.253400 -36.736400 -14.252700
