20
Fragment
H -13.158600 -18.851900 -16.766800
O -12.956600 -18.090800 -17.115400
H -12.514000 -15.532900 -17.185900
C -12.125700 -17.361100 -16.362800
O -11.732300 -17.722000 -15.263400
C -11.720900 -16.069300 -17.029400
H -11.323300 -16.269100 -17.891700
H -11.215000 -13.395700 -16.959400
H -11.094500 -15.099700 -15.313300
C -10.722500 -15.255100 -16.196100
C -10.396100 -13.904900 -16.852900
H -10.024100 -14.060300 -17.735600
H -9.903700 -15.764300 -16.089500
H -9.795400 -12.890900 -15.157200
C -9.397800 -13.090700 -16.019600
O -9.386400 -11.438000 -17.785500
C -8.992900 -11.798900 -16.686200
H -8.604700 -13.627100 -15.863100
O -8.162000 -11.069200 -15.933600
H -7.960100 -10.308100 -16.282100
20
Fragment
H -12.478400 -6.663100 -22.275000
O -12.276400 -7.424200 -22.623500
H -11.833800 -9.982100 -22.694000
C -11.445500 -8.153900 -21.870900
O -11.052100 -7.793000 -20.771600
C -11.040600 -9.445700 -22.537500
H -10.643100 -9.245900 -23.399900
H -10.534800 -12.119300 -22.467600
H -10.414300 -10.415300 -20.821500
C -10.042300 -10.259900 -21.704200
C -9.715900 -11.610100 -22.361000
H -9.343900 -11.454700 -23.243800
H -9.223400 -9.750700 -21.597700
H -9.115100 -12.624100 -20.665400
C -8.717600 -12.424300 -21.527800
O -8.706100 -14.077000 -23.293700
C -8.312700 -13.716100 -22.194300
H -7.924500 -11.887900 -21.371200
O -7.481800 -14.445800 -21.441700
H -7.279800 -15.206900 -21.790300
40
Fragment
H -13.158600 -18.851900 -16.766800
O -12.956600 -18.090800 -17.115400
H -12.514000 -15.532900 -17.185900
C -12.125700 -17.361100 -16.362800
O -11.732300 -17.722000 -15.263400
C -11.720900 -16.069300 -17.029400
H -11.323300 -16.269100 -17.891700
H -11.215000 -13.395700 -16.959400
H -11.094500 -15.099700 -15.313300
C -10.722500 -15.255100 -16.196100
C -10.396100 -13.904900 -16.852900
H -10.024100 -14.060300 -17.735600
H -9.903700 -15.764300 -16.089500
H -9.795400 -12.890900 -15.157200
C -9.397800 -13.090700 -16.019600
O -9.386400 -11.438000 -17.785500
C -8.992900 -11.798900 -16.686200
H -8.604700 -13.627100 -15.863100
O -8.162000 -11.069200 -15.933600
H -7.960100 -10.308100 -16.282100
H -12.478400 -6.663100 -22.275000
O -12.276400 -7.424200 -22.623500
H -11.833800 -9.982100 -22.694000
C -11.445500 -8.153900 -21.870900
O -11.052100 -7.793000 -20.771600
C -11.040600 -9.445700 -22.537500
H -10.643100 -9.245900 -23.399900
H -10.534800 -12.119300 -22.467600
H -10.414300 -10.415300 -20.821500
C -10.042300 -10.259900 -21.704200
C -9.715900 -11.610100 -22.361000
H -9.343900 -11.454700 -23.243800
H -9.223400 -9.750700 -21.597700
H -9.115100 -12.624100 -20.665400
C -8.717600 -12.424300 -21.527800
O -8.706100 -14.077000 -23.293700
C -8.312700 -13.716100 -22.194300
H -7.924500 -11.887900 -21.371200
O -7.481800 -14.445800 -21.441700
H -7.279800 -15.206900 -21.790300
