20
Fragment
H -8.192600 -8.509000 -17.693900
O -7.874800 -7.859600 -18.114000
H -7.519100 -5.406200 -18.655200
O -7.508000 -7.010600 -16.093800
C -7.447100 -6.913700 -17.299800
H -7.140500 -4.345600 -16.551400
C -6.859400 -5.742100 -18.029600
H -6.712100 -3.085500 -18.498500
C -6.410400 -4.597800 -17.138400
H -6.287000 -1.930400 -16.539700
H -6.097200 -6.050400 -18.544100
C -5.973800 -3.383000 -17.945400
H -5.672100 -4.895300 -16.585300
C -5.524800 -2.238700 -17.054200
H -5.243700 -3.635200 -18.532400
C -4.937100 -1.067100 -17.784000
O -4.876200 -0.970200 -18.990000
H -4.865100 -2.574600 -16.428600
O -4.509300 -0.121200 -16.969800
H -4.191500 0.528200 -17.389900
8
Fragment
H -8.662900 -1.053200 -21.112300
N -7.866600 -1.319800 -20.924000
O -7.562900 -2.081900 -23.028000
H -7.551700 -1.207700 -20.132300
C -7.118100 -1.910400 -21.865400
N -5.897500 -2.333500 -21.526200
H -5.605900 -2.209200 -20.726300
H -5.403500 -2.730800 -22.107500
28
Fragment
H -8.192600 -8.509000 -17.693900
O -7.874800 -7.859600 -18.114000
H -7.519100 -5.406200 -18.655200
O -7.508000 -7.010600 -16.093800
C -7.447100 -6.913700 -17.299800
H -7.140500 -4.345600 -16.551400
C -6.859400 -5.742100 -18.029600
H -6.712100 -3.085500 -18.498500
C -6.410400 -4.597800 -17.138400
H -6.287000 -1.930400 -16.539700
H -6.097200 -6.050400 -18.544100
C -5.973800 -3.383000 -17.945400
H -5.672100 -4.895300 -16.585300
C -5.524800 -2.238700 -17.054200
H -5.243700 -3.635200 -18.532400
C -4.937100 -1.067100 -17.784000
O -4.876200 -0.970200 -18.990000
H -4.865100 -2.574600 -16.428600
O -4.509300 -0.121200 -16.969800
H -4.191500 0.528200 -17.389900
H -8.662900 -1.053200 -21.112300
N -7.866600 -1.319800 -20.924000
O -7.562900 -2.081900 -23.028000
H -7.551700 -1.207700 -20.132300
C -7.118100 -1.910400 -21.865400
N -5.897500 -2.333500 -21.526200
H -5.605900 -2.209200 -20.726300
H -5.403500 -2.730800 -22.107500
