20
Fragment
H -8.192600 -8.509000 -17.693900
O -7.874800 -7.859600 -18.114000
H -7.519100 -5.406200 -18.655200
O -7.508000 -7.010600 -16.093800
C -7.447100 -6.913700 -17.299800
H -7.140500 -4.345600 -16.551400
C -6.859400 -5.742100 -18.029600
H -6.712100 -3.085500 -18.498500
C -6.410400 -4.597800 -17.138400
H -6.287000 -1.930400 -16.539700
H -6.097200 -6.050400 -18.544100
C -5.973800 -3.383000 -17.945400
H -5.672100 -4.895300 -16.585300
C -5.524800 -2.238700 -17.054200
H -5.243700 -3.635200 -18.532400
C -4.937100 -1.067100 -17.784000
O -4.876200 -0.970200 -18.990000
H -4.865100 -2.574600 -16.428600
O -4.509300 -0.121200 -16.969800
H -4.191500 0.528200 -17.389900
8
Fragment
H -9.749400 -12.132500 -16.255500
H -9.738800 -11.743500 -14.818200
N -9.593200 -11.549500 -15.642700
C -9.124200 -10.339700 -15.973700
H -9.042700 -9.698600 -14.182000
O -8.906300 -10.041000 -17.177500
N -8.888300 -9.477800 -14.998300
H -8.580200 -8.695300 -15.181900
28
Fragment
H -8.192600 -8.509000 -17.693900
O -7.874800 -7.859600 -18.114000
H -7.519100 -5.406200 -18.655200
O -7.508000 -7.010600 -16.093800
C -7.447100 -6.913700 -17.299800
H -7.140500 -4.345600 -16.551400
C -6.859400 -5.742100 -18.029600
H -6.712100 -3.085500 -18.498500
C -6.410400 -4.597800 -17.138400
H -6.287000 -1.930400 -16.539700
H -6.097200 -6.050400 -18.544100
C -5.973800 -3.383000 -17.945400
H -5.672100 -4.895300 -16.585300
C -5.524800 -2.238700 -17.054200
H -5.243700 -3.635200 -18.532400
C -4.937100 -1.067100 -17.784000
O -4.876200 -0.970200 -18.990000
H -4.865100 -2.574600 -16.428600
O -4.509300 -0.121200 -16.969800
H -4.191500 0.528200 -17.389900
H -9.749400 -12.132500 -16.255500
H -9.738800 -11.743500 -14.818200
N -9.593200 -11.549500 -15.642700
C -9.124200 -10.339700 -15.973700
H -9.042700 -9.698600 -14.182000
O -8.906300 -10.041000 -17.177500
N -8.888300 -9.477800 -14.998300
H -8.580200 -8.695300 -15.181900
