20
Fragment
H -13.158600 -18.851900 -16.766800
O -12.956600 -18.090800 -17.115400
H -12.514000 -15.532900 -17.185900
C -12.125700 -17.361100 -16.362800
O -11.732300 -17.722000 -15.263400
C -11.720900 -16.069300 -17.029400
H -11.323300 -16.269100 -17.891700
H -11.215000 -13.395700 -16.959400
H -11.094500 -15.099700 -15.313300
C -10.722500 -15.255100 -16.196100
C -10.396100 -13.904900 -16.852900
H -10.024100 -14.060300 -17.735600
H -9.903700 -15.764300 -16.089500
H -9.795400 -12.890900 -15.157200
C -9.397800 -13.090700 -16.019600
O -9.386400 -11.438000 -17.785500
C -8.992900 -11.798900 -16.686200
H -8.604700 -13.627100 -15.863100
O -8.162000 -11.069200 -15.933600
H -7.960100 -10.308100 -16.282100
8
Fragment
N -16.546500 -16.298300 -18.956000
H -16.525300 -17.215300 -18.889700
H -16.469400 -15.987000 -19.818400
C -15.812300 -15.651600 -18.031100
O -15.679500 -16.104100 -16.851900
N -15.229300 -14.492500 -18.385100
H -15.176600 -14.288400 -19.267500
H -14.485800 -13.974900 -17.923500
28
Fragment
H -13.158600 -18.851900 -16.766800
O -12.956600 -18.090800 -17.115400
H -12.514000 -15.532900 -17.185900
C -12.125700 -17.361100 -16.362800
O -11.732300 -17.722000 -15.263400
C -11.720900 -16.069300 -17.029400
H -11.323300 -16.269100 -17.891700
H -11.215000 -13.395700 -16.959400
H -11.094500 -15.099700 -15.313300
C -10.722500 -15.255100 -16.196100
C -10.396100 -13.904900 -16.852900
H -10.024100 -14.060300 -17.735600
H -9.903700 -15.764300 -16.089500
H -9.795400 -12.890900 -15.157200
C -9.397800 -13.090700 -16.019600
O -9.386400 -11.438000 -17.785500
C -8.992900 -11.798900 -16.686200
H -8.604700 -13.627100 -15.863100
O -8.162000 -11.069200 -15.933600
H -7.960100 -10.308100 -16.282100
N -16.546500 -16.298300 -18.956000
H -16.525300 -17.215300 -18.889700
H -16.469400 -15.987000 -19.818400
C -15.812300 -15.651600 -18.031100
O -15.679500 -16.104100 -16.851900
N -15.229300 -14.492500 -18.385100
H -15.176600 -14.288400 -19.267500
H -14.485800 -13.974900 -17.923500
