20
Fragment
H -13.158600 -18.851900 -16.766800
O -12.956600 -18.090800 -17.115400
H -12.514000 -15.532900 -17.185900
C -12.125700 -17.361100 -16.362800
O -11.732300 -17.722000 -15.263400
C -11.720900 -16.069300 -17.029400
H -11.323300 -16.269100 -17.891700
H -11.215000 -13.395700 -16.959400
H -11.094500 -15.099700 -15.313300
C -10.722500 -15.255100 -16.196100
C -10.396100 -13.904900 -16.852900
H -10.024100 -14.060300 -17.735600
H -9.903700 -15.764300 -16.089500
H -9.795400 -12.890900 -15.157200
C -9.397800 -13.090700 -16.019600
O -9.386400 -11.438000 -17.785500
C -8.992900 -11.798900 -16.686200
H -8.604700 -13.627100 -15.863100
O -8.162000 -11.069200 -15.933600
H -7.960100 -10.308100 -16.282100
8
Fragment
N -8.826700 -16.506700 -13.447800
H -8.805500 -15.589700 -13.381500
H -8.749600 -16.818000 -14.310200
C -8.092500 -17.153400 -12.522900
O -7.959800 -16.700900 -11.343700
N -7.509500 -18.312500 -12.877000
H -7.456800 -18.516600 -13.759400
H -6.766000 -18.830100 -12.415400
28
Fragment
H -13.158600 -18.851900 -16.766800
O -12.956600 -18.090800 -17.115400
H -12.514000 -15.532900 -17.185900
C -12.125700 -17.361100 -16.362800
O -11.732300 -17.722000 -15.263400
C -11.720900 -16.069300 -17.029400
H -11.323300 -16.269100 -17.891700
H -11.215000 -13.395700 -16.959400
H -11.094500 -15.099700 -15.313300
C -10.722500 -15.255100 -16.196100
C -10.396100 -13.904900 -16.852900
H -10.024100 -14.060300 -17.735600
H -9.903700 -15.764300 -16.089500
H -9.795400 -12.890900 -15.157200
C -9.397800 -13.090700 -16.019600
O -9.386400 -11.438000 -17.785500
C -8.992900 -11.798900 -16.686200
H -8.604700 -13.627100 -15.863100
O -8.162000 -11.069200 -15.933600
H -7.960100 -10.308100 -16.282100
N -8.826700 -16.506700 -13.447800
H -8.805500 -15.589700 -13.381500
H -8.749600 -16.818000 -14.310200
C -8.092500 -17.153400 -12.522900
O -7.959800 -16.700900 -11.343700
N -7.509500 -18.312500 -12.877000
H -7.456800 -18.516600 -13.759400
H -6.766000 -18.830100 -12.415400
