20
Fragment
H -8.192600 -8.509000 -17.693900
O -7.874800 -7.859600 -18.114000
H -7.519100 -5.406200 -18.655200
O -7.508000 -7.010600 -16.093800
C -7.447100 -6.913700 -17.299800
H -7.140500 -4.345600 -16.551400
C -6.859400 -5.742100 -18.029600
H -6.712100 -3.085500 -18.498500
C -6.410400 -4.597800 -17.138400
H -6.287000 -1.930400 -16.539700
H -6.097200 -6.050400 -18.544100
C -5.973800 -3.383000 -17.945400
H -5.672100 -4.895300 -16.585300
C -5.524800 -2.238700 -17.054200
H -5.243700 -3.635200 -18.532400
C -4.937100 -1.067100 -17.784000
O -4.876200 -0.970200 -18.990000
H -4.865100 -2.574600 -16.428600
O -4.509300 -0.121200 -16.969800
H -4.191500 0.528200 -17.389900
20
Fragment
H -7.934800 -16.201200 -17.693900
O -7.617000 -15.551800 -18.114000
H -7.261200 -13.098400 -18.655200
O -7.250100 -14.702700 -16.093800
C -7.189200 -14.605900 -17.299800
H -6.882600 -12.037800 -16.551400
C -6.601500 -13.434300 -18.029600
H -6.454300 -10.777600 -18.498500
C -6.152500 -12.290000 -17.138400
H -6.029200 -9.622600 -16.539700
H -5.839300 -13.742600 -18.544100
C -5.715900 -11.075100 -17.945400
H -5.414200 -12.587500 -16.585300
C -5.266900 -9.930900 -17.054200
H -4.985800 -11.327400 -18.532400
C -4.679300 -8.759200 -17.784000
O -4.618400 -8.662400 -18.990000
H -4.607200 -10.266800 -16.428600
O -4.251500 -7.813400 -16.969800
H -3.933700 -7.164000 -17.389900
40
Fragment
H -8.192600 -8.509000 -17.693900
O -7.874800 -7.859600 -18.114000
H -7.519100 -5.406200 -18.655200
O -7.508000 -7.010600 -16.093800
C -7.447100 -6.913700 -17.299800
H -7.140500 -4.345600 -16.551400
C -6.859400 -5.742100 -18.029600
H -6.712100 -3.085500 -18.498500
C -6.410400 -4.597800 -17.138400
H -6.287000 -1.930400 -16.539700
H -6.097200 -6.050400 -18.544100
C -5.973800 -3.383000 -17.945400
H -5.672100 -4.895300 -16.585300
C -5.524800 -2.238700 -17.054200
H -5.243700 -3.635200 -18.532400
C -4.937100 -1.067100 -17.784000
O -4.876200 -0.970200 -18.990000
H -4.865100 -2.574600 -16.428600
O -4.509300 -0.121200 -16.969800
H -4.191500 0.528200 -17.389900
H -7.934800 -16.201200 -17.693900
O -7.617000 -15.551800 -18.114000
H -7.261200 -13.098400 -18.655200
O -7.250100 -14.702700 -16.093800
C -7.189200 -14.605900 -17.299800
H -6.882600 -12.037800 -16.551400
C -6.601500 -13.434300 -18.029600
H -6.454300 -10.777600 -18.498500
C -6.152500 -12.290000 -17.138400
H -6.029200 -9.622600 -16.539700
H -5.839300 -13.742600 -18.544100
C -5.715900 -11.075100 -17.945400
H -5.414200 -12.587500 -16.585300
C -5.266900 -9.930900 -17.054200
H -4.985800 -11.327400 -18.532400
C -4.679300 -8.759200 -17.784000
O -4.618400 -8.662400 -18.990000
H -4.607200 -10.266800 -16.428600
O -4.251500 -7.813400 -16.969800
H -3.933700 -7.164000 -17.389900
