12
Fragment
H -10.750200 -13.657800 -29.545600
H -10.649600 -15.932300 -29.072600
C -9.910500 -14.078600 -29.405400
C -9.847800 -15.424300 -29.117400
H -8.755000 -12.411900 -29.697400
C -8.724400 -13.337700 -29.487200
C -8.674200 -16.023300 -28.903300
H -8.643700 -16.949100 -28.693100
C -7.550900 -13.936700 -29.273100
C -7.488200 -15.282400 -28.985000
H -6.749100 -13.428700 -29.317800
H -6.648400 -15.703200 -28.844900
13
Fragment
O -8.294100 -11.698400 -26.415100
O -7.973500 -10.087500 -27.822700
N -7.577300 -10.958500 -27.063200
C -6.141200 -11.140500 -26.963500
O -6.054100 -8.211300 -27.312300
N -5.715400 -12.352200 -26.622700
C -5.071800 -10.286100 -27.252000
N -5.070400 -8.878800 -27.592400
N -4.377900 -12.253300 -26.704700
O -4.061000 -8.457900 -28.139500
C -3.954400 -11.028000 -27.062200
H -3.808700 -12.918800 -26.723400
H -3.054700 -10.741200 -27.161300
25
Fragment
H -10.750200 -13.657800 -29.545600
H -10.649600 -15.932300 -29.072600
C -9.910500 -14.078600 -29.405400
C -9.847800 -15.424300 -29.117400
H -8.755000 -12.411900 -29.697400
C -8.724400 -13.337700 -29.487200
C -8.674200 -16.023300 -28.903300
H -8.643700 -16.949100 -28.693100
C -7.550900 -13.936700 -29.273100
C -7.488200 -15.282400 -28.985000
H -6.749100 -13.428700 -29.317800
H -6.648400 -15.703200 -28.844900
O -8.294100 -11.698400 -26.415100
O -7.973500 -10.087500 -27.822700
N -7.577300 -10.958500 -27.063200
C -6.141200 -11.140500 -26.963500
O -6.054100 -8.211300 -27.312300
N -5.715400 -12.352200 -26.622700
C -5.071800 -10.286100 -27.252000
N -5.070400 -8.878800 -27.592400
N -4.377900 -12.253300 -26.704700
O -4.061000 -8.457900 -28.139500
C -3.954400 -11.028000 -27.062200
H -3.808700 -12.918800 -26.723400
H -3.054700 -10.741200 -27.161300
