12
Fragment
H -10.750200 -13.657800 -29.545600
H -10.649600 -15.932300 -29.072600
C -9.910500 -14.078600 -29.405400
C -9.847800 -15.424300 -29.117400
H -8.755000 -12.411900 -29.697400
C -8.724400 -13.337700 -29.487200
C -8.674200 -16.023300 -28.903300
H -8.643700 -16.949100 -28.693100
C -7.550900 -13.936700 -29.273100
C -7.488200 -15.282400 -28.985000
H -6.749100 -13.428700 -29.317800
H -6.648400 -15.703200 -28.844900
13
Fragment
H -17.761200 -13.350400 -32.996400
H -16.898700 -15.571100 -32.572100
O -16.884900 -10.909600 -33.495900
C -16.853400 -13.615700 -32.902400
N -16.401400 -14.848800 -32.641000
N -15.793800 -11.391100 -33.197900
C -15.748200 -12.814100 -33.007300
N -15.046600 -14.921300 -32.567300
O -14.771800 -10.739300 -33.026000
C -14.665200 -13.688100 -32.789700
N -13.218200 -13.448300 -32.852600
O -12.813200 -12.586100 -33.605300
O -12.528000 -14.173500 -32.147100
25
Fragment
H -10.750200 -13.657800 -29.545600
H -10.649600 -15.932300 -29.072600
C -9.910500 -14.078600 -29.405400
C -9.847800 -15.424300 -29.117400
H -8.755000 -12.411900 -29.697400
C -8.724400 -13.337700 -29.487200
C -8.674200 -16.023300 -28.903300
H -8.643700 -16.949100 -28.693100
C -7.550900 -13.936700 -29.273100
C -7.488200 -15.282400 -28.985000
H -6.749100 -13.428700 -29.317800
H -6.648400 -15.703200 -28.844900
H -17.761200 -13.350400 -32.996400
H -16.898700 -15.571100 -32.572100
O -16.884900 -10.909600 -33.495900
C -16.853400 -13.615700 -32.902400
N -16.401400 -14.848800 -32.641000
N -15.793800 -11.391100 -33.197900
C -15.748200 -12.814100 -33.007300
N -15.046600 -14.921300 -32.567300
O -14.771800 -10.739300 -33.026000
C -14.665200 -13.688100 -32.789700
N -13.218200 -13.448300 -32.852600
O -12.813200 -12.586100 -33.605300
O -12.528000 -14.173500 -32.147100
