12
Fragment
H -10.750200 -13.657800 -29.545600
H -10.649600 -15.932300 -29.072600
C -9.910500 -14.078600 -29.405400
C -9.847800 -15.424300 -29.117400
H -8.755000 -12.411900 -29.697400
C -8.724400 -13.337700 -29.487200
C -8.674200 -16.023300 -28.903300
H -8.643700 -16.949100 -28.693100
C -7.550900 -13.936700 -29.273100
C -7.488200 -15.282400 -28.985000
H -6.749100 -13.428700 -29.317800
H -6.648400 -15.703200 -28.844900
13
Fragment
O -12.328500 -15.187500 -26.243400
O -12.043300 -16.774900 -24.785200
N -11.638400 -15.912700 -25.537800
C -10.191400 -15.672900 -25.600700
O -10.084800 -18.621700 -25.364400
N -9.810000 -14.439700 -25.823200
C -9.108400 -16.546900 -25.383100
N -9.062700 -17.969900 -25.192600
N -8.455200 -14.512200 -25.749400
C -8.003200 -15.745300 -25.488000
O -7.971700 -18.451400 -24.894600
H -7.957900 -13.789900 -25.818300
H -7.095300 -16.010600 -25.394000
25
Fragment
H -10.750200 -13.657800 -29.545600
H -10.649600 -15.932300 -29.072600
C -9.910500 -14.078600 -29.405400
C -9.847800 -15.424300 -29.117400
H -8.755000 -12.411900 -29.697400
C -8.724400 -13.337700 -29.487200
C -8.674200 -16.023300 -28.903300
H -8.643700 -16.949100 -28.693100
C -7.550900 -13.936700 -29.273100
C -7.488200 -15.282400 -28.985000
H -6.749100 -13.428700 -29.317800
H -6.648400 -15.703200 -28.844900
O -12.328500 -15.187500 -26.243400
O -12.043300 -16.774900 -24.785200
N -11.638400 -15.912700 -25.537800
C -10.191400 -15.672900 -25.600700
O -10.084800 -18.621700 -25.364400
N -9.810000 -14.439700 -25.823200
C -9.108400 -16.546900 -25.383100
N -9.062700 -17.969900 -25.192600
N -8.455200 -14.512200 -25.749400
C -8.003200 -15.745300 -25.488000
O -7.971700 -18.451400 -24.894600
H -7.957900 -13.789900 -25.818300
H -7.095300 -16.010600 -25.394000
