12
Fragment
H -10.750200 -13.657800 -29.545600
H -10.649600 -15.932300 -29.072600
C -9.910500 -14.078600 -29.405400
C -9.847800 -15.424300 -29.117400
H -8.755000 -12.411900 -29.697400
C -8.724400 -13.337700 -29.487200
C -8.674200 -16.023300 -28.903300
H -8.643700 -16.949100 -28.693100
C -7.550900 -13.936700 -29.273100
C -7.488200 -15.282400 -28.985000
H -6.749100 -13.428700 -29.317800
H -6.648400 -15.703200 -28.844900
13
Fragment
O -15.752000 -11.698400 -26.415100
O -15.431400 -10.087500 -27.822700
N -15.035200 -10.958500 -27.063200
C -13.599100 -11.140500 -26.963500
O -13.512000 -8.211300 -27.312300
N -13.173300 -12.352200 -26.622700
C -12.529700 -10.286100 -27.252000
N -12.528300 -8.878800 -27.592400
N -11.835800 -12.253300 -26.704700
O -11.518900 -8.457900 -28.139500
C -11.412300 -11.028000 -27.062200
H -11.266600 -12.918800 -26.723400
H -10.512600 -10.741200 -27.161300
25
Fragment
H -10.750200 -13.657800 -29.545600
H -10.649600 -15.932300 -29.072600
C -9.910500 -14.078600 -29.405400
C -9.847800 -15.424300 -29.117400
H -8.755000 -12.411900 -29.697400
C -8.724400 -13.337700 -29.487200
C -8.674200 -16.023300 -28.903300
H -8.643700 -16.949100 -28.693100
C -7.550900 -13.936700 -29.273100
C -7.488200 -15.282400 -28.985000
H -6.749100 -13.428700 -29.317800
H -6.648400 -15.703200 -28.844900
O -15.752000 -11.698400 -26.415100
O -15.431400 -10.087500 -27.822700
N -15.035200 -10.958500 -27.063200
C -13.599100 -11.140500 -26.963500
O -13.512000 -8.211300 -27.312300
N -13.173300 -12.352200 -26.622700
C -12.529700 -10.286100 -27.252000
N -12.528300 -8.878800 -27.592400
N -11.835800 -12.253300 -26.704700
O -11.518900 -8.457900 -28.139500
C -11.412300 -11.028000 -27.062200
H -11.266600 -12.918800 -26.723400
H -10.512600 -10.741200 -27.161300
