12
Fragment
H -10.750200 -13.657800 -29.545600
H -10.649600 -15.932300 -29.072600
C -9.910500 -14.078600 -29.405400
C -9.847800 -15.424300 -29.117400
H -8.755000 -12.411900 -29.697400
C -8.724400 -13.337700 -29.487200
C -8.674200 -16.023300 -28.903300
H -8.643700 -16.949100 -28.693100
C -7.550900 -13.936700 -29.273100
C -7.488200 -15.282400 -28.985000
H -6.749100 -13.428700 -29.317800
H -6.648400 -15.703200 -28.844900
13
Fragment
H -14.343900 -18.619800 -31.229200
H -13.589900 -16.442200 -31.667100
C -13.444300 -18.333000 -31.328200
O -13.337700 -20.903100 -30.250900
N -13.020800 -17.107700 -31.685800
N -12.328300 -20.482200 -30.798000
C -12.326900 -19.074900 -31.138500
N -11.683300 -17.008800 -31.767700
O -11.344600 -21.149700 -31.078100
C -11.257400 -18.220500 -31.426900
N -9.821300 -18.402500 -31.327200
O -9.425100 -19.273500 -30.567800
O -9.104600 -17.662600 -31.975400
25
Fragment
H -10.750200 -13.657800 -29.545600
H -10.649600 -15.932300 -29.072600
C -9.910500 -14.078600 -29.405400
C -9.847800 -15.424300 -29.117400
H -8.755000 -12.411900 -29.697400
C -8.724400 -13.337700 -29.487200
C -8.674200 -16.023300 -28.903300
H -8.643700 -16.949100 -28.693100
C -7.550900 -13.936700 -29.273100
C -7.488200 -15.282400 -28.985000
H -6.749100 -13.428700 -29.317800
H -6.648400 -15.703200 -28.844900
H -14.343900 -18.619800 -31.229200
H -13.589900 -16.442200 -31.667100
C -13.444300 -18.333000 -31.328200
O -13.337700 -20.903100 -30.250900
N -13.020800 -17.107700 -31.685800
N -12.328300 -20.482200 -30.798000
C -12.326900 -19.074900 -31.138500
N -11.683300 -17.008800 -31.767700
O -11.344600 -21.149700 -31.078100
C -11.257400 -18.220500 -31.426900
N -9.821300 -18.402500 -31.327200
O -9.425100 -19.273500 -30.567800
O -9.104600 -17.662600 -31.975400
