20
Fragment
H -21.494700 -12.072000 -13.708600
H -20.806200 -14.342400 -8.970800
H -20.779000 -10.679500 -13.625100
N -20.755700 -12.928500 -11.361100
C -20.679100 -11.622600 -13.475300
C -20.371700 -11.867200 -12.045000
C -20.329600 -13.544000 -8.964300
C -20.230100 -12.741200 -10.087700
O -20.217700 -15.043500 -6.700700
H -19.962300 -11.958400 -14.018600
N -19.743400 -13.914600 -6.627900
C -19.679500 -13.088800 -7.831600
N -19.628000 -10.992100 -11.305100
C -19.515900 -11.520800 -10.045000
H -19.357600 -10.190600 -11.631000
O -19.308600 -13.432600 -5.578900
C -18.955500 -11.887900 -7.771000
C -18.871500 -11.081800 -8.885700
H -18.533500 -11.637300 -6.980500
H -18.404600 -10.277800 -8.867200
20
Fragment
H -18.562300 -11.285700 -4.112100
H -17.873800 -13.556100 0.625700
H -17.846600 -9.893200 -4.028600
N -17.823300 -12.142200 -1.764600
C -17.746700 -10.836300 -3.878800
C -17.439300 -11.080900 -2.448500
C -17.397200 -12.757700 0.632200
C -17.297700 -11.955000 -0.491100
O -17.285300 -14.257300 2.895800
H -17.029900 -11.172100 -4.422100
N -16.811000 -13.128300 2.968600
C -16.747200 -12.302500 1.764900
N -16.695600 -10.205800 -1.708600
C -16.583500 -10.734500 -0.448400
H -16.425200 -9.404300 -2.034500
O -16.376200 -12.646300 4.017600
C -16.023100 -11.101600 1.825500
C -15.939100 -10.295600 0.710800
H -15.601100 -10.851100 2.616000
H -15.472200 -9.491500 0.729300
40
Fragment
H -21.494700 -12.072000 -13.708600
H -20.806200 -14.342400 -8.970800
H -20.779000 -10.679500 -13.625100
N -20.755700 -12.928500 -11.361100
C -20.679100 -11.622600 -13.475300
C -20.371700 -11.867200 -12.045000
C -20.329600 -13.544000 -8.964300
C -20.230100 -12.741200 -10.087700
O -20.217700 -15.043500 -6.700700
H -19.962300 -11.958400 -14.018600
N -19.743400 -13.914600 -6.627900
C -19.679500 -13.088800 -7.831600
N -19.628000 -10.992100 -11.305100
C -19.515900 -11.520800 -10.045000
H -19.357600 -10.190600 -11.631000
O -19.308600 -13.432600 -5.578900
C -18.955500 -11.887900 -7.771000
C -18.871500 -11.081800 -8.885700
H -18.533500 -11.637300 -6.980500
H -18.404600 -10.277800 -8.867200
H -18.562300 -11.285700 -4.112100
H -17.873800 -13.556100 0.625700
H -17.846600 -9.893200 -4.028600
N -17.823300 -12.142200 -1.764600
C -17.746700 -10.836300 -3.878800
C -17.439300 -11.080900 -2.448500
C -17.397200 -12.757700 0.632200
C -17.297700 -11.955000 -0.491100
O -17.285300 -14.257300 2.895800
H -17.029900 -11.172100 -4.422100
N -16.811000 -13.128300 2.968600
C -16.747200 -12.302500 1.764900
N -16.695600 -10.205800 -1.708600
C -16.583500 -10.734500 -0.448400
H -16.425200 -9.404300 -2.034500
O -16.376200 -12.646300 4.017600
C -16.023100 -11.101600 1.825500
C -15.939100 -10.295600 0.710800
H -15.601100 -10.851100 2.616000
H -15.472200 -9.491500 0.729300
