20
Fragment
H -21.494700 -12.072000 -13.708600
H -20.806200 -14.342400 -8.970800
H -20.779000 -10.679500 -13.625100
N -20.755700 -12.928500 -11.361100
C -20.679100 -11.622600 -13.475300
C -20.371700 -11.867200 -12.045000
C -20.329600 -13.544000 -8.964300
C -20.230100 -12.741200 -10.087700
O -20.217700 -15.043500 -6.700700
H -19.962300 -11.958400 -14.018600
N -19.743400 -13.914600 -6.627900
C -19.679500 -13.088800 -7.831600
N -19.628000 -10.992100 -11.305100
C -19.515900 -11.520800 -10.045000
H -19.357600 -10.190600 -11.631000
O -19.308600 -13.432600 -5.578900
C -18.955500 -11.887900 -7.771000
C -18.871500 -11.081800 -8.885700
H -18.533500 -11.637300 -6.980500
H -18.404600 -10.277800 -8.867200
20
Fragment
H -23.261400 -11.061500 -10.325800
H -23.132500 -9.701900 -12.212500
C -22.794400 -10.257400 -10.307300
C -22.710500 -9.451400 -11.422100
O -22.357300 -7.906700 -13.614100
H -22.308400 -11.148700 -7.562100
C -22.150100 -9.818500 -9.148100
N -22.038000 -10.347200 -7.888000
C -21.986400 -8.250500 -11.361400
N -21.922600 -7.424700 -12.565100
H -21.703600 -9.380900 -5.174400
O -21.448200 -6.295700 -12.492400
C -21.435900 -8.598000 -9.105400
C -21.336300 -7.795300 -10.228700
C -21.294200 -9.472100 -7.148100
C -20.986800 -9.716700 -5.717700
N -20.910300 -8.410800 -7.831900
H -20.886900 -10.659800 -5.567900
H -20.859800 -6.996900 -10.222200
H -20.171300 -9.267300 -5.484400
40
Fragment
H -21.494700 -12.072000 -13.708600
H -20.806200 -14.342400 -8.970800
H -20.779000 -10.679500 -13.625100
N -20.755700 -12.928500 -11.361100
C -20.679100 -11.622600 -13.475300
C -20.371700 -11.867200 -12.045000
C -20.329600 -13.544000 -8.964300
C -20.230100 -12.741200 -10.087700
O -20.217700 -15.043500 -6.700700
H -19.962300 -11.958400 -14.018600
N -19.743400 -13.914600 -6.627900
C -19.679500 -13.088800 -7.831600
N -19.628000 -10.992100 -11.305100
C -19.515900 -11.520800 -10.045000
H -19.357600 -10.190600 -11.631000
O -19.308600 -13.432600 -5.578900
C -18.955500 -11.887900 -7.771000
C -18.871500 -11.081800 -8.885700
H -18.533500 -11.637300 -6.980500
H -18.404600 -10.277800 -8.867200
H -23.261400 -11.061500 -10.325800
H -23.132500 -9.701900 -12.212500
C -22.794400 -10.257400 -10.307300
C -22.710500 -9.451400 -11.422100
O -22.357300 -7.906700 -13.614100
H -22.308400 -11.148700 -7.562100
C -22.150100 -9.818500 -9.148100
N -22.038000 -10.347200 -7.888000
C -21.986400 -8.250500 -11.361400
N -21.922600 -7.424700 -12.565100
H -21.703600 -9.380900 -5.174400
O -21.448200 -6.295700 -12.492400
C -21.435900 -8.598000 -9.105400
C -21.336300 -7.795300 -10.228700
C -21.294200 -9.472100 -7.148100
C -20.986800 -9.716700 -5.717700
N -20.910300 -8.410800 -7.831900
H -20.886900 -10.659800 -5.567900
H -20.859800 -6.996900 -10.222200
H -20.171300 -9.267300 -5.484400
