20
Fragment
H -21.494700 -12.072000 -13.708600
H -20.806200 -14.342400 -8.970800
H -20.779000 -10.679500 -13.625100
N -20.755700 -12.928500 -11.361100
C -20.679100 -11.622600 -13.475300
C -20.371700 -11.867200 -12.045000
C -20.329600 -13.544000 -8.964300
C -20.230100 -12.741200 -10.087700
O -20.217700 -15.043500 -6.700700
H -19.962300 -11.958400 -14.018600
N -19.743400 -13.914600 -6.627900
C -19.679500 -13.088800 -7.831600
N -19.628000 -10.992100 -11.305100
C -19.515900 -11.520800 -10.045000
H -19.357600 -10.190600 -11.631000
O -19.308600 -13.432600 -5.578900
C -18.955500 -11.887900 -7.771000
C -18.871500 -11.081800 -8.885700
H -18.533500 -11.637300 -6.980500
H -18.404600 -10.277800 -8.867200
20
Fragment
H -23.055900 -16.864100 -0.729300
H -22.927000 -15.504500 -2.616000
C -22.589000 -16.060000 -0.710800
C -22.505000 -15.254000 -1.825500
O -22.151800 -13.709300 -4.017600
H -22.102900 -16.951300 2.034500
C -21.944600 -15.621100 0.448400
N -21.832500 -16.149800 1.708600
C -21.780900 -14.053100 -1.764900
N -21.717100 -13.227300 -2.968600
H -21.498100 -15.183500 4.422100
O -21.242800 -12.098300 -2.895800
C -21.230400 -14.400700 0.491100
C -21.130900 -13.597900 -0.632200
C -21.088800 -15.274700 2.448500
C -20.781400 -15.519300 3.878800
N -20.704800 -14.213400 1.764600
H -20.681500 -16.462400 4.028600
H -20.654300 -12.799500 -0.625700
H -19.965800 -15.069900 4.112100
40
Fragment
H -21.494700 -12.072000 -13.708600
H -20.806200 -14.342400 -8.970800
H -20.779000 -10.679500 -13.625100
N -20.755700 -12.928500 -11.361100
C -20.679100 -11.622600 -13.475300
C -20.371700 -11.867200 -12.045000
C -20.329600 -13.544000 -8.964300
C -20.230100 -12.741200 -10.087700
O -20.217700 -15.043500 -6.700700
H -19.962300 -11.958400 -14.018600
N -19.743400 -13.914600 -6.627900
C -19.679500 -13.088800 -7.831600
N -19.628000 -10.992100 -11.305100
C -19.515900 -11.520800 -10.045000
H -19.357600 -10.190600 -11.631000
O -19.308600 -13.432600 -5.578900
C -18.955500 -11.887900 -7.771000
C -18.871500 -11.081800 -8.885700
H -18.533500 -11.637300 -6.980500
H -18.404600 -10.277800 -8.867200
H -23.055900 -16.864100 -0.729300
H -22.927000 -15.504500 -2.616000
C -22.589000 -16.060000 -0.710800
C -22.505000 -15.254000 -1.825500
O -22.151800 -13.709300 -4.017600
H -22.102900 -16.951300 2.034500
C -21.944600 -15.621100 0.448400
N -21.832500 -16.149800 1.708600
C -21.780900 -14.053100 -1.764900
N -21.717100 -13.227300 -2.968600
H -21.498100 -15.183500 4.422100
O -21.242800 -12.098300 -2.895800
C -21.230400 -14.400700 0.491100
C -21.130900 -13.597900 -0.632200
C -21.088800 -15.274700 2.448500
C -20.781400 -15.519300 3.878800
N -20.704800 -14.213400 1.764600
H -20.681500 -16.462400 4.028600
H -20.654300 -12.799500 -0.625700
H -19.965800 -15.069900 4.112100
