27
Fragment
N -3.519500 -12.790300 -8.944000
H -3.154700 -13.656500 -11.923400
O -3.073700 -15.311100 -14.031300
H -3.067200 -16.109700 -13.598500
C -2.673900 -13.454500 -9.326700
H -2.608600 -12.938800 -14.576500
N -2.404400 -14.085300 -12.112000
C -2.063200 -14.528100 -13.470600
H -1.822500 -14.544100 -16.137100
C -1.769400 -13.373200 -14.410700
C -1.615500 -14.246100 -9.842100
C -1.539200 -14.506100 -11.194900
H -1.181600 -12.709200 -13.946000
C -1.117700 -13.903900 -15.687500
H -0.954100 -13.151900 -16.314000
C -0.783500 -15.287900 -13.223400
C -0.673900 -14.756100 -8.907300
H -0.625400 -16.507300 -14.860500
C -0.492800 -15.255500 -11.915700
C -0.048500 -15.800800 -14.398500
N 0.074000 -15.153000 -8.138900
C 0.174900 -14.641800 -15.381800
H 0.563400 -14.961100 -16.241200
C 0.684300 -15.801900 -11.323300
H 0.786400 -16.196000 -14.113500
H 0.863500 -13.991500 -14.971900
N 1.636300 -16.240900 -10.882100
27
Fragment
N -7.572300 -8.467200 -20.330900
H -6.799500 -10.716600 -16.241200
H -6.722400 -8.512100 -17.099600
C -6.620300 -8.906100 -19.889800
H -6.499400 -9.747000 -14.971900
C -6.111000 -10.066300 -15.831300
N -6.010000 -9.555100 -23.074100
C -5.887500 -8.907300 -16.814600
C -5.443200 -9.452600 -19.297400
H -5.310600 -8.200800 -16.352500
C -5.262200 -9.952000 -22.305800
C -5.152500 -9.420200 -17.989600
H -4.981900 -11.556200 -14.899000
C -4.818300 -10.804200 -15.525600
H -4.754500 -11.998900 -17.267100
C -4.396800 -10.202000 -20.018200
C -4.320500 -10.462000 -21.371000
C -4.166600 -11.334900 -16.802400
H -4.113500 -10.164000 -15.075900
C -3.872800 -10.180000 -17.742400
N -3.531700 -10.622800 -19.101000
H -3.327400 -11.769300 -16.636600
C -3.262200 -11.253600 -21.886400
H -2.868800 -8.598400 -17.614600
O -2.862300 -9.396900 -17.181700
H -2.781300 -11.051600 -19.289700
N -2.416500 -11.917800 -22.269100
54
Fragment
N -3.519500 -12.790300 -8.944000
H -3.154700 -13.656500 -11.923400
O -3.073700 -15.311100 -14.031300
H -3.067200 -16.109700 -13.598500
C -2.673900 -13.454500 -9.326700
H -2.608600 -12.938800 -14.576500
N -2.404400 -14.085300 -12.112000
C -2.063200 -14.528100 -13.470600
H -1.822500 -14.544100 -16.137100
C -1.769400 -13.373200 -14.410700
C -1.615500 -14.246100 -9.842100
C -1.539200 -14.506100 -11.194900
H -1.181600 -12.709200 -13.946000
C -1.117700 -13.903900 -15.687500
H -0.954100 -13.151900 -16.314000
C -0.783500 -15.287900 -13.223400
C -0.673900 -14.756100 -8.907300
H -0.625400 -16.507300 -14.860500
C -0.492800 -15.255500 -11.915700
C -0.048500 -15.800800 -14.398500
N 0.074000 -15.153000 -8.138900
C 0.174900 -14.641800 -15.381800
H 0.563400 -14.961100 -16.241200
C 0.684300 -15.801900 -11.323300
H 0.786400 -16.196000 -14.113500
H 0.863500 -13.991500 -14.971900
N 1.636300 -16.240900 -10.882100
N -7.572300 -8.467200 -20.330900
H -6.799500 -10.716600 -16.241200
H -6.722400 -8.512100 -17.099600
C -6.620300 -8.906100 -19.889800
H -6.499400 -9.747000 -14.971900
C -6.111000 -10.066300 -15.831300
N -6.010000 -9.555100 -23.074100
C -5.887500 -8.907300 -16.814600
C -5.443200 -9.452600 -19.297400
H -5.310600 -8.200800 -16.352500
C -5.262200 -9.952000 -22.305800
C -5.152500 -9.420200 -17.989600
H -4.981900 -11.556200 -14.899000
C -4.818300 -10.804200 -15.525600
H -4.754500 -11.998900 -17.267100
C -4.396800 -10.202000 -20.018200
C -4.320500 -10.462000 -21.371000
C -4.166600 -11.334900 -16.802400
H -4.113500 -10.164000 -15.075900
C -3.872800 -10.180000 -17.742400
N -3.531700 -10.622800 -19.101000
H -3.327400 -11.769300 -16.636600
C -3.262200 -11.253600 -21.886400
H -2.868800 -8.598400 -17.614600
O -2.862300 -9.396900 -17.181700
H -2.781300 -11.051600 -19.289700
N -2.416500 -11.917800 -22.269100
