27
Fragment
N -3.519500 -12.790300 -8.944000
H -3.154700 -13.656500 -11.923400
O -3.073700 -15.311100 -14.031300
H -3.067200 -16.109700 -13.598500
C -2.673900 -13.454500 -9.326700
H -2.608600 -12.938800 -14.576500
N -2.404400 -14.085300 -12.112000
C -2.063200 -14.528100 -13.470600
H -1.822500 -14.544100 -16.137100
C -1.769400 -13.373200 -14.410700
C -1.615500 -14.246100 -9.842100
C -1.539200 -14.506100 -11.194900
H -1.181600 -12.709200 -13.946000
C -1.117700 -13.903900 -15.687500
H -0.954100 -13.151900 -16.314000
C -0.783500 -15.287900 -13.223400
C -0.673900 -14.756100 -8.907300
H -0.625400 -16.507300 -14.860500
C -0.492800 -15.255500 -11.915700
C -0.048500 -15.800800 -14.398500
N 0.074000 -15.153000 -8.138900
C 0.174900 -14.641800 -15.381800
H 0.563400 -14.961100 -16.241200
C 0.684300 -15.801900 -11.323300
H 0.786400 -16.196000 -14.113500
H 0.863500 -13.991500 -14.971900
N 1.636300 -16.240900 -10.882100
27
Fragment
N 4.549100 -17.843100 -9.926600
H 5.321900 -20.092400 -5.836800
H 5.399000 -17.888000 -6.695200
C 5.501100 -18.282000 -9.485400
H 5.622000 -19.122900 -4.567500
C 6.010400 -19.442100 -5.426900
N 6.111400 -18.930900 -12.669800
C 6.233900 -18.283100 -6.410200
C 6.678200 -18.828400 -8.893000
H 6.810800 -17.576700 -5.948200
C 6.859200 -19.327900 -11.901400
C 6.968900 -18.796100 -7.585300
H 7.139500 -20.932100 -4.494700
C 7.303100 -20.180100 -5.121200
H 7.366900 -21.374700 -6.862700
C 7.724600 -19.577900 -9.613800
C 7.800900 -19.837900 -10.966600
C 7.954800 -20.710700 -6.398100
H 8.007900 -19.539900 -4.671600
C 8.248600 -19.555800 -7.338100
N 8.589700 -19.998700 -8.696700
H 8.794000 -21.145100 -6.232200
C 8.859200 -20.629500 -11.482000
H 9.252600 -17.974200 -7.210200
O 9.259100 -18.772800 -6.777400
H 9.340100 -20.427400 -8.885300
N 9.704900 -21.293600 -11.864700
54
Fragment
N -3.519500 -12.790300 -8.944000
H -3.154700 -13.656500 -11.923400
O -3.073700 -15.311100 -14.031300
H -3.067200 -16.109700 -13.598500
C -2.673900 -13.454500 -9.326700
H -2.608600 -12.938800 -14.576500
N -2.404400 -14.085300 -12.112000
C -2.063200 -14.528100 -13.470600
H -1.822500 -14.544100 -16.137100
C -1.769400 -13.373200 -14.410700
C -1.615500 -14.246100 -9.842100
C -1.539200 -14.506100 -11.194900
H -1.181600 -12.709200 -13.946000
C -1.117700 -13.903900 -15.687500
H -0.954100 -13.151900 -16.314000
C -0.783500 -15.287900 -13.223400
C -0.673900 -14.756100 -8.907300
H -0.625400 -16.507300 -14.860500
C -0.492800 -15.255500 -11.915700
C -0.048500 -15.800800 -14.398500
N 0.074000 -15.153000 -8.138900
C 0.174900 -14.641800 -15.381800
H 0.563400 -14.961100 -16.241200
C 0.684300 -15.801900 -11.323300
H 0.786400 -16.196000 -14.113500
H 0.863500 -13.991500 -14.971900
N 1.636300 -16.240900 -10.882100
N 4.549100 -17.843100 -9.926600
H 5.321900 -20.092400 -5.836800
H 5.399000 -17.888000 -6.695200
C 5.501100 -18.282000 -9.485400
H 5.622000 -19.122900 -4.567500
C 6.010400 -19.442100 -5.426900
N 6.111400 -18.930900 -12.669800
C 6.233900 -18.283100 -6.410200
C 6.678200 -18.828400 -8.893000
H 6.810800 -17.576700 -5.948200
C 6.859200 -19.327900 -11.901400
C 6.968900 -18.796100 -7.585300
H 7.139500 -20.932100 -4.494700
C 7.303100 -20.180100 -5.121200
H 7.366900 -21.374700 -6.862700
C 7.724600 -19.577900 -9.613800
C 7.800900 -19.837900 -10.966600
C 7.954800 -20.710700 -6.398100
H 8.007900 -19.539900 -4.671600
C 8.248600 -19.555800 -7.338100
N 8.589700 -19.998700 -8.696700
H 8.794000 -21.145100 -6.232200
C 8.859200 -20.629500 -11.482000
H 9.252600 -17.974200 -7.210200
O 9.259100 -18.772800 -6.777400
H 9.340100 -20.427400 -8.885300
N 9.704900 -21.293600 -11.864700
