14
Fragment
H -10.612600 -34.615400 -22.476700
H -10.603300 -32.601200 -18.443800
N -10.273600 -35.369300 -22.138000
N -10.242700 -34.324900 -20.097900
N -10.197700 -33.268200 -18.073200
H -10.034300 -36.047000 -22.633100
C -9.976600 -35.424800 -20.825100
C -9.932000 -34.371900 -18.781000
H -9.847500 -33.119100 -17.269500
C -9.409600 -36.566700 -20.237600
N -9.400100 -35.425300 -18.124200
H -9.213100 -37.344200 -20.746700
C -9.152500 -36.502700 -18.891100
H -8.775600 -37.267000 -18.473400
16
Fragment
H -12.771400 -34.819600 -25.325100
H -12.551500 -34.603000 -27.521900
H -12.078800 -32.439300 -27.702200
C -11.835800 -34.604000 -25.565400
C -11.700900 -34.391800 -27.062500
C -11.410900 -33.290400 -24.938400
H -11.385500 -30.440100 -25.991500
C -11.344900 -32.924100 -27.247400
O -11.328500 -33.076700 -23.727400
H -11.249800 -35.342400 -25.262300
N -11.149300 -32.417700 -25.904500
H -10.988200 -34.971400 -27.432900
C -10.710000 -31.069500 -25.660600
H -10.582300 -30.935500 -24.698600
H -10.517900 -32.827700 -27.783200
H -9.862700 -30.913100 -26.127300
30
Fragment
H -10.612600 -34.615400 -22.476700
H -10.603300 -32.601200 -18.443800
N -10.273600 -35.369300 -22.138000
N -10.242700 -34.324900 -20.097900
N -10.197700 -33.268200 -18.073200
H -10.034300 -36.047000 -22.633100
C -9.976600 -35.424800 -20.825100
C -9.932000 -34.371900 -18.781000
H -9.847500 -33.119100 -17.269500
C -9.409600 -36.566700 -20.237600
N -9.400100 -35.425300 -18.124200
H -9.213100 -37.344200 -20.746700
C -9.152500 -36.502700 -18.891100
H -8.775600 -37.267000 -18.473400
H -12.771400 -34.819600 -25.325100
H -12.551500 -34.603000 -27.521900
H -12.078800 -32.439300 -27.702200
C -11.835800 -34.604000 -25.565400
C -11.700900 -34.391800 -27.062500
C -11.410900 -33.290400 -24.938400
H -11.385500 -30.440100 -25.991500
C -11.344900 -32.924100 -27.247400
O -11.328500 -33.076700 -23.727400
H -11.249800 -35.342400 -25.262300
N -11.149300 -32.417700 -25.904500
H -10.988200 -34.971400 -27.432900
C -10.710000 -31.069500 -25.660600
H -10.582300 -30.935500 -24.698600
H -10.517900 -32.827700 -27.783200
H -9.862700 -30.913100 -26.127300
