14
Fragment
H -10.612600 -34.615400 -22.476700
H -10.603300 -32.601200 -18.443800
N -10.273600 -35.369300 -22.138000
N -10.242700 -34.324900 -20.097900
N -10.197700 -33.268200 -18.073200
H -10.034300 -36.047000 -22.633100
C -9.976600 -35.424800 -20.825100
C -9.932000 -34.371900 -18.781000
H -9.847500 -33.119100 -17.269500
C -9.409600 -36.566700 -20.237600
N -9.400100 -35.425300 -18.124200
H -9.213100 -37.344200 -20.746700
C -9.152500 -36.502700 -18.891100
H -8.775600 -37.267000 -18.473400
14
Fragment
H -13.059500 -26.650600 -20.228600
H -12.882000 -28.077200 -18.216700
N -12.715900 -27.312100 -20.723700
H -12.563700 -27.151100 -21.566000
C -12.543400 -28.738500 -18.808600
C -12.428800 -28.503300 -20.189100
H -12.193900 -30.121400 -17.429300
C -12.146400 -29.956300 -18.363500
N -12.006500 -29.474300 -21.020400
N -11.689100 -30.949200 -19.153600
C -11.676300 -30.652900 -20.463700
H -11.320300 -31.515600 -22.152600
N -11.274300 -31.642400 -21.283400
H -11.053200 -32.456800 -20.970400
28
Fragment
H -10.612600 -34.615400 -22.476700
H -10.603300 -32.601200 -18.443800
N -10.273600 -35.369300 -22.138000
N -10.242700 -34.324900 -20.097900
N -10.197700 -33.268200 -18.073200
H -10.034300 -36.047000 -22.633100
C -9.976600 -35.424800 -20.825100
C -9.932000 -34.371900 -18.781000
H -9.847500 -33.119100 -17.269500
C -9.409600 -36.566700 -20.237600
N -9.400100 -35.425300 -18.124200
H -9.213100 -37.344200 -20.746700
C -9.152500 -36.502700 -18.891100
H -8.775600 -37.267000 -18.473400
H -13.059500 -26.650600 -20.228600
H -12.882000 -28.077200 -18.216700
N -12.715900 -27.312100 -20.723700
H -12.563700 -27.151100 -21.566000
C -12.543400 -28.738500 -18.808600
C -12.428800 -28.503300 -20.189100
H -12.193900 -30.121400 -17.429300
C -12.146400 -29.956300 -18.363500
N -12.006500 -29.474300 -21.020400
N -11.689100 -30.949200 -19.153600
C -11.676300 -30.652900 -20.463700
H -11.320300 -31.515600 -22.152600
N -11.274300 -31.642400 -21.283400
H -11.053200 -32.456800 -20.970400
