14
Fragment
H -10.612600 -34.615400 -22.476700
H -10.603300 -32.601200 -18.443800
N -10.273600 -35.369300 -22.138000
N -10.242700 -34.324900 -20.097900
N -10.197700 -33.268200 -18.073200
H -10.034300 -36.047000 -22.633100
C -9.976600 -35.424800 -20.825100
C -9.932000 -34.371900 -18.781000
H -9.847500 -33.119100 -17.269500
C -9.409600 -36.566700 -20.237600
N -9.400100 -35.425300 -18.124200
H -9.213100 -37.344200 -20.746700
C -9.152500 -36.502700 -18.891100
H -8.775600 -37.267000 -18.473400
16
Fragment
H -14.900100 -33.955600 -21.400600
H -14.676400 -35.912600 -22.427600
H -14.408800 -34.393800 -19.264300
C -13.971300 -34.287500 -21.316700
C -13.814900 -35.626300 -22.033600
C -13.625300 -34.556400 -19.847700
H -13.583800 -36.701800 -17.997600
C -13.365000 -36.596800 -20.982600
H -13.356900 -33.614500 -21.700700
N -13.241700 -35.954900 -19.820400
O -13.150100 -37.804300 -21.157000
H -13.142100 -35.559000 -22.756300
H -12.878300 -33.980500 -19.549600
C -12.816200 -36.599000 -18.597700
H -12.444900 -37.481100 -18.805500
H -12.130600 -36.052000 -18.160800
30
Fragment
H -10.612600 -34.615400 -22.476700
H -10.603300 -32.601200 -18.443800
N -10.273600 -35.369300 -22.138000
N -10.242700 -34.324900 -20.097900
N -10.197700 -33.268200 -18.073200
H -10.034300 -36.047000 -22.633100
C -9.976600 -35.424800 -20.825100
C -9.932000 -34.371900 -18.781000
H -9.847500 -33.119100 -17.269500
C -9.409600 -36.566700 -20.237600
N -9.400100 -35.425300 -18.124200
H -9.213100 -37.344200 -20.746700
C -9.152500 -36.502700 -18.891100
H -8.775600 -37.267000 -18.473400
H -14.900100 -33.955600 -21.400600
H -14.676400 -35.912600 -22.427600
H -14.408800 -34.393800 -19.264300
C -13.971300 -34.287500 -21.316700
C -13.814900 -35.626300 -22.033600
C -13.625300 -34.556400 -19.847700
H -13.583800 -36.701800 -17.997600
C -13.365000 -36.596800 -20.982600
H -13.356900 -33.614500 -21.700700
N -13.241700 -35.954900 -19.820400
O -13.150100 -37.804300 -21.157000
H -13.142100 -35.559000 -22.756300
H -12.878300 -33.980500 -19.549600
C -12.816200 -36.599000 -18.597700
H -12.444900 -37.481100 -18.805500
H -12.130600 -36.052000 -18.160800
