14
Fragment
H -10.612600 -34.615400 -22.476700
H -10.603300 -32.601200 -18.443800
N -10.273600 -35.369300 -22.138000
N -10.242700 -34.324900 -20.097900
N -10.197700 -33.268200 -18.073200
H -10.034300 -36.047000 -22.633100
C -9.976600 -35.424800 -20.825100
C -9.932000 -34.371900 -18.781000
H -9.847500 -33.119100 -17.269500
C -9.409600 -36.566700 -20.237600
N -9.400100 -35.425300 -18.124200
H -9.213100 -37.344200 -20.746700
C -9.152500 -36.502700 -18.891100
H -8.775600 -37.267000 -18.473400
16
Fragment
H -14.542900 -34.819600 -13.913300
H -14.323000 -34.603000 -16.110100
H -13.850300 -32.439300 -16.290400
C -13.607300 -34.604000 -14.153600
C -13.472400 -34.391800 -15.650700
C -13.182400 -33.290400 -13.526500
H -13.157000 -30.440100 -14.579700
C -13.116500 -32.924100 -15.835600
O -13.100000 -33.076700 -12.315600
H -13.021300 -35.342400 -13.850500
N -12.920900 -32.417700 -14.492700
H -12.759700 -34.971400 -16.021000
C -12.481500 -31.069500 -14.248800
H -12.353900 -30.935500 -13.286800
H -12.289400 -32.827700 -16.371400
H -11.634200 -30.913100 -14.715500
30
Fragment
H -10.612600 -34.615400 -22.476700
H -10.603300 -32.601200 -18.443800
N -10.273600 -35.369300 -22.138000
N -10.242700 -34.324900 -20.097900
N -10.197700 -33.268200 -18.073200
H -10.034300 -36.047000 -22.633100
C -9.976600 -35.424800 -20.825100
C -9.932000 -34.371900 -18.781000
H -9.847500 -33.119100 -17.269500
C -9.409600 -36.566700 -20.237600
N -9.400100 -35.425300 -18.124200
H -9.213100 -37.344200 -20.746700
C -9.152500 -36.502700 -18.891100
H -8.775600 -37.267000 -18.473400
H -14.542900 -34.819600 -13.913300
H -14.323000 -34.603000 -16.110100
H -13.850300 -32.439300 -16.290400
C -13.607300 -34.604000 -14.153600
C -13.472400 -34.391800 -15.650700
C -13.182400 -33.290400 -13.526500
H -13.157000 -30.440100 -14.579700
C -13.116500 -32.924100 -15.835600
O -13.100000 -33.076700 -12.315600
H -13.021300 -35.342400 -13.850500
N -12.920900 -32.417700 -14.492700
H -12.759700 -34.971400 -16.021000
C -12.481500 -31.069500 -14.248800
H -12.353900 -30.935500 -13.286800
H -12.289400 -32.827700 -16.371400
H -11.634200 -30.913100 -14.715500
