14
Fragment
H -10.612600 -34.615400 -22.476700
H -10.603300 -32.601200 -18.443800
N -10.273600 -35.369300 -22.138000
N -10.242700 -34.324900 -20.097900
N -10.197700 -33.268200 -18.073200
H -10.034300 -36.047000 -22.633100
C -9.976600 -35.424800 -20.825100
C -9.932000 -34.371900 -18.781000
H -9.847500 -33.119100 -17.269500
C -9.409600 -36.566700 -20.237600
N -9.400100 -35.425300 -18.124200
H -9.213100 -37.344200 -20.746700
C -9.152500 -36.502700 -18.891100
H -8.775600 -37.267000 -18.473400
16
Fragment
H -12.599200 -43.780300 -19.519900
H -11.944000 -41.865700 -17.864100
H -11.879500 -43.757900 -20.948700
C -11.751800 -43.623900 -19.986700
H -11.473700 -39.722000 -18.214400
N -11.312500 -42.275700 -19.742800
H -11.212100 -39.351000 -20.384900
O -11.133400 -41.616700 -21.919800
C -11.116900 -41.769300 -18.399800
H -11.076300 -44.253300 -19.655700
C -11.051000 -41.403000 -20.708900
C -10.761000 -40.301600 -18.584700
C -10.626100 -40.089400 -20.081800
H -10.383100 -42.254100 -17.945100
H -9.910400 -40.090400 -18.125400
H -9.690500 -39.873800 -20.322200
30
Fragment
H -10.612600 -34.615400 -22.476700
H -10.603300 -32.601200 -18.443800
N -10.273600 -35.369300 -22.138000
N -10.242700 -34.324900 -20.097900
N -10.197700 -33.268200 -18.073200
H -10.034300 -36.047000 -22.633100
C -9.976600 -35.424800 -20.825100
C -9.932000 -34.371900 -18.781000
H -9.847500 -33.119100 -17.269500
C -9.409600 -36.566700 -20.237600
N -9.400100 -35.425300 -18.124200
H -9.213100 -37.344200 -20.746700
C -9.152500 -36.502700 -18.891100
H -8.775600 -37.267000 -18.473400
H -12.599200 -43.780300 -19.519900
H -11.944000 -41.865700 -17.864100
H -11.879500 -43.757900 -20.948700
C -11.751800 -43.623900 -19.986700
H -11.473700 -39.722000 -18.214400
N -11.312500 -42.275700 -19.742800
H -11.212100 -39.351000 -20.384900
O -11.133400 -41.616700 -21.919800
C -11.116900 -41.769300 -18.399800
H -11.076300 -44.253300 -19.655700
C -11.051000 -41.403000 -20.708900
C -10.761000 -40.301600 -18.584700
C -10.626100 -40.089400 -20.081800
H -10.383100 -42.254100 -17.945100
H -9.910400 -40.090400 -18.125400
H -9.690500 -39.873800 -20.322200
