14
Fragment
H -10.870900 -10.246300 -23.550000
H -10.634200 -11.732700 -23.902700
N -10.463000 -11.029500 -23.385300
C -9.164900 -10.940300 -23.005700
N -8.777600 -9.753800 -22.504400
N -8.394700 -12.035100 -23.140300
H -7.768700 -7.843500 -21.534500
C -7.505500 -9.637700 -22.106000
N -7.139700 -8.433800 -21.629600
C -7.125300 -11.876300 -22.725000
C -6.614400 -10.723300 -22.208100
H -6.542000 -12.622400 -22.797300
H -6.310600 -8.290800 -21.356900
H -5.708300 -10.655400 -21.931900
14
Fragment
H -12.312000 -12.761000 -20.944500
O -12.234000 -14.677200 -20.392800
H -11.673800 -16.548500 -19.987000
C -11.661500 -13.506300 -20.987100
H -11.459800 -13.683900 -21.940100
C -11.282800 -15.748300 -20.419400
H -11.071100 -15.979200 -21.358200
H -10.612200 -12.883600 -19.331800
C -10.400600 -13.114500 -20.270700
H -10.223600 -15.178900 -18.750000
C -10.021800 -15.356500 -19.702900
H -10.009500 -12.314300 -20.703100
O -9.449400 -14.185600 -20.297300
H -9.371400 -16.101800 -19.745500
28
Fragment
H -10.870900 -10.246300 -23.550000
H -10.634200 -11.732700 -23.902700
N -10.463000 -11.029500 -23.385300
C -9.164900 -10.940300 -23.005700
N -8.777600 -9.753800 -22.504400
N -8.394700 -12.035100 -23.140300
H -7.768700 -7.843500 -21.534500
C -7.505500 -9.637700 -22.106000
N -7.139700 -8.433800 -21.629600
C -7.125300 -11.876300 -22.725000
C -6.614400 -10.723300 -22.208100
H -6.542000 -12.622400 -22.797300
H -6.310600 -8.290800 -21.356900
H -5.708300 -10.655400 -21.931900
H -12.312000 -12.761000 -20.944500
O -12.234000 -14.677200 -20.392800
H -11.673800 -16.548500 -19.987000
C -11.661500 -13.506300 -20.987100
H -11.459800 -13.683900 -21.940100
C -11.282800 -15.748300 -20.419400
H -11.071100 -15.979200 -21.358200
H -10.612200 -12.883600 -19.331800
C -10.400600 -13.114500 -20.270700
H -10.223600 -15.178900 -18.750000
C -10.021800 -15.356500 -19.702900
H -10.009500 -12.314300 -20.703100
O -9.449400 -14.185600 -20.297300
H -9.371400 -16.101800 -19.745500
