14
Fragment
H -10.870900 -10.246300 -23.550000
H -10.634200 -11.732700 -23.902700
N -10.463000 -11.029500 -23.385300
C -9.164900 -10.940300 -23.005700
N -8.777600 -9.753800 -22.504400
N -8.394700 -12.035100 -23.140300
H -7.768700 -7.843500 -21.534500
C -7.505500 -9.637700 -22.106000
N -7.139700 -8.433800 -21.629600
C -7.125300 -11.876300 -22.725000
C -6.614400 -10.723300 -22.208100
H -6.542000 -12.622400 -22.797300
H -6.310600 -8.290800 -21.356900
H -5.708300 -10.655400 -21.931900
14
Fragment
H -10.870900 -3.030600 -23.550000
H -10.634200 -4.517000 -23.902700
N -10.463000 -3.813800 -23.385300
C -9.164900 -3.724600 -23.005700
N -8.777600 -2.538100 -22.504400
N -8.394700 -4.819400 -23.140300
H -7.768700 -0.627800 -21.534500
C -7.505500 -2.422000 -22.106000
N -7.139700 -1.218100 -21.629600
C -7.125300 -4.660600 -22.725000
C -6.614400 -3.507600 -22.208100
H -6.542000 -5.406700 -22.797300
H -6.310600 -1.075100 -21.356900
H -5.708300 -3.439700 -21.931900
28
Fragment
H -10.870900 -10.246300 -23.550000
H -10.634200 -11.732700 -23.902700
N -10.463000 -11.029500 -23.385300
C -9.164900 -10.940300 -23.005700
N -8.777600 -9.753800 -22.504400
N -8.394700 -12.035100 -23.140300
H -7.768700 -7.843500 -21.534500
C -7.505500 -9.637700 -22.106000
N -7.139700 -8.433800 -21.629600
C -7.125300 -11.876300 -22.725000
C -6.614400 -10.723300 -22.208100
H -6.542000 -12.622400 -22.797300
H -6.310600 -8.290800 -21.356900
H -5.708300 -10.655400 -21.931900
H -10.870900 -3.030600 -23.550000
H -10.634200 -4.517000 -23.902700
N -10.463000 -3.813800 -23.385300
C -9.164900 -3.724600 -23.005700
N -8.777600 -2.538100 -22.504400
N -8.394700 -4.819400 -23.140300
H -7.768700 -0.627800 -21.534500
C -7.505500 -2.422000 -22.106000
N -7.139700 -1.218100 -21.629600
C -7.125300 -4.660600 -22.725000
C -6.614400 -3.507600 -22.208100
H -6.542000 -5.406700 -22.797300
H -6.310600 -1.075100 -21.356900
H -5.708300 -3.439700 -21.931900
