14
Fragment
H -10.612600 -34.615400 -22.476700
H -10.603300 -32.601200 -18.443800
N -10.273600 -35.369300 -22.138000
N -10.242700 -34.324900 -20.097900
N -10.197700 -33.268200 -18.073200
H -10.034300 -36.047000 -22.633100
C -9.976600 -35.424800 -20.825100
C -9.932000 -34.371900 -18.781000
H -9.847500 -33.119100 -17.269500
C -9.409600 -36.566700 -20.237600
N -9.400100 -35.425300 -18.124200
H -9.213100 -37.344200 -20.746700
C -9.152500 -36.502700 -18.891100
H -8.775600 -37.267000 -18.473400
14
Fragment
H -10.251700 -35.593900 -14.522700
H -10.074300 -34.167300 -12.510800
N -9.908200 -34.932400 -15.017800
H -9.756000 -35.093400 -15.860100
C -9.735700 -33.506000 -13.102700
C -9.621100 -33.741200 -14.483200
H -9.386200 -32.123100 -11.723400
C -9.338700 -32.288200 -12.657600
N -9.198800 -32.770200 -15.314500
N -8.881400 -31.295300 -13.447700
C -8.868600 -31.591600 -14.757800
H -8.512600 -30.728900 -16.446700
N -8.466500 -30.602100 -15.577500
H -8.245500 -29.787700 -15.264400
28
Fragment
H -10.612600 -34.615400 -22.476700
H -10.603300 -32.601200 -18.443800
N -10.273600 -35.369300 -22.138000
N -10.242700 -34.324900 -20.097900
N -10.197700 -33.268200 -18.073200
H -10.034300 -36.047000 -22.633100
C -9.976600 -35.424800 -20.825100
C -9.932000 -34.371900 -18.781000
H -9.847500 -33.119100 -17.269500
C -9.409600 -36.566700 -20.237600
N -9.400100 -35.425300 -18.124200
H -9.213100 -37.344200 -20.746700
C -9.152500 -36.502700 -18.891100
H -8.775600 -37.267000 -18.473400
H -10.251700 -35.593900 -14.522700
H -10.074300 -34.167300 -12.510800
N -9.908200 -34.932400 -15.017800
H -9.756000 -35.093400 -15.860100
C -9.735700 -33.506000 -13.102700
C -9.621100 -33.741200 -14.483200
H -9.386200 -32.123100 -11.723400
C -9.338700 -32.288200 -12.657600
N -9.198800 -32.770200 -15.314500
N -8.881400 -31.295300 -13.447700
C -8.868600 -31.591600 -14.757800
H -8.512600 -30.728900 -16.446700
N -8.466500 -30.602100 -15.577500
H -8.245500 -29.787700 -15.264400
