14
Fragment
H -10.870900 -10.246300 -23.550000
H -10.634200 -11.732700 -23.902700
N -10.463000 -11.029500 -23.385300
C -9.164900 -10.940300 -23.005700
N -8.777600 -9.753800 -22.504400
N -8.394700 -12.035100 -23.140300
H -7.768700 -7.843500 -21.534500
C -7.505500 -9.637700 -22.106000
N -7.139700 -8.433800 -21.629600
C -7.125300 -11.876300 -22.725000
C -6.614400 -10.723300 -22.208100
H -6.542000 -12.622400 -22.797300
H -6.310600 -8.290800 -21.356900
H -5.708300 -10.655400 -21.931900
14
Fragment
H -14.503400 -7.047600 -25.539800
H -13.901100 -4.683000 -26.114900
H -13.669800 -9.014600 -24.674400
C -13.597300 -7.115400 -25.263600
C -13.086500 -8.268500 -24.746700
N -13.072100 -4.825900 -25.842100
C -12.706200 -6.029900 -25.365800
H -12.443000 -4.235600 -25.937200
N -11.817100 -8.427200 -24.331400
N -11.434200 -6.146000 -24.967300
C -11.046800 -7.332500 -24.466000
N -9.748800 -7.421600 -24.086500
H -9.577600 -8.124900 -23.569000
H -9.340900 -6.638400 -23.921700
28
Fragment
H -10.870900 -10.246300 -23.550000
H -10.634200 -11.732700 -23.902700
N -10.463000 -11.029500 -23.385300
C -9.164900 -10.940300 -23.005700
N -8.777600 -9.753800 -22.504400
N -8.394700 -12.035100 -23.140300
H -7.768700 -7.843500 -21.534500
C -7.505500 -9.637700 -22.106000
N -7.139700 -8.433800 -21.629600
C -7.125300 -11.876300 -22.725000
C -6.614400 -10.723300 -22.208100
H -6.542000 -12.622400 -22.797300
H -6.310600 -8.290800 -21.356900
H -5.708300 -10.655400 -21.931900
H -14.503400 -7.047600 -25.539800
H -13.901100 -4.683000 -26.114900
H -13.669800 -9.014600 -24.674400
C -13.597300 -7.115400 -25.263600
C -13.086500 -8.268500 -24.746700
N -13.072100 -4.825900 -25.842100
C -12.706200 -6.029900 -25.365800
H -12.443000 -4.235600 -25.937200
N -11.817100 -8.427200 -24.331400
N -11.434200 -6.146000 -24.967300
C -11.046800 -7.332500 -24.466000
N -9.748800 -7.421600 -24.086500
H -9.577600 -8.124900 -23.569000
H -9.340900 -6.638400 -23.921700
