12
Fragment
H -26.646200 -13.343300 -43.278900
H -26.311000 -15.783400 -44.295300
C -25.688100 -13.357900 -43.071100
H -25.560000 -13.629400 -42.136900
H -25.458800 -15.981200 -42.956300
C -25.424100 -15.686300 -43.889900
H -25.310200 -12.463800 -43.204700
N -25.019300 -14.300200 -43.942700
H -24.779000 -16.234400 -44.383800
C -24.066900 -13.920700 -44.766700
H -23.833600 -13.000200 -44.749300
O -23.454100 -14.620600 -45.545000
32
Fragment
H -22.888100 -11.579100 -52.537700
H -22.488100 -13.367400 -47.484400
H -22.394900 -12.941100 -51.858200
H -22.385400 -11.578400 -51.018800
C -22.251200 -11.972500 -51.904800
H -21.958500 -13.790700 -48.931800
H -21.898400 -12.258700 -48.475000
C -21.816700 -13.187800 -48.173800
H -21.422600 -10.604700 -53.942400
H -20.960900 -14.112600 -45.754200
N -20.888200 -11.704700 -52.356100
H -20.766400 -12.011200 -54.330600
C -20.715800 -11.246300 -53.721400
N -20.467000 -13.407500 -47.616800
C -20.280300 -13.884200 -46.377200
N -20.102900 -12.460900 -50.331700
H -19.841600 -10.813500 -53.813900
C -19.829200 -12.012000 -51.581900
C -19.225800 -13.199500 -48.222900
C -19.033500 -12.714100 -49.593600
O -19.030000 -14.811100 -44.036700
C -18.924400 -13.982700 -46.170800
N -18.602500 -11.852100 -52.095800
N -18.312600 -14.503100 -44.997100
C -18.266400 -13.552800 -47.320800
N -17.754900 -12.583500 -49.973900
C -17.609200 -12.160900 -51.253500
H -17.326200 -13.512600 -47.453000
O -17.080000 -14.618400 -44.988200
N -16.357500 -12.044800 -51.712000
H -16.214700 -11.774700 -52.537700
H -15.677200 -12.238200 -51.187300
44
Fragment
H -26.646200 -13.343300 -43.278900
H -26.311000 -15.783400 -44.295300
C -25.688100 -13.357900 -43.071100
H -25.560000 -13.629400 -42.136900
H -25.458800 -15.981200 -42.956300
C -25.424100 -15.686300 -43.889900
H -25.310200 -12.463800 -43.204700
N -25.019300 -14.300200 -43.942700
H -24.779000 -16.234400 -44.383800
C -24.066900 -13.920700 -44.766700
H -23.833600 -13.000200 -44.749300
O -23.454100 -14.620600 -45.545000
H -22.888100 -11.579100 -52.537700
H -22.488100 -13.367400 -47.484400
H -22.394900 -12.941100 -51.858200
H -22.385400 -11.578400 -51.018800
C -22.251200 -11.972500 -51.904800
H -21.958500 -13.790700 -48.931800
H -21.898400 -12.258700 -48.475000
C -21.816700 -13.187800 -48.173800
H -21.422600 -10.604700 -53.942400
H -20.960900 -14.112600 -45.754200
N -20.888200 -11.704700 -52.356100
H -20.766400 -12.011200 -54.330600
C -20.715800 -11.246300 -53.721400
N -20.467000 -13.407500 -47.616800
C -20.280300 -13.884200 -46.377200
N -20.102900 -12.460900 -50.331700
H -19.841600 -10.813500 -53.813900
C -19.829200 -12.012000 -51.581900
C -19.225800 -13.199500 -48.222900
C -19.033500 -12.714100 -49.593600
O -19.030000 -14.811100 -44.036700
C -18.924400 -13.982700 -46.170800
N -18.602500 -11.852100 -52.095800
N -18.312600 -14.503100 -44.997100
C -18.266400 -13.552800 -47.320800
N -17.754900 -12.583500 -49.973900
C -17.609200 -12.160900 -51.253500
H -17.326200 -13.512600 -47.453000
O -17.080000 -14.618400 -44.988200
N -16.357500 -12.044800 -51.712000
H -16.214700 -11.774700 -52.537700
H -15.677200 -12.238200 -51.187300
