19
Fragment
O -14.911800 -20.127100 -21.343200
N -13.796100 -20.138500 -21.861100
H -13.741700 -20.012000 -19.248900
O -13.614500 -20.186500 -23.070500
O -13.066800 -19.743100 -16.917500
C -12.862400 -20.004400 -19.608700
C -12.626500 -20.064500 -20.972100
N -11.927200 -19.846900 -17.344600
C -11.742800 -19.932900 -18.804000
C -11.365800 -20.035300 -21.544000
H -11.252500 -20.064600 -22.486800
O -10.922900 -19.866400 -16.646800
C -10.451700 -19.920100 -19.305500
C -10.266400 -19.961300 -20.685300
H -9.705600 -19.883700 -18.718500
C -8.864000 -19.918200 -21.209400
O -8.783100 -20.019400 -22.512700
H -7.926600 -20.011300 -22.732200
O -7.913400 -19.793100 -20.450700
19
Fragment
H -11.746400 -16.541000 -15.699000
O -11.731000 -16.965200 -17.980900
O -10.888600 -16.551400 -15.937600
C -10.796300 -16.745700 -17.226300
H -9.934800 -16.883000 -19.708100
C -9.389500 -16.688100 -17.745100
C -9.194400 -16.802600 -19.118300
O -8.710900 -17.028100 -21.763800
H -8.419700 -16.451900 -15.951600
C -8.297500 -16.542400 -16.889200
C -7.899400 -16.797000 -19.607500
N -7.708000 -16.922900 -21.062200
C -7.029400 -16.533200 -17.447500
C -6.784200 -16.672300 -18.801500
O -6.561200 -16.914200 -21.494600
O -6.074500 -16.099900 -15.379400
H -5.902700 -16.681700 -19.155900
N -5.872100 -16.380700 -16.550100
O -4.754400 -16.561700 -17.033600
38
Fragment
O -14.911800 -20.127100 -21.343200
N -13.796100 -20.138500 -21.861100
H -13.741700 -20.012000 -19.248900
O -13.614500 -20.186500 -23.070500
O -13.066800 -19.743100 -16.917500
C -12.862400 -20.004400 -19.608700
C -12.626500 -20.064500 -20.972100
N -11.927200 -19.846900 -17.344600
C -11.742800 -19.932900 -18.804000
C -11.365800 -20.035300 -21.544000
H -11.252500 -20.064600 -22.486800
O -10.922900 -19.866400 -16.646800
C -10.451700 -19.920100 -19.305500
C -10.266400 -19.961300 -20.685300
H -9.705600 -19.883700 -18.718500
C -8.864000 -19.918200 -21.209400
O -8.783100 -20.019400 -22.512700
H -7.926600 -20.011300 -22.732200
O -7.913400 -19.793100 -20.450700
H -11.746400 -16.541000 -15.699000
O -11.731000 -16.965200 -17.980900
O -10.888600 -16.551400 -15.937600
C -10.796300 -16.745700 -17.226300
H -9.934800 -16.883000 -19.708100
C -9.389500 -16.688100 -17.745100
C -9.194400 -16.802600 -19.118300
O -8.710900 -17.028100 -21.763800
H -8.419700 -16.451900 -15.951600
C -8.297500 -16.542400 -16.889200
C -7.899400 -16.797000 -19.607500
N -7.708000 -16.922900 -21.062200
C -7.029400 -16.533200 -17.447500
C -6.784200 -16.672300 -18.801500
O -6.561200 -16.914200 -21.494600
O -6.074500 -16.099900 -15.379400
H -5.902700 -16.681700 -19.155900
N -5.872100 -16.380700 -16.550100
O -4.754400 -16.561700 -17.033600
