19
Fragment
O -14.911800 -20.127100 -21.343200
N -13.796100 -20.138500 -21.861100
H -13.741700 -20.012000 -19.248900
O -13.614500 -20.186500 -23.070500
O -13.066800 -19.743100 -16.917500
C -12.862400 -20.004400 -19.608700
C -12.626500 -20.064500 -20.972100
N -11.927200 -19.846900 -17.344600
C -11.742800 -19.932900 -18.804000
C -11.365800 -20.035300 -21.544000
H -11.252500 -20.064600 -22.486800
O -10.922900 -19.866400 -16.646800
C -10.451700 -19.920100 -19.305500
C -10.266400 -19.961300 -20.685300
H -9.705600 -19.883700 -18.718500
C -8.864000 -19.918200 -21.209400
O -8.783100 -20.019400 -22.512700
H -7.926600 -20.011300 -22.732200
O -7.913400 -19.793100 -20.450700
19
Fragment
H -11.336600 -23.070400 -18.035100
O -11.315400 -23.324300 -20.379400
O -10.484200 -23.185000 -18.298400
C -10.384400 -23.230500 -19.597900
H -9.491000 -23.182800 -22.072500
C -8.968500 -23.124400 -20.095700
C -8.758200 -23.129600 -21.470400
O -8.223500 -23.158700 -24.120000
H -8.033700 -22.973400 -18.275300
C -7.896300 -22.995400 -19.215100
C -7.456700 -23.055500 -21.944500
N -7.239600 -23.093200 -23.404100
C -6.623200 -22.900400 -19.754100
C -6.356700 -22.940900 -21.112400
O -6.084900 -23.076300 -23.808400
O -5.705200 -22.520700 -17.657300
N -5.481000 -22.742700 -18.834900
H -5.471200 -22.892800 -21.453000
O -4.353600 -22.835900 -19.318800
38
Fragment
O -14.911800 -20.127100 -21.343200
N -13.796100 -20.138500 -21.861100
H -13.741700 -20.012000 -19.248900
O -13.614500 -20.186500 -23.070500
O -13.066800 -19.743100 -16.917500
C -12.862400 -20.004400 -19.608700
C -12.626500 -20.064500 -20.972100
N -11.927200 -19.846900 -17.344600
C -11.742800 -19.932900 -18.804000
C -11.365800 -20.035300 -21.544000
H -11.252500 -20.064600 -22.486800
O -10.922900 -19.866400 -16.646800
C -10.451700 -19.920100 -19.305500
C -10.266400 -19.961300 -20.685300
H -9.705600 -19.883700 -18.718500
C -8.864000 -19.918200 -21.209400
O -8.783100 -20.019400 -22.512700
H -7.926600 -20.011300 -22.732200
O -7.913400 -19.793100 -20.450700
H -11.336600 -23.070400 -18.035100
O -11.315400 -23.324300 -20.379400
O -10.484200 -23.185000 -18.298400
C -10.384400 -23.230500 -19.597900
H -9.491000 -23.182800 -22.072500
C -8.968500 -23.124400 -20.095700
C -8.758200 -23.129600 -21.470400
O -8.223500 -23.158700 -24.120000
H -8.033700 -22.973400 -18.275300
C -7.896300 -22.995400 -19.215100
C -7.456700 -23.055500 -21.944500
N -7.239600 -23.093200 -23.404100
C -6.623200 -22.900400 -19.754100
C -6.356700 -22.940900 -21.112400
O -6.084900 -23.076300 -23.808400
O -5.705200 -22.520700 -17.657300
N -5.481000 -22.742700 -18.834900
H -5.471200 -22.892800 -21.453000
O -4.353600 -22.835900 -19.318800
