19
Fragment
O -14.911800 -20.127100 -21.343200
N -13.796100 -20.138500 -21.861100
H -13.741700 -20.012000 -19.248900
O -13.614500 -20.186500 -23.070500
O -13.066800 -19.743100 -16.917500
C -12.862400 -20.004400 -19.608700
C -12.626500 -20.064500 -20.972100
N -11.927200 -19.846900 -17.344600
C -11.742800 -19.932900 -18.804000
C -11.365800 -20.035300 -21.544000
H -11.252500 -20.064600 -22.486800
O -10.922900 -19.866400 -16.646800
C -10.451700 -19.920100 -19.305500
C -10.266400 -19.961300 -20.685300
H -9.705600 -19.883700 -18.718500
C -8.864000 -19.918200 -21.209400
O -8.783100 -20.019400 -22.512700
H -7.926600 -20.011300 -22.732200
O -7.913400 -19.793100 -20.450700
19
Fragment
O -18.275300 -16.790200 -24.647900
H -17.157700 -16.847100 -22.513700
N -17.147900 -16.697000 -25.131800
O -16.923700 -16.475000 -26.309400
O -16.544000 -17.030600 -20.158300
C -16.272100 -16.895200 -22.854300
C -16.005700 -16.854700 -24.212600
N -15.389300 -17.047500 -20.562600
C -15.172200 -17.009800 -22.022200
C -14.732600 -16.949700 -24.751600
H -14.595200 -16.927700 -25.691400
O -14.405300 -17.113000 -19.846700
C -13.870700 -17.083900 -22.496300
C -13.660400 -17.078700 -23.871000
H -13.137800 -17.137100 -21.894200
C -12.244500 -17.184800 -24.368800
O -12.144600 -17.139300 -25.668300
O -11.313500 -17.278600 -23.587300
H -11.292300 -17.024700 -25.931600
38
Fragment
O -14.911800 -20.127100 -21.343200
N -13.796100 -20.138500 -21.861100
H -13.741700 -20.012000 -19.248900
O -13.614500 -20.186500 -23.070500
O -13.066800 -19.743100 -16.917500
C -12.862400 -20.004400 -19.608700
C -12.626500 -20.064500 -20.972100
N -11.927200 -19.846900 -17.344600
C -11.742800 -19.932900 -18.804000
C -11.365800 -20.035300 -21.544000
H -11.252500 -20.064600 -22.486800
O -10.922900 -19.866400 -16.646800
C -10.451700 -19.920100 -19.305500
C -10.266400 -19.961300 -20.685300
H -9.705600 -19.883700 -18.718500
C -8.864000 -19.918200 -21.209400
O -8.783100 -20.019400 -22.512700
H -7.926600 -20.011300 -22.732200
O -7.913400 -19.793100 -20.450700
O -18.275300 -16.790200 -24.647900
H -17.157700 -16.847100 -22.513700
N -17.147900 -16.697000 -25.131800
O -16.923700 -16.475000 -26.309400
O -16.544000 -17.030600 -20.158300
C -16.272100 -16.895200 -22.854300
C -16.005700 -16.854700 -24.212600
N -15.389300 -17.047500 -20.562600
C -15.172200 -17.009800 -22.022200
C -14.732600 -16.949700 -24.751600
H -14.595200 -16.927700 -25.691400
O -14.405300 -17.113000 -19.846700
C -13.870700 -17.083900 -22.496300
C -13.660400 -17.078700 -23.871000
H -13.137800 -17.137100 -21.894200
C -12.244500 -17.184800 -24.368800
O -12.144600 -17.139300 -25.668300
O -11.313500 -17.278600 -23.587300
H -11.292300 -17.024700 -25.931600
