12
Fragment
H -26.646200 -13.343300 -43.278900
H -26.311000 -15.783400 -44.295300
C -25.688100 -13.357900 -43.071100
H -25.560000 -13.629400 -42.136900
H -25.458800 -15.981200 -42.956300
C -25.424100 -15.686300 -43.889900
H -25.310200 -12.463800 -43.204700
N -25.019300 -14.300200 -43.942700
H -24.779000 -16.234400 -44.383800
C -24.066900 -13.920700 -44.766700
H -23.833600 -13.000200 -44.749300
O -23.454100 -14.620600 -45.545000
32
Fragment
H -31.752800 -16.957800 -34.462700
H -31.215300 -17.421300 -33.112300
N -31.072500 -17.151200 -33.938000
O -30.350000 -14.577600 -40.661800
H -30.103800 -15.683400 -38.197000
C -29.820800 -17.035100 -34.396500
N -29.675100 -16.612500 -35.676100
C -29.163600 -15.643200 -38.329200
N -29.117400 -14.692900 -40.652900
N -28.827500 -17.343900 -33.554200
C -28.505600 -15.213300 -39.479200
O -28.400000 -14.384900 -41.613300
C -28.396500 -16.481900 -36.056400
C -28.204200 -15.996500 -37.427100
C -27.600800 -17.184000 -34.068100
H -27.588400 -18.382500 -31.836100
N -27.327100 -16.735100 -35.318300
C -27.149700 -15.311800 -39.272800
N -26.963000 -15.788500 -38.033200
C -26.714200 -17.949700 -31.928600
H -26.663600 -17.184800 -31.319300
N -26.541800 -17.491300 -33.293900
H -26.469100 -15.083400 -39.895800
H -26.007400 -18.591300 -31.707600
C -25.613300 -16.008200 -37.476200
H -25.531600 -16.937300 -37.175000
H -25.471500 -15.405300 -36.718200
C -25.178800 -17.223500 -33.745200
H -25.044600 -17.617600 -34.631100
H -25.035100 -16.254900 -33.791800
H -24.941900 -15.828600 -38.165600
H -24.541900 -17.616900 -33.112300
44
Fragment
H -26.646200 -13.343300 -43.278900
H -26.311000 -15.783400 -44.295300
C -25.688100 -13.357900 -43.071100
H -25.560000 -13.629400 -42.136900
H -25.458800 -15.981200 -42.956300
C -25.424100 -15.686300 -43.889900
H -25.310200 -12.463800 -43.204700
N -25.019300 -14.300200 -43.942700
H -24.779000 -16.234400 -44.383800
C -24.066900 -13.920700 -44.766700
H -23.833600 -13.000200 -44.749300
O -23.454100 -14.620600 -45.545000
H -31.752800 -16.957800 -34.462700
H -31.215300 -17.421300 -33.112300
N -31.072500 -17.151200 -33.938000
O -30.350000 -14.577600 -40.661800
H -30.103800 -15.683400 -38.197000
C -29.820800 -17.035100 -34.396500
N -29.675100 -16.612500 -35.676100
C -29.163600 -15.643200 -38.329200
N -29.117400 -14.692900 -40.652900
N -28.827500 -17.343900 -33.554200
C -28.505600 -15.213300 -39.479200
O -28.400000 -14.384900 -41.613300
C -28.396500 -16.481900 -36.056400
C -28.204200 -15.996500 -37.427100
C -27.600800 -17.184000 -34.068100
H -27.588400 -18.382500 -31.836100
N -27.327100 -16.735100 -35.318300
C -27.149700 -15.311800 -39.272800
N -26.963000 -15.788500 -38.033200
C -26.714200 -17.949700 -31.928600
H -26.663600 -17.184800 -31.319300
N -26.541800 -17.491300 -33.293900
H -26.469100 -15.083400 -39.895800
H -26.007400 -18.591300 -31.707600
C -25.613300 -16.008200 -37.476200
H -25.531600 -16.937300 -37.175000
H -25.471500 -15.405300 -36.718200
C -25.178800 -17.223500 -33.745200
H -25.044600 -17.617600 -34.631100
H -25.035100 -16.254900 -33.791800
H -24.941900 -15.828600 -38.165600
H -24.541900 -17.616900 -33.112300
