19
Fragment
O -14.911800 -20.127100 -21.343200
N -13.796100 -20.138500 -21.861100
H -13.741700 -20.012000 -19.248900
O -13.614500 -20.186500 -23.070500
O -13.066800 -19.743100 -16.917500
C -12.862400 -20.004400 -19.608700
C -12.626500 -20.064500 -20.972100
N -11.927200 -19.846900 -17.344600
C -11.742800 -19.932900 -18.804000
C -11.365800 -20.035300 -21.544000
H -11.252500 -20.064600 -22.486800
O -10.922900 -19.866400 -16.646800
C -10.451700 -19.920100 -19.305500
C -10.266400 -19.961300 -20.685300
H -9.705600 -19.883700 -18.718500
C -8.864000 -19.918200 -21.209400
O -8.783100 -20.019400 -22.512700
H -7.926600 -20.011300 -22.732200
O -7.913400 -19.793100 -20.450700
19
Fragment
O -17.874500 -22.607400 -26.933100
N -16.756800 -22.426400 -27.416600
H -16.726100 -22.727400 -24.810800
O -16.554400 -22.145600 -28.587300
O -16.067700 -22.959900 -22.472100
C -15.844700 -22.718000 -25.165200
C -15.599400 -22.578900 -26.519200
N -14.920800 -22.968600 -22.904500
C -14.729400 -22.842700 -24.359200
C -14.331400 -22.588100 -27.077500
H -14.209200 -22.497600 -28.015100
O -13.918000 -23.073800 -22.202900
C -13.434500 -22.848300 -24.848400
C -13.239300 -22.733800 -26.221600
H -12.694100 -22.928700 -24.258600
C -11.832600 -22.791400 -26.740400
O -11.740300 -22.597100 -28.029100
O -10.897900 -23.010900 -25.985800
H -10.882500 -22.586700 -28.267700
38
Fragment
O -14.911800 -20.127100 -21.343200
N -13.796100 -20.138500 -21.861100
H -13.741700 -20.012000 -19.248900
O -13.614500 -20.186500 -23.070500
O -13.066800 -19.743100 -16.917500
C -12.862400 -20.004400 -19.608700
C -12.626500 -20.064500 -20.972100
N -11.927200 -19.846900 -17.344600
C -11.742800 -19.932900 -18.804000
C -11.365800 -20.035300 -21.544000
H -11.252500 -20.064600 -22.486800
O -10.922900 -19.866400 -16.646800
C -10.451700 -19.920100 -19.305500
C -10.266400 -19.961300 -20.685300
H -9.705600 -19.883700 -18.718500
C -8.864000 -19.918200 -21.209400
O -8.783100 -20.019400 -22.512700
H -7.926600 -20.011300 -22.732200
O -7.913400 -19.793100 -20.450700
O -17.874500 -22.607400 -26.933100
N -16.756800 -22.426400 -27.416600
H -16.726100 -22.727400 -24.810800
O -16.554400 -22.145600 -28.587300
O -16.067700 -22.959900 -22.472100
C -15.844700 -22.718000 -25.165200
C -15.599400 -22.578900 -26.519200
N -14.920800 -22.968600 -22.904500
C -14.729400 -22.842700 -24.359200
C -14.331400 -22.588100 -27.077500
H -14.209200 -22.497600 -28.015100
O -13.918000 -23.073800 -22.202900
C -13.434500 -22.848300 -24.848400
C -13.239300 -22.733800 -26.221600
H -12.694100 -22.928700 -24.258600
C -11.832600 -22.791400 -26.740400
O -11.740300 -22.597100 -28.029100
O -10.897900 -23.010900 -25.985800
H -10.882500 -22.586700 -28.267700
