19
Fragment
O -14.911800 -20.127100 -21.343200
N -13.796100 -20.138500 -21.861100
H -13.741700 -20.012000 -19.248900
O -13.614500 -20.186500 -23.070500
O -13.066800 -19.743100 -16.917500
C -12.862400 -20.004400 -19.608700
C -12.626500 -20.064500 -20.972100
N -11.927200 -19.846900 -17.344600
C -11.742800 -19.932900 -18.804000
C -11.365800 -20.035300 -21.544000
H -11.252500 -20.064600 -22.486800
O -10.922900 -19.866400 -16.646800
C -10.451700 -19.920100 -19.305500
C -10.266400 -19.961300 -20.685300
H -9.705600 -19.883700 -18.718500
C -8.864000 -19.918200 -21.209400
O -8.783100 -20.019400 -22.512700
H -7.926600 -20.011300 -22.732200
O -7.913400 -19.793100 -20.450700
8
Fragment
H -16.207800 -16.190400 -15.243300
N -15.445900 -16.246700 -14.839500
H -15.386800 -16.226700 -13.971200
H -15.177100 -16.589400 -17.256900
N -14.434100 -16.629300 -16.867100
C -14.329500 -16.447700 -15.548400
H -13.748900 -16.782900 -17.321400
O -13.204500 -16.456500 -14.973200
27
Fragment
O -14.911800 -20.127100 -21.343200
N -13.796100 -20.138500 -21.861100
H -13.741700 -20.012000 -19.248900
O -13.614500 -20.186500 -23.070500
O -13.066800 -19.743100 -16.917500
C -12.862400 -20.004400 -19.608700
C -12.626500 -20.064500 -20.972100
N -11.927200 -19.846900 -17.344600
C -11.742800 -19.932900 -18.804000
C -11.365800 -20.035300 -21.544000
H -11.252500 -20.064600 -22.486800
O -10.922900 -19.866400 -16.646800
C -10.451700 -19.920100 -19.305500
C -10.266400 -19.961300 -20.685300
H -9.705600 -19.883700 -18.718500
C -8.864000 -19.918200 -21.209400
O -8.783100 -20.019400 -22.512700
H -7.926600 -20.011300 -22.732200
O -7.913400 -19.793100 -20.450700
H -16.207800 -16.190400 -15.243300
N -15.445900 -16.246700 -14.839500
H -15.386800 -16.226700 -13.971200
H -15.177100 -16.589400 -17.256900
N -14.434100 -16.629300 -16.867100
C -14.329500 -16.447700 -15.548400
H -13.748900 -16.782900 -17.321400
O -13.204500 -16.456500 -14.973200
