12
Fragment
H -26.646200 -13.343300 -43.278900
H -26.311000 -15.783400 -44.295300
C -25.688100 -13.357900 -43.071100
H -25.560000 -13.629400 -42.136900
H -25.458800 -15.981200 -42.956300
C -25.424100 -15.686300 -43.889900
H -25.310200 -12.463800 -43.204700
N -25.019300 -14.300200 -43.942700
H -24.779000 -16.234400 -44.383800
C -24.066900 -13.920700 -44.766700
H -23.833600 -13.000200 -44.749300
O -23.454100 -14.620600 -45.545000
12
Fragment
O -31.880900 -10.971100 -45.545000
H -31.501400 -9.350700 -44.749300
C -31.268100 -10.271200 -44.766700
H -30.556000 -12.584900 -44.383800
N -30.315700 -10.650700 -43.942700
H -30.024800 -8.814300 -43.204700
C -29.910900 -12.036800 -43.889900
H -29.876200 -12.331700 -42.956300
H -29.775000 -9.979900 -42.136900
C -29.646900 -9.708400 -43.071100
H -29.024000 -12.133900 -44.295300
H -28.688800 -9.693800 -43.278900
24
Fragment
H -26.646200 -13.343300 -43.278900
H -26.311000 -15.783400 -44.295300
C -25.688100 -13.357900 -43.071100
H -25.560000 -13.629400 -42.136900
H -25.458800 -15.981200 -42.956300
C -25.424100 -15.686300 -43.889900
H -25.310200 -12.463800 -43.204700
N -25.019300 -14.300200 -43.942700
H -24.779000 -16.234400 -44.383800
C -24.066900 -13.920700 -44.766700
H -23.833600 -13.000200 -44.749300
O -23.454100 -14.620600 -45.545000
O -31.880900 -10.971100 -45.545000
H -31.501400 -9.350700 -44.749300
C -31.268100 -10.271200 -44.766700
H -30.556000 -12.584900 -44.383800
N -30.315700 -10.650700 -43.942700
H -30.024800 -8.814300 -43.204700
C -29.910900 -12.036800 -43.889900
H -29.876200 -12.331700 -42.956300
H -29.775000 -9.979900 -42.136900
C -29.646900 -9.708400 -43.071100
H -29.024000 -12.133900 -44.295300
H -28.688800 -9.693800 -43.278900
