19
Fragment
O -14.911800 -20.127100 -21.343200
N -13.796100 -20.138500 -21.861100
H -13.741700 -20.012000 -19.248900
O -13.614500 -20.186500 -23.070500
O -13.066800 -19.743100 -16.917500
C -12.862400 -20.004400 -19.608700
C -12.626500 -20.064500 -20.972100
N -11.927200 -19.846900 -17.344600
C -11.742800 -19.932900 -18.804000
C -11.365800 -20.035300 -21.544000
H -11.252500 -20.064600 -22.486800
O -10.922900 -19.866400 -16.646800
C -10.451700 -19.920100 -19.305500
C -10.266400 -19.961300 -20.685300
H -9.705600 -19.883700 -18.718500
C -8.864000 -19.918200 -21.209400
O -8.783100 -20.019400 -22.512700
H -7.926600 -20.011300 -22.732200
O -7.913400 -19.793100 -20.450700
8
Fragment
H -15.739400 -22.768100 -17.588100
N -15.000600 -22.660900 -17.192900
H -14.923900 -22.586700 -16.311600
H -14.824600 -23.203400 -19.566600
N -14.024800 -23.161200 -19.211500
C -13.902300 -22.881300 -17.907600
H -13.348500 -23.275900 -19.670700
O -12.762500 -22.803400 -17.358300
27
Fragment
O -14.911800 -20.127100 -21.343200
N -13.796100 -20.138500 -21.861100
H -13.741700 -20.012000 -19.248900
O -13.614500 -20.186500 -23.070500
O -13.066800 -19.743100 -16.917500
C -12.862400 -20.004400 -19.608700
C -12.626500 -20.064500 -20.972100
N -11.927200 -19.846900 -17.344600
C -11.742800 -19.932900 -18.804000
C -11.365800 -20.035300 -21.544000
H -11.252500 -20.064600 -22.486800
O -10.922900 -19.866400 -16.646800
C -10.451700 -19.920100 -19.305500
C -10.266400 -19.961300 -20.685300
H -9.705600 -19.883700 -18.718500
C -8.864000 -19.918200 -21.209400
O -8.783100 -20.019400 -22.512700
H -7.926600 -20.011300 -22.732200
O -7.913400 -19.793100 -20.450700
H -15.739400 -22.768100 -17.588100
N -15.000600 -22.660900 -17.192900
H -14.923900 -22.586700 -16.311600
H -14.824600 -23.203400 -19.566600
N -14.024800 -23.161200 -19.211500
C -13.902300 -22.881300 -17.907600
H -13.348500 -23.275900 -19.670700
O -12.762500 -22.803400 -17.358300
