12
Fragment
H -26.646200 -13.343300 -43.278900
H -26.311000 -15.783400 -44.295300
C -25.688100 -13.357900 -43.071100
H -25.560000 -13.629400 -42.136900
H -25.458800 -15.981200 -42.956300
C -25.424100 -15.686300 -43.889900
H -25.310200 -12.463800 -43.204700
N -25.019300 -14.300200 -43.942700
H -24.779000 -16.234400 -44.383800
C -24.066900 -13.920700 -44.766700
H -23.833600 -13.000200 -44.749300
O -23.454100 -14.620600 -45.545000
32
Fragment
H -31.752800 -19.537200 -48.737700
H -31.215300 -19.073700 -47.387300
N -31.072500 -19.343800 -48.213000
O -30.350000 -21.917400 -54.936800
H -30.103800 -20.811600 -52.472000
C -29.820800 -19.459900 -48.671500
N -29.675100 -19.882500 -49.951100
C -29.163600 -20.851800 -52.604200
N -29.117400 -21.802100 -54.927900
N -28.827500 -19.151100 -47.829200
C -28.505600 -21.281700 -53.754200
O -28.400000 -22.110100 -55.888300
C -28.396500 -20.013100 -50.331400
C -28.204200 -20.498500 -51.702100
C -27.600800 -19.311000 -48.343100
H -27.588400 -18.112500 -46.111100
N -27.327100 -19.759900 -49.593300
C -27.149700 -21.183200 -53.547800
N -26.963000 -20.706500 -52.308200
C -26.714200 -18.545300 -46.203600
H -26.663600 -19.310200 -45.594400
N -26.541800 -19.003700 -47.568900
H -26.469100 -21.411600 -54.170800
H -26.007400 -17.903700 -45.982600
C -25.613300 -20.486800 -51.751200
H -25.531600 -19.557700 -51.450000
H -25.471500 -21.089700 -50.993200
C -25.178800 -19.271500 -48.020200
H -25.044600 -18.877400 -48.906100
H -25.035100 -20.240100 -48.066800
H -24.941900 -20.666400 -52.440600
H -24.541900 -18.878100 -47.387300
44
Fragment
H -26.646200 -13.343300 -43.278900
H -26.311000 -15.783400 -44.295300
C -25.688100 -13.357900 -43.071100
H -25.560000 -13.629400 -42.136900
H -25.458800 -15.981200 -42.956300
C -25.424100 -15.686300 -43.889900
H -25.310200 -12.463800 -43.204700
N -25.019300 -14.300200 -43.942700
H -24.779000 -16.234400 -44.383800
C -24.066900 -13.920700 -44.766700
H -23.833600 -13.000200 -44.749300
O -23.454100 -14.620600 -45.545000
H -31.752800 -19.537200 -48.737700
H -31.215300 -19.073700 -47.387300
N -31.072500 -19.343800 -48.213000
O -30.350000 -21.917400 -54.936800
H -30.103800 -20.811600 -52.472000
C -29.820800 -19.459900 -48.671500
N -29.675100 -19.882500 -49.951100
C -29.163600 -20.851800 -52.604200
N -29.117400 -21.802100 -54.927900
N -28.827500 -19.151100 -47.829200
C -28.505600 -21.281700 -53.754200
O -28.400000 -22.110100 -55.888300
C -28.396500 -20.013100 -50.331400
C -28.204200 -20.498500 -51.702100
C -27.600800 -19.311000 -48.343100
H -27.588400 -18.112500 -46.111100
N -27.327100 -19.759900 -49.593300
C -27.149700 -21.183200 -53.547800
N -26.963000 -20.706500 -52.308200
C -26.714200 -18.545300 -46.203600
H -26.663600 -19.310200 -45.594400
N -26.541800 -19.003700 -47.568900
H -26.469100 -21.411600 -54.170800
H -26.007400 -17.903700 -45.982600
C -25.613300 -20.486800 -51.751200
H -25.531600 -19.557700 -51.450000
H -25.471500 -21.089700 -50.993200
C -25.178800 -19.271500 -48.020200
H -25.044600 -18.877400 -48.906100
H -25.035100 -20.240100 -48.066800
H -24.941900 -20.666400 -52.440600
H -24.541900 -18.878100 -47.387300
