19
Fragment
O -14.911800 -20.127100 -21.343200
N -13.796100 -20.138500 -21.861100
H -13.741700 -20.012000 -19.248900
O -13.614500 -20.186500 -23.070500
O -13.066800 -19.743100 -16.917500
C -12.862400 -20.004400 -19.608700
C -12.626500 -20.064500 -20.972100
N -11.927200 -19.846900 -17.344600
C -11.742800 -19.932900 -18.804000
C -11.365800 -20.035300 -21.544000
H -11.252500 -20.064600 -22.486800
O -10.922900 -19.866400 -16.646800
C -10.451700 -19.920100 -19.305500
C -10.266400 -19.961300 -20.685300
H -9.705600 -19.883700 -18.718500
C -8.864000 -19.918200 -21.209400
O -8.783100 -20.019400 -22.512700
H -7.926600 -20.011300 -22.732200
O -7.913400 -19.793100 -20.450700
19
Fragment
O -8.280600 -19.025900 -14.830300
H -8.259300 -19.297900 -12.549600
O -7.443000 -19.331600 -12.767200
C -7.355600 -19.228200 -14.070700
H -6.520200 -19.502900 -16.550800
C -5.951200 -19.387700 -14.588300
C -5.772900 -19.495200 -15.964500
O -5.321300 -19.610200 -18.622200
H -4.961200 -19.367500 -12.790100
C -4.849500 -19.419600 -13.732000
C -4.487300 -19.590400 -16.460100
N -4.314800 -19.646800 -17.925200
C -3.587600 -19.529300 -14.295200
C -3.358100 -19.607100 -15.657400
O -3.177600 -19.717900 -18.368600
O -2.620000 -19.832600 -12.215000
H -2.481800 -19.668000 -16.019400
N -2.424900 -19.573300 -13.392800
O -1.322200 -19.349100 -13.882000
38
Fragment
O -14.911800 -20.127100 -21.343200
N -13.796100 -20.138500 -21.861100
H -13.741700 -20.012000 -19.248900
O -13.614500 -20.186500 -23.070500
O -13.066800 -19.743100 -16.917500
C -12.862400 -20.004400 -19.608700
C -12.626500 -20.064500 -20.972100
N -11.927200 -19.846900 -17.344600
C -11.742800 -19.932900 -18.804000
C -11.365800 -20.035300 -21.544000
H -11.252500 -20.064600 -22.486800
O -10.922900 -19.866400 -16.646800
C -10.451700 -19.920100 -19.305500
C -10.266400 -19.961300 -20.685300
H -9.705600 -19.883700 -18.718500
C -8.864000 -19.918200 -21.209400
O -8.783100 -20.019400 -22.512700
H -7.926600 -20.011300 -22.732200
O -7.913400 -19.793100 -20.450700
O -8.280600 -19.025900 -14.830300
H -8.259300 -19.297900 -12.549600
O -7.443000 -19.331600 -12.767200
C -7.355600 -19.228200 -14.070700
H -6.520200 -19.502900 -16.550800
C -5.951200 -19.387700 -14.588300
C -5.772900 -19.495200 -15.964500
O -5.321300 -19.610200 -18.622200
H -4.961200 -19.367500 -12.790100
C -4.849500 -19.419600 -13.732000
C -4.487300 -19.590400 -16.460100
N -4.314800 -19.646800 -17.925200
C -3.587600 -19.529300 -14.295200
C -3.358100 -19.607100 -15.657400
O -3.177600 -19.717900 -18.368600
O -2.620000 -19.832600 -12.215000
H -2.481800 -19.668000 -16.019400
N -2.424900 -19.573300 -13.392800
O -1.322200 -19.349100 -13.882000
