27
Fragment
H -13.987400 -6.470800 -9.352100
H -13.171400 -7.600900 -11.067000
C -13.103800 -6.845300 -9.273300
C -12.622400 -7.523400 -10.295300
H -12.540000 -6.672800 -8.476500
H -12.449300 -9.281300 -12.577900
H -11.760400 -11.479200 -11.873700
H -11.697500 -13.715800 -11.820600
H -11.635000 -8.009900 -13.104200
C -11.539400 -8.920000 -12.726800
N -11.350800 -8.146300 -10.334000
C -11.319000 -11.934700 -12.581300
C -11.267500 -13.249000 -12.519800
C -10.833300 -9.782600 -13.719100
C -10.830600 -8.826100 -11.403200
H -10.816200 -13.808400 -13.208500
N -10.767400 -11.149400 -13.619800
H -10.489000 -7.870200 -8.439300
C -10.419500 -8.239900 -9.312100
N -10.242200 -9.354600 -14.805600
C -10.076500 -11.594600 -14.733000
H -9.861900 -12.494000 -14.951300
C -9.770600 -10.488800 -15.445600
N -9.652600 -9.332800 -11.125300
C -9.393800 -8.963300 -9.808700
H -9.298300 -10.488800 -16.269400
H -8.606200 -9.188700 -9.327000
27
Fragment
H -16.394300 -13.396000 -18.617700
H -15.702200 -14.696100 -11.675300
C -15.606700 -13.170600 -18.136000
N -15.347900 -13.540100 -16.819300
C -15.229900 -14.696100 -12.499100
H -15.138600 -16.701300 -12.993300
C -14.924000 -15.801900 -13.211700
N -14.758300 -13.561900 -13.139000
C -14.581000 -12.447200 -18.632600
H -14.511500 -12.077500 -19.505400
N -14.233100 -15.356700 -14.324800
H -14.184300 -18.015700 -14.736100
C -14.169900 -13.033400 -16.541500
C -14.167100 -13.989900 -14.225500
C -13.733000 -17.456300 -15.424900
C -13.681500 -16.142000 -15.363300
N -13.649700 -12.353600 -17.610600
C -13.461100 -13.127300 -15.217800
H -13.365500 -12.217200 -14.840500
H -13.303000 -17.923100 -16.124100
H -13.240100 -15.686500 -16.071000
H -12.551200 -13.488600 -15.366800
H -12.460500 -10.880100 -19.468100
C -12.378100 -11.730700 -17.649400
C -11.896700 -11.052600 -18.671300
H -11.829100 -11.808200 -16.877600
H -11.013100 -10.678100 -18.592500
54
Fragment
H -13.987400 -6.470800 -9.352100
H -13.171400 -7.600900 -11.067000
C -13.103800 -6.845300 -9.273300
C -12.622400 -7.523400 -10.295300
H -12.540000 -6.672800 -8.476500
H -12.449300 -9.281300 -12.577900
H -11.760400 -11.479200 -11.873700
H -11.697500 -13.715800 -11.820600
H -11.635000 -8.009900 -13.104200
C -11.539400 -8.920000 -12.726800
N -11.350800 -8.146300 -10.334000
C -11.319000 -11.934700 -12.581300
C -11.267500 -13.249000 -12.519800
C -10.833300 -9.782600 -13.719100
C -10.830600 -8.826100 -11.403200
H -10.816200 -13.808400 -13.208500
N -10.767400 -11.149400 -13.619800
H -10.489000 -7.870200 -8.439300
C -10.419500 -8.239900 -9.312100
N -10.242200 -9.354600 -14.805600
C -10.076500 -11.594600 -14.733000
H -9.861900 -12.494000 -14.951300
C -9.770600 -10.488800 -15.445600
N -9.652600 -9.332800 -11.125300
C -9.393800 -8.963300 -9.808700
H -9.298300 -10.488800 -16.269400
H -8.606200 -9.188700 -9.327000
H -16.394300 -13.396000 -18.617700
H -15.702200 -14.696100 -11.675300
C -15.606700 -13.170600 -18.136000
N -15.347900 -13.540100 -16.819300
C -15.229900 -14.696100 -12.499100
H -15.138600 -16.701300 -12.993300
C -14.924000 -15.801900 -13.211700
N -14.758300 -13.561900 -13.139000
C -14.581000 -12.447200 -18.632600
H -14.511500 -12.077500 -19.505400
N -14.233100 -15.356700 -14.324800
H -14.184300 -18.015700 -14.736100
C -14.169900 -13.033400 -16.541500
C -14.167100 -13.989900 -14.225500
C -13.733000 -17.456300 -15.424900
C -13.681500 -16.142000 -15.363300
N -13.649700 -12.353600 -17.610600
C -13.461100 -13.127300 -15.217800
H -13.365500 -12.217200 -14.840500
H -13.303000 -17.923100 -16.124100
H -13.240100 -15.686500 -16.071000
H -12.551200 -13.488600 -15.366800
H -12.460500 -10.880100 -19.468100
C -12.378100 -11.730700 -17.649400
C -11.896700 -11.052600 -18.671300
H -11.829100 -11.808200 -16.877600
H -11.013100 -10.678100 -18.592500
