27
Fragment
H -13.987400 -6.470800 -9.352100
H -13.171400 -7.600900 -11.067000
C -13.103800 -6.845300 -9.273300
C -12.622400 -7.523400 -10.295300
H -12.540000 -6.672800 -8.476500
H -12.449300 -9.281300 -12.577900
H -11.760400 -11.479200 -11.873700
H -11.697500 -13.715800 -11.820600
H -11.635000 -8.009900 -13.104200
C -11.539400 -8.920000 -12.726800
N -11.350800 -8.146300 -10.334000
C -11.319000 -11.934700 -12.581300
C -11.267500 -13.249000 -12.519800
C -10.833300 -9.782600 -13.719100
C -10.830600 -8.826100 -11.403200
H -10.816200 -13.808400 -13.208500
N -10.767400 -11.149400 -13.619800
H -10.489000 -7.870200 -8.439300
C -10.419500 -8.239900 -9.312100
N -10.242200 -9.354600 -14.805600
C -10.076500 -11.594600 -14.733000
H -9.861900 -12.494000 -14.951300
C -9.770600 -10.488800 -15.445600
N -9.652600 -9.332800 -11.125300
C -9.393800 -8.963300 -9.808700
H -9.298300 -10.488800 -16.269400
H -8.606200 -9.188700 -9.327000
27
Fragment
H -10.398800 -13.396000 -9.302800
H -9.706700 -14.696100 -2.360400
C -9.611200 -13.170600 -8.821100
N -9.352400 -13.540100 -7.504400
C -9.234400 -14.696100 -3.184200
H -9.143100 -16.701300 -3.678400
C -8.928500 -15.801900 -3.896800
N -8.762800 -13.561900 -3.824100
C -8.585500 -12.447200 -9.317700
H -8.516000 -12.077500 -10.190500
N -8.237600 -15.356700 -5.009900
H -8.188800 -18.015700 -5.421300
C -8.174400 -13.033400 -7.226600
C -8.171600 -13.989900 -4.910600
C -7.737500 -17.456300 -6.110000
C -7.686000 -16.142000 -6.048400
N -7.654200 -12.353600 -8.295700
C -7.465600 -13.127300 -5.902900
H -7.370000 -12.217200 -5.525600
H -7.307500 -17.923100 -6.809200
H -7.244600 -15.686500 -6.756100
H -6.555700 -13.488600 -6.051900
H -6.465000 -10.880100 -10.153200
C -6.382600 -11.730700 -8.334500
C -5.901200 -11.052600 -9.356400
H -5.833600 -11.808200 -7.562800
H -5.017600 -10.678100 -9.277600
54
Fragment
H -13.987400 -6.470800 -9.352100
H -13.171400 -7.600900 -11.067000
C -13.103800 -6.845300 -9.273300
C -12.622400 -7.523400 -10.295300
H -12.540000 -6.672800 -8.476500
H -12.449300 -9.281300 -12.577900
H -11.760400 -11.479200 -11.873700
H -11.697500 -13.715800 -11.820600
H -11.635000 -8.009900 -13.104200
C -11.539400 -8.920000 -12.726800
N -11.350800 -8.146300 -10.334000
C -11.319000 -11.934700 -12.581300
C -11.267500 -13.249000 -12.519800
C -10.833300 -9.782600 -13.719100
C -10.830600 -8.826100 -11.403200
H -10.816200 -13.808400 -13.208500
N -10.767400 -11.149400 -13.619800
H -10.489000 -7.870200 -8.439300
C -10.419500 -8.239900 -9.312100
N -10.242200 -9.354600 -14.805600
C -10.076500 -11.594600 -14.733000
H -9.861900 -12.494000 -14.951300
C -9.770600 -10.488800 -15.445600
N -9.652600 -9.332800 -11.125300
C -9.393800 -8.963300 -9.808700
H -9.298300 -10.488800 -16.269400
H -8.606200 -9.188700 -9.327000
H -10.398800 -13.396000 -9.302800
H -9.706700 -14.696100 -2.360400
C -9.611200 -13.170600 -8.821100
N -9.352400 -13.540100 -7.504400
C -9.234400 -14.696100 -3.184200
H -9.143100 -16.701300 -3.678400
C -8.928500 -15.801900 -3.896800
N -8.762800 -13.561900 -3.824100
C -8.585500 -12.447200 -9.317700
H -8.516000 -12.077500 -10.190500
N -8.237600 -15.356700 -5.009900
H -8.188800 -18.015700 -5.421300
C -8.174400 -13.033400 -7.226600
C -8.171600 -13.989900 -4.910600
C -7.737500 -17.456300 -6.110000
C -7.686000 -16.142000 -6.048400
N -7.654200 -12.353600 -8.295700
C -7.465600 -13.127300 -5.902900
H -7.370000 -12.217200 -5.525600
H -7.307500 -17.923100 -6.809200
H -7.244600 -15.686500 -6.756100
H -6.555700 -13.488600 -6.051900
H -6.465000 -10.880100 -10.153200
C -6.382600 -11.730700 -8.334500
C -5.901200 -11.052600 -9.356400
H -5.833600 -11.808200 -7.562800
H -5.017600 -10.678100 -9.277600
