27
Fragment
H -13.987400 -6.470800 -9.352100
H -13.171400 -7.600900 -11.067000
C -13.103800 -6.845300 -9.273300
C -12.622400 -7.523400 -10.295300
H -12.540000 -6.672800 -8.476500
H -12.449300 -9.281300 -12.577900
H -11.760400 -11.479200 -11.873700
H -11.697500 -13.715800 -11.820600
H -11.635000 -8.009900 -13.104200
C -11.539400 -8.920000 -12.726800
N -11.350800 -8.146300 -10.334000
C -11.319000 -11.934700 -12.581300
C -11.267500 -13.249000 -12.519800
C -10.833300 -9.782600 -13.719100
C -10.830600 -8.826100 -11.403200
H -10.816200 -13.808400 -13.208500
N -10.767400 -11.149400 -13.619800
H -10.489000 -7.870200 -8.439300
C -10.419500 -8.239900 -9.312100
N -10.242200 -9.354600 -14.805600
C -10.076500 -11.594600 -14.733000
H -9.861900 -12.494000 -14.951300
C -9.770600 -10.488800 -15.445600
N -9.652600 -9.332800 -11.125300
C -9.393800 -8.963300 -9.808700
H -9.298300 -10.488800 -16.269400
H -8.606200 -9.188700 -9.327000
3
Fragment
H -15.209800 -10.417300 -12.028300
H -14.629800 -11.620600 -12.649600
O -14.497300 -10.777100 -12.372500
30
Fragment
H -13.987400 -6.470800 -9.352100
H -13.171400 -7.600900 -11.067000
C -13.103800 -6.845300 -9.273300
C -12.622400 -7.523400 -10.295300
H -12.540000 -6.672800 -8.476500
H -12.449300 -9.281300 -12.577900
H -11.760400 -11.479200 -11.873700
H -11.697500 -13.715800 -11.820600
H -11.635000 -8.009900 -13.104200
C -11.539400 -8.920000 -12.726800
N -11.350800 -8.146300 -10.334000
C -11.319000 -11.934700 -12.581300
C -11.267500 -13.249000 -12.519800
C -10.833300 -9.782600 -13.719100
C -10.830600 -8.826100 -11.403200
H -10.816200 -13.808400 -13.208500
N -10.767400 -11.149400 -13.619800
H -10.489000 -7.870200 -8.439300
C -10.419500 -8.239900 -9.312100
N -10.242200 -9.354600 -14.805600
C -10.076500 -11.594600 -14.733000
H -9.861900 -12.494000 -14.951300
C -9.770600 -10.488800 -15.445600
N -9.652600 -9.332800 -11.125300
C -9.393800 -8.963300 -9.808700
H -9.298300 -10.488800 -16.269400
H -8.606200 -9.188700 -9.327000
H -15.209800 -10.417300 -12.028300
H -14.629800 -11.620600 -12.649600
O -14.497300 -10.777100 -12.372500
