22
Fragment
H -17.207400 -8.217600 -37.670100
H -16.656000 -8.120300 -39.879500
H -16.648700 -8.676500 -35.355200
C -16.352000 -8.466400 -37.937200
H -16.147100 -8.795700 -41.958200
C -16.024800 -8.411500 -39.262400
C -15.769600 -8.882100 -35.582100
H -15.551000 -7.347500 -41.893900
C -15.444200 -8.882800 -36.986000
C -15.342400 -8.275400 -42.026300
O -15.016900 -9.121400 -34.674200
H -14.954200 -8.395400 -42.896500
C -14.741400 -8.789200 -39.706500
N -14.397900 -8.709400 -41.010600
C -14.178600 -9.259700 -37.412000
C -13.839600 -9.225300 -38.732600
H -13.550500 -9.540000 -36.786800
C -13.078800 -9.100200 -41.471500
H -12.989400 -9.499000 -38.991600
H -12.984200 -10.052300 -41.400600
H -12.968800 -8.833800 -42.387200
H -12.411900 -8.671300 -40.930300
22
Fragment
H -10.691400 -10.258700 -43.449500
H -10.209000 -10.833900 -41.125300
H -10.064200 -10.060300 -45.629000
C -9.826000 -10.493600 -43.696300
C -9.452700 -10.376500 -45.004100
H -9.423100 -10.785600 -47.827000
C -9.352500 -11.120000 -41.346500
H -9.036100 -9.300700 -47.505800
C -8.947900 -10.953900 -42.730200
C -8.695600 -10.164200 -47.748300
O -8.694500 -11.591300 -40.451500
H -8.234700 -10.102800 -48.588700
C -8.158000 -10.727700 -45.415000
N -7.766500 -10.630400 -46.715900
C -7.660800 -11.295600 -43.126000
C -7.263900 -11.170500 -44.425700
H -7.058500 -11.616200 -42.492700
C -6.450000 -11.033700 -47.163000
H -6.388600 -11.381300 -44.660800
H -6.353300 -10.833900 -48.097700
H -6.341500 -11.977000 -47.024000
H -5.782700 -10.557200 -46.663800
44
Fragment
H -17.207400 -8.217600 -37.670100
H -16.656000 -8.120300 -39.879500
H -16.648700 -8.676500 -35.355200
C -16.352000 -8.466400 -37.937200
H -16.147100 -8.795700 -41.958200
C -16.024800 -8.411500 -39.262400
C -15.769600 -8.882100 -35.582100
H -15.551000 -7.347500 -41.893900
C -15.444200 -8.882800 -36.986000
C -15.342400 -8.275400 -42.026300
O -15.016900 -9.121400 -34.674200
H -14.954200 -8.395400 -42.896500
C -14.741400 -8.789200 -39.706500
N -14.397900 -8.709400 -41.010600
C -14.178600 -9.259700 -37.412000
C -13.839600 -9.225300 -38.732600
H -13.550500 -9.540000 -36.786800
C -13.078800 -9.100200 -41.471500
H -12.989400 -9.499000 -38.991600
H -12.984200 -10.052300 -41.400600
H -12.968800 -8.833800 -42.387200
H -12.411900 -8.671300 -40.930300
H -10.691400 -10.258700 -43.449500
H -10.209000 -10.833900 -41.125300
H -10.064200 -10.060300 -45.629000
C -9.826000 -10.493600 -43.696300
C -9.452700 -10.376500 -45.004100
H -9.423100 -10.785600 -47.827000
C -9.352500 -11.120000 -41.346500
H -9.036100 -9.300700 -47.505800
C -8.947900 -10.953900 -42.730200
C -8.695600 -10.164200 -47.748300
O -8.694500 -11.591300 -40.451500
H -8.234700 -10.102800 -48.588700
C -8.158000 -10.727700 -45.415000
N -7.766500 -10.630400 -46.715900
C -7.660800 -11.295600 -43.126000
C -7.263900 -11.170500 -44.425700
H -7.058500 -11.616200 -42.492700
C -6.450000 -11.033700 -47.163000
H -6.388600 -11.381300 -44.660800
H -6.353300 -10.833900 -48.097700
H -6.341500 -11.977000 -47.024000
H -5.782700 -10.557200 -46.663800
