22
Fragment
H -17.207400 -8.217600 -37.670100
H -16.656000 -8.120300 -39.879500
H -16.648700 -8.676500 -35.355200
C -16.352000 -8.466400 -37.937200
H -16.147100 -8.795700 -41.958200
C -16.024800 -8.411500 -39.262400
C -15.769600 -8.882100 -35.582100
H -15.551000 -7.347500 -41.893900
C -15.444200 -8.882800 -36.986000
C -15.342400 -8.275400 -42.026300
O -15.016900 -9.121400 -34.674200
H -14.954200 -8.395400 -42.896500
C -14.741400 -8.789200 -39.706500
N -14.397900 -8.709400 -41.010600
C -14.178600 -9.259700 -37.412000
C -13.839600 -9.225300 -38.732600
H -13.550500 -9.540000 -36.786800
C -13.078800 -9.100200 -41.471500
H -12.989400 -9.499000 -38.991600
H -12.984200 -10.052300 -41.400600
H -12.968800 -8.833800 -42.387200
H -12.411900 -8.671300 -40.930300
22
Fragment
H -17.985300 -11.397400 -45.108200
H -17.426500 -9.977600 -44.748000
H -17.414700 -11.120700 -43.674300
H -17.379500 -10.573300 -47.111200
C -17.318100 -10.920900 -44.609000
H -16.709500 -10.338400 -49.279300
C -16.504200 -10.784100 -47.346300
C -16.107300 -10.659000 -48.646000
N -16.001500 -11.324200 -45.056200
C -15.610000 -11.226900 -46.357000
H -15.533400 -11.851800 -43.183300
O -15.073600 -10.363300 -51.320500
C -15.072400 -11.790400 -44.023700
C -14.820200 -11.000700 -49.041800
H -14.731900 -12.653900 -44.266200
C -14.415500 -10.834600 -50.425500
H -14.345000 -11.169000 -43.945000
C -14.315300 -11.578100 -46.767900
C -13.942000 -11.461000 -48.075700
H -13.703800 -11.894300 -46.143000
H -13.559100 -11.120700 -50.646700
H -13.076700 -11.695900 -48.322500
44
Fragment
H -17.207400 -8.217600 -37.670100
H -16.656000 -8.120300 -39.879500
H -16.648700 -8.676500 -35.355200
C -16.352000 -8.466400 -37.937200
H -16.147100 -8.795700 -41.958200
C -16.024800 -8.411500 -39.262400
C -15.769600 -8.882100 -35.582100
H -15.551000 -7.347500 -41.893900
C -15.444200 -8.882800 -36.986000
C -15.342400 -8.275400 -42.026300
O -15.016900 -9.121400 -34.674200
H -14.954200 -8.395400 -42.896500
C -14.741400 -8.789200 -39.706500
N -14.397900 -8.709400 -41.010600
C -14.178600 -9.259700 -37.412000
C -13.839600 -9.225300 -38.732600
H -13.550500 -9.540000 -36.786800
C -13.078800 -9.100200 -41.471500
H -12.989400 -9.499000 -38.991600
H -12.984200 -10.052300 -41.400600
H -12.968800 -8.833800 -42.387200
H -12.411900 -8.671300 -40.930300
H -17.985300 -11.397400 -45.108200
H -17.426500 -9.977600 -44.748000
H -17.414700 -11.120700 -43.674300
H -17.379500 -10.573300 -47.111200
C -17.318100 -10.920900 -44.609000
H -16.709500 -10.338400 -49.279300
C -16.504200 -10.784100 -47.346300
C -16.107300 -10.659000 -48.646000
N -16.001500 -11.324200 -45.056200
C -15.610000 -11.226900 -46.357000
H -15.533400 -11.851800 -43.183300
O -15.073600 -10.363300 -51.320500
C -15.072400 -11.790400 -44.023700
C -14.820200 -11.000700 -49.041800
H -14.731900 -12.653900 -44.266200
C -14.415500 -10.834600 -50.425500
H -14.345000 -11.169000 -43.945000
C -14.315300 -11.578100 -46.767900
C -13.942000 -11.461000 -48.075700
H -13.703800 -11.894300 -46.143000
H -13.559100 -11.120700 -50.646700
H -13.076700 -11.695900 -48.322500
