23
Fragment
H -22.246400 -14.338400 -6.670000
O -21.730500 -14.843100 -7.176300
O -21.020600 -12.890500 -7.921800
C -20.978700 -14.097900 -7.947500
H -20.601200 -15.501100 -9.361900
C -20.064400 -14.896600 -8.825100
H -19.763800 -13.572200 -10.352000
H -19.489900 -15.438000 -8.261100
C -19.194700 -14.075400 -9.749200
H -18.735700 -15.488900 -11.166200
H -18.687900 -13.439300 -9.220700
C -18.229300 -14.917500 -10.568400
H -17.770700 -13.439300 -11.916100
H -17.722900 -15.488900 -9.970700
C -17.263900 -14.075400 -11.387700
H -16.968700 -15.438000 -12.875700
H -16.694800 -13.572200 -10.784900
C -16.394200 -14.896600 -12.311800
H -15.857400 -15.501100 -11.774900
C -15.479900 -14.097900 -13.189400
O -15.438000 -12.890500 -13.215100
O -14.728100 -14.843100 -13.960600
H -14.212200 -14.338400 -14.466900
23
Fragment
H -31.568000 -13.344100 -2.442600
O -31.052100 -12.839400 -2.948900
O -30.342200 -14.792000 -3.694400
C -30.300300 -13.584600 -3.720100
H -29.922800 -12.181400 -5.134600
C -29.385900 -12.785900 -4.597700
H -29.085400 -14.110300 -6.124600
H -28.811500 -12.244500 -4.033800
C -28.516300 -13.607100 -5.521800
H -28.057200 -12.193600 -6.938800
H -28.009500 -14.243200 -4.993400
C -27.550900 -12.765000 -6.341100
H -27.092300 -14.243200 -7.688700
H -27.044500 -12.193600 -5.743300
C -26.585400 -13.607100 -7.160300
H -26.290300 -12.244500 -8.648400
H -26.016400 -14.110300 -6.557500
C -25.715800 -12.785900 -8.084400
H -25.179000 -12.181400 -7.547600
C -24.801500 -13.584600 -8.962000
O -24.759600 -14.792000 -8.987700
O -24.049600 -12.839400 -9.733200
H -23.533700 -13.344100 -10.239500
46
Fragment
H -22.246400 -14.338400 -6.670000
O -21.730500 -14.843100 -7.176300
O -21.020600 -12.890500 -7.921800
C -20.978700 -14.097900 -7.947500
H -20.601200 -15.501100 -9.361900
C -20.064400 -14.896600 -8.825100
H -19.763800 -13.572200 -10.352000
H -19.489900 -15.438000 -8.261100
C -19.194700 -14.075400 -9.749200
H -18.735700 -15.488900 -11.166200
H -18.687900 -13.439300 -9.220700
C -18.229300 -14.917500 -10.568400
H -17.770700 -13.439300 -11.916100
H -17.722900 -15.488900 -9.970700
C -17.263900 -14.075400 -11.387700
H -16.968700 -15.438000 -12.875700
H -16.694800 -13.572200 -10.784900
C -16.394200 -14.896600 -12.311800
H -15.857400 -15.501100 -11.774900
C -15.479900 -14.097900 -13.189400
O -15.438000 -12.890500 -13.215100
O -14.728100 -14.843100 -13.960600
H -14.212200 -14.338400 -14.466900
H -31.568000 -13.344100 -2.442600
O -31.052100 -12.839400 -2.948900
O -30.342200 -14.792000 -3.694400
C -30.300300 -13.584600 -3.720100
H -29.922800 -12.181400 -5.134600
C -29.385900 -12.785900 -4.597700
H -29.085400 -14.110300 -6.124600
H -28.811500 -12.244500 -4.033800
C -28.516300 -13.607100 -5.521800
H -28.057200 -12.193600 -6.938800
H -28.009500 -14.243200 -4.993400
C -27.550900 -12.765000 -6.341100
H -27.092300 -14.243200 -7.688700
H -27.044500 -12.193600 -5.743300
C -26.585400 -13.607100 -7.160300
H -26.290300 -12.244500 -8.648400
H -26.016400 -14.110300 -6.557500
C -25.715800 -12.785900 -8.084400
H -25.179000 -12.181400 -7.547600
C -24.801500 -13.584600 -8.962000
O -24.759600 -14.792000 -8.987700
O -24.049600 -12.839400 -9.733200
H -23.533700 -13.344100 -10.239500
