23
Fragment
H -22.246400 -14.338400 -6.670000
O -21.730500 -14.843100 -7.176300
O -21.020600 -12.890500 -7.921800
C -20.978700 -14.097900 -7.947500
H -20.601200 -15.501100 -9.361900
C -20.064400 -14.896600 -8.825100
H -19.763800 -13.572200 -10.352000
H -19.489900 -15.438000 -8.261100
C -19.194700 -14.075400 -9.749200
H -18.735700 -15.488900 -11.166200
H -18.687900 -13.439300 -9.220700
C -18.229300 -14.917500 -10.568400
H -17.770700 -13.439300 -11.916100
H -17.722900 -15.488900 -9.970700
C -17.263900 -14.075400 -11.387700
H -16.968700 -15.438000 -12.875700
H -16.694800 -13.572200 -10.784900
C -16.394200 -14.896600 -12.311800
H -15.857400 -15.501100 -11.774900
C -15.479900 -14.097900 -13.189400
O -15.438000 -12.890500 -13.215100
O -14.728100 -14.843100 -13.960600
H -14.212200 -14.338400 -14.466900
8
Fragment
H -25.738400 -17.382400 -6.579500
N -25.118000 -17.132300 -7.118900
H -25.081100 -16.313900 -7.381000
O -24.240900 -19.210900 -7.185400
C -24.212900 -18.014600 -7.547000
N -23.273700 -17.572200 -8.377300
H -23.266900 -16.746800 -8.618800
H -22.673700 -18.111000 -8.672000
31
Fragment
H -22.246400 -14.338400 -6.670000
O -21.730500 -14.843100 -7.176300
O -21.020600 -12.890500 -7.921800
C -20.978700 -14.097900 -7.947500
H -20.601200 -15.501100 -9.361900
C -20.064400 -14.896600 -8.825100
H -19.763800 -13.572200 -10.352000
H -19.489900 -15.438000 -8.261100
C -19.194700 -14.075400 -9.749200
H -18.735700 -15.488900 -11.166200
H -18.687900 -13.439300 -9.220700
C -18.229300 -14.917500 -10.568400
H -17.770700 -13.439300 -11.916100
H -17.722900 -15.488900 -9.970700
C -17.263900 -14.075400 -11.387700
H -16.968700 -15.438000 -12.875700
H -16.694800 -13.572200 -10.784900
C -16.394200 -14.896600 -12.311800
H -15.857400 -15.501100 -11.774900
C -15.479900 -14.097900 -13.189400
O -15.438000 -12.890500 -13.215100
O -14.728100 -14.843100 -13.960600
H -14.212200 -14.338400 -14.466900
H -25.738400 -17.382400 -6.579500
N -25.118000 -17.132300 -7.118900
H -25.081100 -16.313900 -7.381000
O -24.240900 -19.210900 -7.185400
C -24.212900 -18.014600 -7.547000
N -23.273700 -17.572200 -8.377300
H -23.266900 -16.746800 -8.618800
H -22.673700 -18.111000 -8.672000
