23
Fragment
H -22.246400 -14.338400 -6.670000
O -21.730500 -14.843100 -7.176300
O -21.020600 -12.890500 -7.921800
C -20.978700 -14.097900 -7.947500
H -20.601200 -15.501100 -9.361900
C -20.064400 -14.896600 -8.825100
H -19.763800 -13.572200 -10.352000
H -19.489900 -15.438000 -8.261100
C -19.194700 -14.075400 -9.749200
H -18.735700 -15.488900 -11.166200
H -18.687900 -13.439300 -9.220700
C -18.229300 -14.917500 -10.568400
H -17.770700 -13.439300 -11.916100
H -17.722900 -15.488900 -9.970700
C -17.263900 -14.075400 -11.387700
H -16.968700 -15.438000 -12.875700
H -16.694800 -13.572200 -10.784900
C -16.394200 -14.896600 -12.311800
H -15.857400 -15.501100 -11.774900
C -15.479900 -14.097900 -13.189400
O -15.438000 -12.890500 -13.215100
O -14.728100 -14.843100 -13.960600
H -14.212200 -14.338400 -14.466900
8
Fragment
H -21.336300 -12.574500 -12.464800
H -20.743100 -11.210300 -12.518100
N -20.736400 -12.035700 -12.759600
C -19.797200 -12.478100 -13.589800
O -19.769100 -13.674400 -13.951500
H -18.929000 -10.777400 -13.755900
N -18.892100 -11.595800 -14.018000
H -18.271700 -11.845900 -14.557400
31
Fragment
H -22.246400 -14.338400 -6.670000
O -21.730500 -14.843100 -7.176300
O -21.020600 -12.890500 -7.921800
C -20.978700 -14.097900 -7.947500
H -20.601200 -15.501100 -9.361900
C -20.064400 -14.896600 -8.825100
H -19.763800 -13.572200 -10.352000
H -19.489900 -15.438000 -8.261100
C -19.194700 -14.075400 -9.749200
H -18.735700 -15.488900 -11.166200
H -18.687900 -13.439300 -9.220700
C -18.229300 -14.917500 -10.568400
H -17.770700 -13.439300 -11.916100
H -17.722900 -15.488900 -9.970700
C -17.263900 -14.075400 -11.387700
H -16.968700 -15.438000 -12.875700
H -16.694800 -13.572200 -10.784900
C -16.394200 -14.896600 -12.311800
H -15.857400 -15.501100 -11.774900
C -15.479900 -14.097900 -13.189400
O -15.438000 -12.890500 -13.215100
O -14.728100 -14.843100 -13.960600
H -14.212200 -14.338400 -14.466900
H -21.336300 -12.574500 -12.464800
H -20.743100 -11.210300 -12.518100
N -20.736400 -12.035700 -12.759600
C -19.797200 -12.478100 -13.589800
O -19.769100 -13.674400 -13.951500
H -18.929000 -10.777400 -13.755900
N -18.892100 -11.595800 -14.018000
H -18.271700 -11.845900 -14.557400
