23
Fragment
H -22.246400 -14.338400 -6.670000
O -21.730500 -14.843100 -7.176300
O -21.020600 -12.890500 -7.921800
C -20.978700 -14.097900 -7.947500
H -20.601200 -15.501100 -9.361900
C -20.064400 -14.896600 -8.825100
H -19.763800 -13.572200 -10.352000
H -19.489900 -15.438000 -8.261100
C -19.194700 -14.075400 -9.749200
H -18.735700 -15.488900 -11.166200
H -18.687900 -13.439300 -9.220700
C -18.229300 -14.917500 -10.568400
H -17.770700 -13.439300 -11.916100
H -17.722900 -15.488900 -9.970700
C -17.263900 -14.075400 -11.387700
H -16.968700 -15.438000 -12.875700
H -16.694800 -13.572200 -10.784900
C -16.394200 -14.896600 -12.311800
H -15.857400 -15.501100 -11.774900
C -15.479900 -14.097900 -13.189400
O -15.438000 -12.890500 -13.215100
O -14.728100 -14.843100 -13.960600
H -14.212200 -14.338400 -14.466900
23
Fragment
H -12.924800 -13.344100 -10.897300
O -12.409000 -12.839400 -11.403700
O -11.699000 -14.792000 -12.149100
C -11.657100 -13.584600 -12.174800
H -11.279600 -12.181400 -13.589300
C -10.742800 -12.785900 -13.052400
H -10.442200 -14.110300 -14.579400
H -10.168300 -12.244500 -12.488500
C -9.873100 -13.607100 -13.976500
H -9.414100 -12.193600 -15.393600
H -9.366300 -14.243200 -13.448100
C -8.907700 -12.765000 -14.795800
H -8.449100 -14.243200 -16.143500
H -8.401300 -12.193600 -14.198100
C -7.942300 -13.607100 -15.615100
H -7.647100 -12.244500 -17.103100
H -7.373200 -14.110300 -15.012300
C -7.072600 -12.785900 -16.539200
H -6.535800 -12.181400 -16.002300
C -6.158300 -13.584600 -17.416800
O -6.116400 -14.792000 -17.442500
O -5.406500 -12.839400 -18.187900
H -4.890600 -13.344100 -18.694300
46
Fragment
H -22.246400 -14.338400 -6.670000
O -21.730500 -14.843100 -7.176300
O -21.020600 -12.890500 -7.921800
C -20.978700 -14.097900 -7.947500
H -20.601200 -15.501100 -9.361900
C -20.064400 -14.896600 -8.825100
H -19.763800 -13.572200 -10.352000
H -19.489900 -15.438000 -8.261100
C -19.194700 -14.075400 -9.749200
H -18.735700 -15.488900 -11.166200
H -18.687900 -13.439300 -9.220700
C -18.229300 -14.917500 -10.568400
H -17.770700 -13.439300 -11.916100
H -17.722900 -15.488900 -9.970700
C -17.263900 -14.075400 -11.387700
H -16.968700 -15.438000 -12.875700
H -16.694800 -13.572200 -10.784900
C -16.394200 -14.896600 -12.311800
H -15.857400 -15.501100 -11.774900
C -15.479900 -14.097900 -13.189400
O -15.438000 -12.890500 -13.215100
O -14.728100 -14.843100 -13.960600
H -14.212200 -14.338400 -14.466900
H -12.924800 -13.344100 -10.897300
O -12.409000 -12.839400 -11.403700
O -11.699000 -14.792000 -12.149100
C -11.657100 -13.584600 -12.174800
H -11.279600 -12.181400 -13.589300
C -10.742800 -12.785900 -13.052400
H -10.442200 -14.110300 -14.579400
H -10.168300 -12.244500 -12.488500
C -9.873100 -13.607100 -13.976500
H -9.414100 -12.193600 -15.393600
H -9.366300 -14.243200 -13.448100
C -8.907700 -12.765000 -14.795800
H -8.449100 -14.243200 -16.143500
H -8.401300 -12.193600 -14.198100
C -7.942300 -13.607100 -15.615100
H -7.647100 -12.244500 -17.103100
H -7.373200 -14.110300 -15.012300
C -7.072600 -12.785900 -16.539200
H -6.535800 -12.181400 -16.002300
C -6.158300 -13.584600 -17.416800
O -6.116400 -14.792000 -17.442500
O -5.406500 -12.839400 -18.187900
H -4.890600 -13.344100 -18.694300
