21
Fragment
H 0.836600 -26.049900 -32.439500
H 0.839500 -24.064600 -33.773000
C 1.162300 -25.999800 -33.411400
N 1.173700 -24.848600 -34.069600
N 1.721000 -26.987800 -34.077100
C 1.785600 -25.116600 -35.284900
O 1.837300 -23.055600 -36.464500
C 2.087200 -24.238100 -36.371200
C 2.095800 -26.429100 -35.246100
H 2.226300 -28.978100 -36.156400
H 2.417100 -23.767700 -39.007600
N 2.739800 -27.047600 -36.302000
N 2.769600 -24.944100 -37.391000
C 3.045500 -28.482100 -36.241700
C 3.110300 -26.315600 -37.385500
C 3.187100 -24.148300 -38.577000
H 3.482000 -28.741000 -37.047300
H 3.616200 -28.661100 -35.498600
H 3.644800 -24.719300 -39.206400
O 3.757000 -26.790700 -38.305600
H 3.780200 -23.449800 -38.302400
21
Fragment
H 4.664400 -26.049900 -32.439500
H 4.667300 -24.064600 -33.773000
C 4.990000 -25.999800 -33.411400
N 5.001500 -24.848600 -34.069600
N 5.548800 -26.987800 -34.077100
C 5.613400 -25.116600 -35.284900
O 5.665100 -23.055600 -36.464500
C 5.915000 -24.238100 -36.371200
C 5.923500 -26.429100 -35.246100
H 6.054000 -28.978100 -36.156400
H 6.244900 -23.767700 -39.007600
N 6.567600 -27.047600 -36.302000
N 6.597300 -24.944100 -37.391000
C 6.873200 -28.482100 -36.241700
C 6.938000 -26.315600 -37.385500
C 7.014800 -24.148300 -38.577000
H 7.309700 -28.741000 -37.047300
H 7.444000 -28.661100 -35.498600
H 7.472500 -24.719300 -39.206400
O 7.584800 -26.790700 -38.305600
H 7.607900 -23.449800 -38.302400
42
Fragment
H 0.836600 -26.049900 -32.439500
H 0.839500 -24.064600 -33.773000
C 1.162300 -25.999800 -33.411400
N 1.173700 -24.848600 -34.069600
N 1.721000 -26.987800 -34.077100
C 1.785600 -25.116600 -35.284900
O 1.837300 -23.055600 -36.464500
C 2.087200 -24.238100 -36.371200
C 2.095800 -26.429100 -35.246100
H 2.226300 -28.978100 -36.156400
H 2.417100 -23.767700 -39.007600
N 2.739800 -27.047600 -36.302000
N 2.769600 -24.944100 -37.391000
C 3.045500 -28.482100 -36.241700
C 3.110300 -26.315600 -37.385500
C 3.187100 -24.148300 -38.577000
H 3.482000 -28.741000 -37.047300
H 3.616200 -28.661100 -35.498600
H 3.644800 -24.719300 -39.206400
O 3.757000 -26.790700 -38.305600
H 3.780200 -23.449800 -38.302400
H 4.664400 -26.049900 -32.439500
H 4.667300 -24.064600 -33.773000
C 4.990000 -25.999800 -33.411400
N 5.001500 -24.848600 -34.069600
N 5.548800 -26.987800 -34.077100
C 5.613400 -25.116600 -35.284900
O 5.665100 -23.055600 -36.464500
C 5.915000 -24.238100 -36.371200
C 5.923500 -26.429100 -35.246100
H 6.054000 -28.978100 -36.156400
H 6.244900 -23.767700 -39.007600
N 6.567600 -27.047600 -36.302000
N 6.597300 -24.944100 -37.391000
C 6.873200 -28.482100 -36.241700
C 6.938000 -26.315600 -37.385500
C 7.014800 -24.148300 -38.577000
H 7.309700 -28.741000 -37.047300
H 7.444000 -28.661100 -35.498600
H 7.472500 -24.719300 -39.206400
O 7.584800 -26.790700 -38.305600
H 7.607900 -23.449800 -38.302400
