21
Fragment
H 0.836600 -26.049900 -32.439500
H 0.839500 -24.064600 -33.773000
C 1.162300 -25.999800 -33.411400
N 1.173700 -24.848600 -34.069600
N 1.721000 -26.987800 -34.077100
C 1.785600 -25.116600 -35.284900
O 1.837300 -23.055600 -36.464500
C 2.087200 -24.238100 -36.371200
C 2.095800 -26.429100 -35.246100
H 2.226300 -28.978100 -36.156400
H 2.417100 -23.767700 -39.007600
N 2.739800 -27.047600 -36.302000
N 2.769600 -24.944100 -37.391000
C 3.045500 -28.482100 -36.241700
C 3.110300 -26.315600 -37.385500
C 3.187100 -24.148300 -38.577000
H 3.482000 -28.741000 -37.047300
H 3.616200 -28.661100 -35.498600
H 3.644800 -24.719300 -39.206400
O 3.757000 -26.790700 -38.305600
H 3.780200 -23.449800 -38.302400
15
Fragment
H 4.319000 -24.313200 -43.327600
N 4.367000 -23.249700 -41.663500
H 4.506400 -21.918300 -40.231800
C 4.551200 -23.434000 -42.975300
C 4.647100 -22.032300 -41.181600
C 5.041400 -22.458700 -43.832400
C 5.099000 -20.980300 -41.958200
H 5.155300 -22.661600 -44.772500
H 5.281000 -20.098900 -41.553400
C 5.319400 -21.198500 -43.314800
O 5.668400 -18.900800 -43.755600
C 5.782700 -20.067700 -44.149200
N 6.331300 -20.354700 -45.318000
H 6.404600 -21.226400 -45.569300
H 6.676500 -19.675300 -45.772400
36
Fragment
H 0.836600 -26.049900 -32.439500
H 0.839500 -24.064600 -33.773000
C 1.162300 -25.999800 -33.411400
N 1.173700 -24.848600 -34.069600
N 1.721000 -26.987800 -34.077100
C 1.785600 -25.116600 -35.284900
O 1.837300 -23.055600 -36.464500
C 2.087200 -24.238100 -36.371200
C 2.095800 -26.429100 -35.246100
H 2.226300 -28.978100 -36.156400
H 2.417100 -23.767700 -39.007600
N 2.739800 -27.047600 -36.302000
N 2.769600 -24.944100 -37.391000
C 3.045500 -28.482100 -36.241700
C 3.110300 -26.315600 -37.385500
C 3.187100 -24.148300 -38.577000
H 3.482000 -28.741000 -37.047300
H 3.616200 -28.661100 -35.498600
H 3.644800 -24.719300 -39.206400
O 3.757000 -26.790700 -38.305600
H 3.780200 -23.449800 -38.302400
H 4.319000 -24.313200 -43.327600
N 4.367000 -23.249700 -41.663500
H 4.506400 -21.918300 -40.231800
C 4.551200 -23.434000 -42.975300
C 4.647100 -22.032300 -41.181600
C 5.041400 -22.458700 -43.832400
C 5.099000 -20.980300 -41.958200
H 5.155300 -22.661600 -44.772500
H 5.281000 -20.098900 -41.553400
C 5.319400 -21.198500 -43.314800
O 5.668400 -18.900800 -43.755600
C 5.782700 -20.067700 -44.149200
N 6.331300 -20.354700 -45.318000
H 6.404600 -21.226400 -45.569300
H 6.676500 -19.675300 -45.772400
