21
Fragment
H 0.836600 -26.049900 -32.439500
H 0.839500 -24.064600 -33.773000
C 1.162300 -25.999800 -33.411400
N 1.173700 -24.848600 -34.069600
N 1.721000 -26.987800 -34.077100
C 1.785600 -25.116600 -35.284900
O 1.837300 -23.055600 -36.464500
C 2.087200 -24.238100 -36.371200
C 2.095800 -26.429100 -35.246100
H 2.226300 -28.978100 -36.156400
H 2.417100 -23.767700 -39.007600
N 2.739800 -27.047600 -36.302000
N 2.769600 -24.944100 -37.391000
C 3.045500 -28.482100 -36.241700
C 3.110300 -26.315600 -37.385500
C 3.187100 -24.148300 -38.577000
H 3.482000 -28.741000 -37.047300
H 3.616200 -28.661100 -35.498600
H 3.644800 -24.719300 -39.206400
O 3.757000 -26.790700 -38.305600
H 3.780200 -23.449800 -38.302400
21
Fragment
H -2.991100 -26.049900 -32.439500
H -2.988200 -24.064600 -33.773000
C -2.665500 -25.999800 -33.411400
N -2.654000 -24.848600 -34.069600
N -2.106700 -26.987800 -34.077100
C -2.042100 -25.116600 -35.284900
O -1.990400 -23.055600 -36.464500
C -1.740500 -24.238100 -36.371200
C -1.732000 -26.429100 -35.246100
H -1.601500 -28.978100 -36.156400
H -1.410600 -23.767700 -39.007600
N -1.087900 -27.047600 -36.302000
N -1.058200 -24.944100 -37.391000
C -0.782300 -28.482100 -36.241700
C -0.717500 -26.315600 -37.385500
C -0.640700 -24.148300 -38.577000
H -0.345800 -28.741000 -37.047300
H -0.211500 -28.661100 -35.498600
H -0.183000 -24.719300 -39.206400
O -0.070700 -26.790700 -38.305600
H -0.047600 -23.449800 -38.302400
42
Fragment
H 0.836600 -26.049900 -32.439500
H 0.839500 -24.064600 -33.773000
C 1.162300 -25.999800 -33.411400
N 1.173700 -24.848600 -34.069600
N 1.721000 -26.987800 -34.077100
C 1.785600 -25.116600 -35.284900
O 1.837300 -23.055600 -36.464500
C 2.087200 -24.238100 -36.371200
C 2.095800 -26.429100 -35.246100
H 2.226300 -28.978100 -36.156400
H 2.417100 -23.767700 -39.007600
N 2.739800 -27.047600 -36.302000
N 2.769600 -24.944100 -37.391000
C 3.045500 -28.482100 -36.241700
C 3.110300 -26.315600 -37.385500
C 3.187100 -24.148300 -38.577000
H 3.482000 -28.741000 -37.047300
H 3.616200 -28.661100 -35.498600
H 3.644800 -24.719300 -39.206400
O 3.757000 -26.790700 -38.305600
H 3.780200 -23.449800 -38.302400
H -2.991100 -26.049900 -32.439500
H -2.988200 -24.064600 -33.773000
C -2.665500 -25.999800 -33.411400
N -2.654000 -24.848600 -34.069600
N -2.106700 -26.987800 -34.077100
C -2.042100 -25.116600 -35.284900
O -1.990400 -23.055600 -36.464500
C -1.740500 -24.238100 -36.371200
C -1.732000 -26.429100 -35.246100
H -1.601500 -28.978100 -36.156400
H -1.410600 -23.767700 -39.007600
N -1.087900 -27.047600 -36.302000
N -1.058200 -24.944100 -37.391000
C -0.782300 -28.482100 -36.241700
C -0.717500 -26.315600 -37.385500
C -0.640700 -24.148300 -38.577000
H -0.345800 -28.741000 -37.047300
H -0.211500 -28.661100 -35.498600
H -0.183000 -24.719300 -39.206400
O -0.070700 -26.790700 -38.305600
H -0.047600 -23.449800 -38.302400
