21
Fragment
H 0.836600 -26.049900 -32.439500
H 0.839500 -24.064600 -33.773000
C 1.162300 -25.999800 -33.411400
N 1.173700 -24.848600 -34.069600
N 1.721000 -26.987800 -34.077100
C 1.785600 -25.116600 -35.284900
O 1.837300 -23.055600 -36.464500
C 2.087200 -24.238100 -36.371200
C 2.095800 -26.429100 -35.246100
H 2.226300 -28.978100 -36.156400
H 2.417100 -23.767700 -39.007600
N 2.739800 -27.047600 -36.302000
N 2.769600 -24.944100 -37.391000
C 3.045500 -28.482100 -36.241700
C 3.110300 -26.315600 -37.385500
C 3.187100 -24.148300 -38.577000
H 3.482000 -28.741000 -37.047300
H 3.616200 -28.661100 -35.498600
H 3.644800 -24.719300 -39.206400
O 3.757000 -26.790700 -38.305600
H 3.780200 -23.449800 -38.302400
15
Fragment
H 2.498100 -17.195600 -32.717500
N 2.546100 -18.259000 -31.053400
H 2.685500 -19.590500 -29.621700
C 2.730300 -18.074700 -32.365200
C 2.826300 -19.476400 -30.571500
C 3.220600 -19.050000 -33.222300
C 3.278100 -20.528400 -31.348100
H 3.334400 -18.847100 -34.162400
H 3.460100 -21.409900 -30.943300
C 3.498500 -20.310200 -32.704800
O 3.847500 -22.608000 -33.145500
C 3.961800 -21.441100 -33.539100
N 4.510500 -21.154000 -34.707900
H 4.583700 -20.282300 -34.959200
H 4.855600 -21.833400 -35.162300
36
Fragment
H 0.836600 -26.049900 -32.439500
H 0.839500 -24.064600 -33.773000
C 1.162300 -25.999800 -33.411400
N 1.173700 -24.848600 -34.069600
N 1.721000 -26.987800 -34.077100
C 1.785600 -25.116600 -35.284900
O 1.837300 -23.055600 -36.464500
C 2.087200 -24.238100 -36.371200
C 2.095800 -26.429100 -35.246100
H 2.226300 -28.978100 -36.156400
H 2.417100 -23.767700 -39.007600
N 2.739800 -27.047600 -36.302000
N 2.769600 -24.944100 -37.391000
C 3.045500 -28.482100 -36.241700
C 3.110300 -26.315600 -37.385500
C 3.187100 -24.148300 -38.577000
H 3.482000 -28.741000 -37.047300
H 3.616200 -28.661100 -35.498600
H 3.644800 -24.719300 -39.206400
O 3.757000 -26.790700 -38.305600
H 3.780200 -23.449800 -38.302400
H 2.498100 -17.195600 -32.717500
N 2.546100 -18.259000 -31.053400
H 2.685500 -19.590500 -29.621700
C 2.730300 -18.074700 -32.365200
C 2.826300 -19.476400 -30.571500
C 3.220600 -19.050000 -33.222300
C 3.278100 -20.528400 -31.348100
H 3.334400 -18.847100 -34.162400
H 3.460100 -21.409900 -30.943300
C 3.498500 -20.310200 -32.704800
O 3.847500 -22.608000 -33.145500
C 3.961800 -21.441100 -33.539100
N 4.510500 -21.154000 -34.707900
H 4.583700 -20.282300 -34.959200
H 4.855600 -21.833400 -35.162300
