21
Fragment
H 0.836600 -26.049900 -32.439500
H 0.839500 -24.064600 -33.773000
C 1.162300 -25.999800 -33.411400
N 1.173700 -24.848600 -34.069600
N 1.721000 -26.987800 -34.077100
C 1.785600 -25.116600 -35.284900
O 1.837300 -23.055600 -36.464500
C 2.087200 -24.238100 -36.371200
C 2.095800 -26.429100 -35.246100
H 2.226300 -28.978100 -36.156400
H 2.417100 -23.767700 -39.007600
N 2.739800 -27.047600 -36.302000
N 2.769600 -24.944100 -37.391000
C 3.045500 -28.482100 -36.241700
C 3.110300 -26.315600 -37.385500
C 3.187100 -24.148300 -38.577000
H 3.482000 -28.741000 -37.047300
H 3.616200 -28.661100 -35.498600
H 3.644800 -24.719300 -39.206400
O 3.757000 -26.790700 -38.305600
H 3.780200 -23.449800 -38.302400
15
Fragment
H -1.586000 -27.977100 -28.498300
H -1.314100 -29.528200 -28.701400
N -1.240800 -28.656500 -28.952600
C -0.692200 -28.369400 -30.121400
O -0.577900 -27.202500 -30.515000
C -0.228900 -29.500300 -30.955800
H -0.190400 -28.400600 -32.717300
H -0.064800 -30.963400 -29.498200
C -0.008400 -29.282100 -32.312400
C 0.049100 -30.760500 -30.438200
C 0.443400 -30.334100 -33.089100
C 0.539300 -31.735800 -31.295300
H 0.584200 -30.220000 -34.038900
N 0.723500 -31.551500 -32.607100
H 0.771500 -32.614900 -30.943100
36
Fragment
H 0.836600 -26.049900 -32.439500
H 0.839500 -24.064600 -33.773000
C 1.162300 -25.999800 -33.411400
N 1.173700 -24.848600 -34.069600
N 1.721000 -26.987800 -34.077100
C 1.785600 -25.116600 -35.284900
O 1.837300 -23.055600 -36.464500
C 2.087200 -24.238100 -36.371200
C 2.095800 -26.429100 -35.246100
H 2.226300 -28.978100 -36.156400
H 2.417100 -23.767700 -39.007600
N 2.739800 -27.047600 -36.302000
N 2.769600 -24.944100 -37.391000
C 3.045500 -28.482100 -36.241700
C 3.110300 -26.315600 -37.385500
C 3.187100 -24.148300 -38.577000
H 3.482000 -28.741000 -37.047300
H 3.616200 -28.661100 -35.498600
H 3.644800 -24.719300 -39.206400
O 3.757000 -26.790700 -38.305600
H 3.780200 -23.449800 -38.302400
H -1.586000 -27.977100 -28.498300
H -1.314100 -29.528200 -28.701400
N -1.240800 -28.656500 -28.952600
C -0.692200 -28.369400 -30.121400
O -0.577900 -27.202500 -30.515000
C -0.228900 -29.500300 -30.955800
H -0.190400 -28.400600 -32.717300
H -0.064800 -30.963400 -29.498200
C -0.008400 -29.282100 -32.312400
C 0.049100 -30.760500 -30.438200
C 0.443400 -30.334100 -33.089100
C 0.539300 -31.735800 -31.295300
H 0.584200 -30.220000 -34.038900
N 0.723500 -31.551500 -32.607100
H 0.771500 -32.614900 -30.943100
