21
Fragment
H 0.836600 -26.049900 -32.439500
H 0.839500 -24.064600 -33.773000
C 1.162300 -25.999800 -33.411400
N 1.173700 -24.848600 -34.069600
N 1.721000 -26.987800 -34.077100
C 1.785600 -25.116600 -35.284900
O 1.837300 -23.055600 -36.464500
C 2.087200 -24.238100 -36.371200
C 2.095800 -26.429100 -35.246100
H 2.226300 -28.978100 -36.156400
H 2.417100 -23.767700 -39.007600
N 2.739800 -27.047600 -36.302000
N 2.769600 -24.944100 -37.391000
C 3.045500 -28.482100 -36.241700
C 3.110300 -26.315600 -37.385500
C 3.187100 -24.148300 -38.577000
H 3.482000 -28.741000 -37.047300
H 3.616200 -28.661100 -35.498600
H 3.644800 -24.719300 -39.206400
O 3.757000 -26.790700 -38.305600
H 3.780200 -23.449800 -38.302400
21
Fragment
H 1.310400 -31.751500 -35.968200
O 1.333500 -35.092500 -35.965000
H 1.445700 -33.021000 -35.064200
H 1.474300 -36.962900 -38.772000
H 1.608500 -37.042700 -37.223400
C 1.903400 -32.450000 -35.693600
C 1.980200 -34.617300 -36.885100
C 2.045100 -36.783900 -38.028900
N 2.320900 -33.245900 -36.879600
N 2.350700 -35.349300 -37.968600
H 2.673400 -32.069500 -35.263100
H 2.864200 -37.279800 -38.114200
C 2.994800 -34.730900 -39.024500
C 3.003300 -32.539900 -37.899500
O 3.253200 -31.357400 -37.806100
C 3.304900 -33.418400 -38.985700
N 3.369500 -35.289600 -40.193600
N 3.916800 -33.150400 -40.201000
C 3.928200 -34.301500 -40.859200
H 4.251000 -32.366400 -40.497700
H 4.253900 -34.351600 -41.831100
42
Fragment
H 0.836600 -26.049900 -32.439500
H 0.839500 -24.064600 -33.773000
C 1.162300 -25.999800 -33.411400
N 1.173700 -24.848600 -34.069600
N 1.721000 -26.987800 -34.077100
C 1.785600 -25.116600 -35.284900
O 1.837300 -23.055600 -36.464500
C 2.087200 -24.238100 -36.371200
C 2.095800 -26.429100 -35.246100
H 2.226300 -28.978100 -36.156400
H 2.417100 -23.767700 -39.007600
N 2.739800 -27.047600 -36.302000
N 2.769600 -24.944100 -37.391000
C 3.045500 -28.482100 -36.241700
C 3.110300 -26.315600 -37.385500
C 3.187100 -24.148300 -38.577000
H 3.482000 -28.741000 -37.047300
H 3.616200 -28.661100 -35.498600
H 3.644800 -24.719300 -39.206400
O 3.757000 -26.790700 -38.305600
H 3.780200 -23.449800 -38.302400
H 1.310400 -31.751500 -35.968200
O 1.333500 -35.092500 -35.965000
H 1.445700 -33.021000 -35.064200
H 1.474300 -36.962900 -38.772000
H 1.608500 -37.042700 -37.223400
C 1.903400 -32.450000 -35.693600
C 1.980200 -34.617300 -36.885100
C 2.045100 -36.783900 -38.028900
N 2.320900 -33.245900 -36.879600
N 2.350700 -35.349300 -37.968600
H 2.673400 -32.069500 -35.263100
H 2.864200 -37.279800 -38.114200
C 2.994800 -34.730900 -39.024500
C 3.003300 -32.539900 -37.899500
O 3.253200 -31.357400 -37.806100
C 3.304900 -33.418400 -38.985700
N 3.369500 -35.289600 -40.193600
N 3.916800 -33.150400 -40.201000
C 3.928200 -34.301500 -40.859200
H 4.251000 -32.366400 -40.497700
H 4.253900 -34.351600 -41.831100
