23
Fragment
H -6.568500 -25.892800 -17.210600
N -6.519900 -24.025100 -16.576400
C -6.390000 -25.307100 -16.511100
H -6.235800 -28.020100 -16.464900
N -6.153700 -23.508400 -15.337800
N -5.958600 -25.680200 -15.284400
C -5.873300 -28.096200 -15.612400
C -5.830900 -24.517900 -14.604900
C -5.665300 -26.995600 -14.816000
H -5.630300 -30.095700 -15.587900
H -5.547300 -24.454900 -13.721500
C -5.517400 -29.323700 -15.081400
N -5.172600 -27.036500 -13.589200
C -5.000600 -29.409600 -13.818500
C -4.855600 -28.237500 -13.118100
H -4.758000 -30.227900 -13.448800
N -4.340800 -28.224500 -11.799000
H -4.243100 -26.251800 -11.266200
C -4.082800 -27.133800 -11.015300
H -4.016400 -30.161800 -11.305200
C -3.956600 -29.273700 -11.038800
N -3.581800 -27.498700 -9.871900
N -3.496500 -28.888400 -9.895400
23
Fragment
N -1.352500 -30.332700 -12.922400
N -1.304500 -28.942300 -12.918800
C -0.854300 -30.732500 -11.800800
C -0.781600 -28.585800 -11.788100
H -0.770600 -31.624700 -11.550700
H -0.639000 -27.705700 -11.526300
N -0.467600 -29.681100 -11.034300
C 0.116900 -29.707000 -9.745900
N 0.254200 -28.503100 -9.191500
H 0.262900 -25.923100 -8.926000
H 0.388400 -31.703300 -9.585600
C 0.511000 -30.886100 -9.160700
C 0.558200 -25.995500 -8.047200
N 0.690000 -24.997200 -7.230900
C 0.824800 -28.465200 -8.001900
N 0.908900 -27.157600 -7.448300
C 1.095800 -30.803600 -7.916700
N 1.159100 -25.519400 -6.032200
C 1.271300 -29.573600 -7.318700
C 1.277600 -26.798900 -6.192600
H 1.371400 -31.576400 -7.479100
H 1.574500 -27.389600 -5.538400
H 1.675700 -29.495500 -6.485200
46
Fragment
H -6.568500 -25.892800 -17.210600
N -6.519900 -24.025100 -16.576400
C -6.390000 -25.307100 -16.511100
H -6.235800 -28.020100 -16.464900
N -6.153700 -23.508400 -15.337800
N -5.958600 -25.680200 -15.284400
C -5.873300 -28.096200 -15.612400
C -5.830900 -24.517900 -14.604900
C -5.665300 -26.995600 -14.816000
H -5.630300 -30.095700 -15.587900
H -5.547300 -24.454900 -13.721500
C -5.517400 -29.323700 -15.081400
N -5.172600 -27.036500 -13.589200
C -5.000600 -29.409600 -13.818500
C -4.855600 -28.237500 -13.118100
H -4.758000 -30.227900 -13.448800
N -4.340800 -28.224500 -11.799000
H -4.243100 -26.251800 -11.266200
C -4.082800 -27.133800 -11.015300
H -4.016400 -30.161800 -11.305200
C -3.956600 -29.273700 -11.038800
N -3.581800 -27.498700 -9.871900
N -3.496500 -28.888400 -9.895400
N -1.352500 -30.332700 -12.922400
N -1.304500 -28.942300 -12.918800
C -0.854300 -30.732500 -11.800800
C -0.781600 -28.585800 -11.788100
H -0.770600 -31.624700 -11.550700
H -0.639000 -27.705700 -11.526300
N -0.467600 -29.681100 -11.034300
C 0.116900 -29.707000 -9.745900
N 0.254200 -28.503100 -9.191500
H 0.262900 -25.923100 -8.926000
H 0.388400 -31.703300 -9.585600
C 0.511000 -30.886100 -9.160700
C 0.558200 -25.995500 -8.047200
N 0.690000 -24.997200 -7.230900
C 0.824800 -28.465200 -8.001900
N 0.908900 -27.157600 -7.448300
C 1.095800 -30.803600 -7.916700
N 1.159100 -25.519400 -6.032200
C 1.271300 -29.573600 -7.318700
C 1.277600 -26.798900 -6.192600
H 1.371400 -31.576400 -7.479100
H 1.574500 -27.389600 -5.538400
H 1.675700 -29.495500 -6.485200
