23
Fragment
H -6.568500 -25.892800 -17.210600
N -6.519900 -24.025100 -16.576400
C -6.390000 -25.307100 -16.511100
H -6.235800 -28.020100 -16.464900
N -6.153700 -23.508400 -15.337800
N -5.958600 -25.680200 -15.284400
C -5.873300 -28.096200 -15.612400
C -5.830900 -24.517900 -14.604900
C -5.665300 -26.995600 -14.816000
H -5.630300 -30.095700 -15.587900
H -5.547300 -24.454900 -13.721500
C -5.517400 -29.323700 -15.081400
N -5.172600 -27.036500 -13.589200
C -5.000600 -29.409600 -13.818500
C -4.855600 -28.237500 -13.118100
H -4.758000 -30.227900 -13.448800
N -4.340800 -28.224500 -11.799000
H -4.243100 -26.251800 -11.266200
C -4.082800 -27.133800 -11.015300
H -4.016400 -30.161800 -11.305200
C -3.956600 -29.273700 -11.038800
N -3.581800 -27.498700 -9.871900
N -3.496500 -28.888400 -9.895400
23
Fragment
N -11.949900 -30.332700 -21.982500
N -11.902000 -28.942300 -21.978900
C -11.451800 -30.732500 -20.860900
C -11.379100 -28.585800 -20.848200
H -11.368000 -31.624700 -20.610800
H -11.236400 -27.705700 -20.586400
N -11.065100 -29.681100 -20.094400
C -10.480500 -29.707000 -18.806000
N -10.343200 -28.503100 -18.251600
H -10.334500 -25.923100 -17.986100
H -10.209000 -31.703300 -18.645700
C -10.086500 -30.886100 -18.220800
C -10.039300 -25.995500 -17.107300
N -9.907400 -24.997200 -16.291000
C -9.772600 -28.465200 -17.062000
N -9.688600 -27.157600 -16.508400
C -9.501700 -30.803600 -16.976800
N -9.438400 -25.519400 -15.092300
C -9.326200 -29.573600 -16.378800
C -9.319900 -26.798900 -15.252700
H -9.226000 -31.576400 -16.539200
H -9.023000 -27.389600 -14.598500
H -8.921700 -29.495500 -15.545300
46
Fragment
H -6.568500 -25.892800 -17.210600
N -6.519900 -24.025100 -16.576400
C -6.390000 -25.307100 -16.511100
H -6.235800 -28.020100 -16.464900
N -6.153700 -23.508400 -15.337800
N -5.958600 -25.680200 -15.284400
C -5.873300 -28.096200 -15.612400
C -5.830900 -24.517900 -14.604900
C -5.665300 -26.995600 -14.816000
H -5.630300 -30.095700 -15.587900
H -5.547300 -24.454900 -13.721500
C -5.517400 -29.323700 -15.081400
N -5.172600 -27.036500 -13.589200
C -5.000600 -29.409600 -13.818500
C -4.855600 -28.237500 -13.118100
H -4.758000 -30.227900 -13.448800
N -4.340800 -28.224500 -11.799000
H -4.243100 -26.251800 -11.266200
C -4.082800 -27.133800 -11.015300
H -4.016400 -30.161800 -11.305200
C -3.956600 -29.273700 -11.038800
N -3.581800 -27.498700 -9.871900
N -3.496500 -28.888400 -9.895400
N -11.949900 -30.332700 -21.982500
N -11.902000 -28.942300 -21.978900
C -11.451800 -30.732500 -20.860900
C -11.379100 -28.585800 -20.848200
H -11.368000 -31.624700 -20.610800
H -11.236400 -27.705700 -20.586400
N -11.065100 -29.681100 -20.094400
C -10.480500 -29.707000 -18.806000
N -10.343200 -28.503100 -18.251600
H -10.334500 -25.923100 -17.986100
H -10.209000 -31.703300 -18.645700
C -10.086500 -30.886100 -18.220800
C -10.039300 -25.995500 -17.107300
N -9.907400 -24.997200 -16.291000
C -9.772600 -28.465200 -17.062000
N -9.688600 -27.157600 -16.508400
C -9.501700 -30.803600 -16.976800
N -9.438400 -25.519400 -15.092300
C -9.326200 -29.573600 -16.378800
C -9.319900 -26.798900 -15.252700
H -9.226000 -31.576400 -16.539200
H -9.023000 -27.389600 -14.598500
H -8.921700 -29.495500 -15.545300
