23
Fragment
H -6.568500 -25.892800 -17.210600
N -6.519900 -24.025100 -16.576400
C -6.390000 -25.307100 -16.511100
H -6.235800 -28.020100 -16.464900
N -6.153700 -23.508400 -15.337800
N -5.958600 -25.680200 -15.284400
C -5.873300 -28.096200 -15.612400
C -5.830900 -24.517900 -14.604900
C -5.665300 -26.995600 -14.816000
H -5.630300 -30.095700 -15.587900
H -5.547300 -24.454900 -13.721500
C -5.517400 -29.323700 -15.081400
N -5.172600 -27.036500 -13.589200
C -5.000600 -29.409600 -13.818500
C -4.855600 -28.237500 -13.118100
H -4.758000 -30.227900 -13.448800
N -4.340800 -28.224500 -11.799000
H -4.243100 -26.251800 -11.266200
C -4.082800 -27.133800 -11.015300
H -4.016400 -30.161800 -11.305200
C -3.956600 -29.273700 -11.038800
N -3.581800 -27.498700 -9.871900
N -3.496500 -28.888400 -9.895400
23
Fragment
H -10.114000 -25.892800 -26.270700
N -10.065400 -24.025100 -25.636500
C -9.935500 -25.307100 -25.571200
H -9.781300 -28.020100 -25.525000
N -9.699200 -23.508400 -24.397900
N -9.504100 -25.680200 -24.344500
C -9.418700 -28.096200 -24.672500
C -9.376400 -24.517900 -23.665000
C -9.210800 -26.995600 -23.876100
H -9.175800 -30.095700 -24.648000
H -9.092800 -24.454900 -22.781600
C -9.062900 -29.323700 -24.141500
N -8.718000 -27.036500 -22.649300
C -8.546100 -29.409600 -22.878600
C -8.401100 -28.237500 -22.178200
H -8.303400 -30.227900 -22.508900
N -7.886300 -28.224500 -20.859100
H -7.788500 -26.251800 -20.326300
C -7.628200 -27.133800 -20.075400
H -7.561900 -30.161800 -20.365300
C -7.502100 -29.273700 -20.098900
N -7.127200 -27.498700 -18.932000
N -7.041900 -28.888400 -18.955500
46
Fragment
H -6.568500 -25.892800 -17.210600
N -6.519900 -24.025100 -16.576400
C -6.390000 -25.307100 -16.511100
H -6.235800 -28.020100 -16.464900
N -6.153700 -23.508400 -15.337800
N -5.958600 -25.680200 -15.284400
C -5.873300 -28.096200 -15.612400
C -5.830900 -24.517900 -14.604900
C -5.665300 -26.995600 -14.816000
H -5.630300 -30.095700 -15.587900
H -5.547300 -24.454900 -13.721500
C -5.517400 -29.323700 -15.081400
N -5.172600 -27.036500 -13.589200
C -5.000600 -29.409600 -13.818500
C -4.855600 -28.237500 -13.118100
H -4.758000 -30.227900 -13.448800
N -4.340800 -28.224500 -11.799000
H -4.243100 -26.251800 -11.266200
C -4.082800 -27.133800 -11.015300
H -4.016400 -30.161800 -11.305200
C -3.956600 -29.273700 -11.038800
N -3.581800 -27.498700 -9.871900
N -3.496500 -28.888400 -9.895400
H -10.114000 -25.892800 -26.270700
N -10.065400 -24.025100 -25.636500
C -9.935500 -25.307100 -25.571200
H -9.781300 -28.020100 -25.525000
N -9.699200 -23.508400 -24.397900
N -9.504100 -25.680200 -24.344500
C -9.418700 -28.096200 -24.672500
C -9.376400 -24.517900 -23.665000
C -9.210800 -26.995600 -23.876100
H -9.175800 -30.095700 -24.648000
H -9.092800 -24.454900 -22.781600
C -9.062900 -29.323700 -24.141500
N -8.718000 -27.036500 -22.649300
C -8.546100 -29.409600 -22.878600
C -8.401100 -28.237500 -22.178200
H -8.303400 -30.227900 -22.508900
N -7.886300 -28.224500 -20.859100
H -7.788500 -26.251800 -20.326300
C -7.628200 -27.133800 -20.075400
H -7.561900 -30.161800 -20.365300
C -7.502100 -29.273700 -20.098900
N -7.127200 -27.498700 -18.932000
N -7.041900 -28.888400 -18.955500
