23
Fragment
H -6.568500 -25.892800 -17.210600
N -6.519900 -24.025100 -16.576400
C -6.390000 -25.307100 -16.511100
H -6.235800 -28.020100 -16.464900
N -6.153700 -23.508400 -15.337800
N -5.958600 -25.680200 -15.284400
C -5.873300 -28.096200 -15.612400
C -5.830900 -24.517900 -14.604900
C -5.665300 -26.995600 -14.816000
H -5.630300 -30.095700 -15.587900
H -5.547300 -24.454900 -13.721500
C -5.517400 -29.323700 -15.081400
N -5.172600 -27.036500 -13.589200
C -5.000600 -29.409600 -13.818500
C -4.855600 -28.237500 -13.118100
H -4.758000 -30.227900 -13.448800
N -4.340800 -28.224500 -11.799000
H -4.243100 -26.251800 -11.266200
C -4.082800 -27.133800 -11.015300
H -4.016400 -30.161800 -11.305200
C -3.956600 -29.273700 -11.038800
N -3.581800 -27.498700 -9.871900
N -3.496500 -28.888400 -9.895400
23
Fragment
H -3.023100 -25.892800 -8.150500
N -2.974500 -24.025100 -7.516300
C -2.844600 -25.307100 -7.451000
H -2.690400 -28.020100 -7.404800
N -2.608300 -23.508400 -6.277700
N -2.413200 -25.680200 -6.224300
C -2.327800 -28.096200 -6.552300
C -2.285500 -24.517900 -5.544800
C -2.119900 -26.995600 -5.755900
H -2.084800 -30.095700 -6.527800
H -2.001800 -24.454900 -4.661400
C -1.972000 -29.323700 -6.021300
N -1.627100 -27.036500 -4.529100
C -1.455200 -29.409600 -4.758400
C -1.310200 -28.237500 -4.058000
H -1.212500 -30.227900 -4.388700
N -0.795400 -28.224500 -2.738900
H -0.697600 -26.251800 -2.206100
C -0.537300 -27.133800 -1.955200
H -0.471000 -30.161800 -2.245100
C -0.411100 -29.273700 -1.978700
N -0.036300 -27.498700 -0.811800
N 0.049000 -28.888400 -0.835300
46
Fragment
H -6.568500 -25.892800 -17.210600
N -6.519900 -24.025100 -16.576400
C -6.390000 -25.307100 -16.511100
H -6.235800 -28.020100 -16.464900
N -6.153700 -23.508400 -15.337800
N -5.958600 -25.680200 -15.284400
C -5.873300 -28.096200 -15.612400
C -5.830900 -24.517900 -14.604900
C -5.665300 -26.995600 -14.816000
H -5.630300 -30.095700 -15.587900
H -5.547300 -24.454900 -13.721500
C -5.517400 -29.323700 -15.081400
N -5.172600 -27.036500 -13.589200
C -5.000600 -29.409600 -13.818500
C -4.855600 -28.237500 -13.118100
H -4.758000 -30.227900 -13.448800
N -4.340800 -28.224500 -11.799000
H -4.243100 -26.251800 -11.266200
C -4.082800 -27.133800 -11.015300
H -4.016400 -30.161800 -11.305200
C -3.956600 -29.273700 -11.038800
N -3.581800 -27.498700 -9.871900
N -3.496500 -28.888400 -9.895400
H -3.023100 -25.892800 -8.150500
N -2.974500 -24.025100 -7.516300
C -2.844600 -25.307100 -7.451000
H -2.690400 -28.020100 -7.404800
N -2.608300 -23.508400 -6.277700
N -2.413200 -25.680200 -6.224300
C -2.327800 -28.096200 -6.552300
C -2.285500 -24.517900 -5.544800
C -2.119900 -26.995600 -5.755900
H -2.084800 -30.095700 -6.527800
H -2.001800 -24.454900 -4.661400
C -1.972000 -29.323700 -6.021300
N -1.627100 -27.036500 -4.529100
C -1.455200 -29.409600 -4.758400
C -1.310200 -28.237500 -4.058000
H -1.212500 -30.227900 -4.388700
N -0.795400 -28.224500 -2.738900
H -0.697600 -26.251800 -2.206100
C -0.537300 -27.133800 -1.955200
H -0.471000 -30.161800 -2.245100
C -0.411100 -29.273700 -1.978700
N -0.036300 -27.498700 -0.811800
N 0.049000 -28.888400 -0.835300
