23
Fragment
H -6.568500 -25.892800 -17.210600
N -6.519900 -24.025100 -16.576400
C -6.390000 -25.307100 -16.511100
H -6.235800 -28.020100 -16.464900
N -6.153700 -23.508400 -15.337800
N -5.958600 -25.680200 -15.284400
C -5.873300 -28.096200 -15.612400
C -5.830900 -24.517900 -14.604900
C -5.665300 -26.995600 -14.816000
H -5.630300 -30.095700 -15.587900
H -5.547300 -24.454900 -13.721500
C -5.517400 -29.323700 -15.081400
N -5.172600 -27.036500 -13.589200
C -5.000600 -29.409600 -13.818500
C -4.855600 -28.237500 -13.118100
H -4.758000 -30.227900 -13.448800
N -4.340800 -28.224500 -11.799000
H -4.243100 -26.251800 -11.266200
C -4.082800 -27.133800 -11.015300
H -4.016400 -30.161800 -11.305200
C -3.956600 -29.273700 -11.038800
N -3.581800 -27.498700 -9.871900
N -3.496500 -28.888400 -9.895400
23
Fragment
N -7.139900 -19.957400 -17.284900
N -7.054600 -18.567700 -17.308400
C -6.679800 -20.342700 -16.141500
H -6.620000 -21.230800 -15.875100
C -6.553600 -18.202800 -16.165000
H -6.393300 -17.320800 -15.914100
N -6.295600 -19.293500 -15.381300
H -5.878400 -21.296900 -13.731500
C -5.780800 -19.306500 -14.062200
C -5.635700 -20.478600 -13.361800
N -5.463800 -18.105500 -13.591100
C -5.118900 -20.392700 -12.098900
H -5.089100 -15.523900 -13.458800
H -5.006100 -21.164700 -11.592400
C -4.971100 -18.064600 -12.364300
C -4.805400 -15.586900 -12.575400
C -4.763100 -19.165200 -11.567900
N -4.677800 -16.749200 -11.895900
N -4.482600 -14.577400 -11.842500
H -4.400500 -19.089100 -10.715400
C -4.246400 -16.376100 -10.669200
N -4.116500 -15.094100 -10.603900
H -4.067800 -16.961800 -9.969700
46
Fragment
H -6.568500 -25.892800 -17.210600
N -6.519900 -24.025100 -16.576400
C -6.390000 -25.307100 -16.511100
H -6.235800 -28.020100 -16.464900
N -6.153700 -23.508400 -15.337800
N -5.958600 -25.680200 -15.284400
C -5.873300 -28.096200 -15.612400
C -5.830900 -24.517900 -14.604900
C -5.665300 -26.995600 -14.816000
H -5.630300 -30.095700 -15.587900
H -5.547300 -24.454900 -13.721500
C -5.517400 -29.323700 -15.081400
N -5.172600 -27.036500 -13.589200
C -5.000600 -29.409600 -13.818500
C -4.855600 -28.237500 -13.118100
H -4.758000 -30.227900 -13.448800
N -4.340800 -28.224500 -11.799000
H -4.243100 -26.251800 -11.266200
C -4.082800 -27.133800 -11.015300
H -4.016400 -30.161800 -11.305200
C -3.956600 -29.273700 -11.038800
N -3.581800 -27.498700 -9.871900
N -3.496500 -28.888400 -9.895400
N -7.139900 -19.957400 -17.284900
N -7.054600 -18.567700 -17.308400
C -6.679800 -20.342700 -16.141500
H -6.620000 -21.230800 -15.875100
C -6.553600 -18.202800 -16.165000
H -6.393300 -17.320800 -15.914100
N -6.295600 -19.293500 -15.381300
H -5.878400 -21.296900 -13.731500
C -5.780800 -19.306500 -14.062200
C -5.635700 -20.478600 -13.361800
N -5.463800 -18.105500 -13.591100
C -5.118900 -20.392700 -12.098900
H -5.089100 -15.523900 -13.458800
H -5.006100 -21.164700 -11.592400
C -4.971100 -18.064600 -12.364300
C -4.805400 -15.586900 -12.575400
C -4.763100 -19.165200 -11.567900
N -4.677800 -16.749200 -11.895900
N -4.482600 -14.577400 -11.842500
H -4.400500 -19.089100 -10.715400
C -4.246400 -16.376100 -10.669200
N -4.116500 -15.094100 -10.603900
H -4.067800 -16.961800 -9.969700
