11
Fragment
O -16.280800 -12.359000 -10.702900
H -15.473700 -9.887200 -10.906500
C -15.175100 -11.804400 -10.784500
N -14.878800 -10.508000 -10.876600
H -14.076100 -14.074900 -9.848200
H -14.074400 -14.177100 -11.348500
N -13.941800 -12.410600 -10.780700
N -13.698600 -13.791600 -10.699200
N -13.520100 -10.261300 -10.919600
C -12.995200 -11.451400 -10.854200
H -12.080400 -11.619500 -10.857900
11
Fragment
O -22.712800 -12.359000 -10.702900
H -21.905700 -9.887200 -10.906500
C -21.607100 -11.804400 -10.784500
N -21.310800 -10.508000 -10.876600
H -20.508100 -14.074900 -9.848200
H -20.506400 -14.177100 -11.348500
N -20.373800 -12.410600 -10.780700
N -20.130600 -13.791600 -10.699200
N -19.952100 -10.261300 -10.919600
C -19.427200 -11.451400 -10.854200
H -18.512400 -11.619500 -10.857900
22
Fragment
O -16.280800 -12.359000 -10.702900
H -15.473700 -9.887200 -10.906500
C -15.175100 -11.804400 -10.784500
N -14.878800 -10.508000 -10.876600
H -14.076100 -14.074900 -9.848200
H -14.074400 -14.177100 -11.348500
N -13.941800 -12.410600 -10.780700
N -13.698600 -13.791600 -10.699200
N -13.520100 -10.261300 -10.919600
C -12.995200 -11.451400 -10.854200
H -12.080400 -11.619500 -10.857900
O -22.712800 -12.359000 -10.702900
H -21.905700 -9.887200 -10.906500
C -21.607100 -11.804400 -10.784500
N -21.310800 -10.508000 -10.876600
H -20.508100 -14.074900 -9.848200
H -20.506400 -14.177100 -11.348500
N -20.373800 -12.410600 -10.780700
N -20.130600 -13.791600 -10.699200
N -19.952100 -10.261300 -10.919600
C -19.427200 -11.451400 -10.854200
H -18.512400 -11.619500 -10.857900
