23
Fragment
H -17.667600 -25.389200 -16.882000
O -17.526100 -25.521700 -14.466200
N -16.872500 -25.189200 -16.617000
C -16.655000 -25.209300 -15.308700
H -16.213800 -25.001100 -17.174900
N -15.389100 -24.866400 -14.861600
H -15.224000 -24.989300 -14.044000
N -14.451700 -24.489800 -15.776400
H -13.448900 -24.334100 -13.372700
C -13.258100 -24.191600 -15.386400
O -12.741900 -23.618600 -17.681800
C -12.724900 -24.208700 -13.989900
C -12.376600 -23.779700 -16.535200
H -12.285400 -23.375000 -13.805200
H -12.096500 -24.928800 -13.896400
O -11.114800 -23.587500 -16.137500
H -10.482900 -22.380400 -17.620800
C -10.175200 -23.192000 -17.187200
H -10.107300 -23.891400 -17.856200
H -8.900300 -22.221100 -15.933800
C -8.838500 -22.960300 -16.543000
H -8.572300 -23.748300 -16.065500
H -8.186400 -22.761100 -17.221000
23
Fragment
H -13.158300 -19.092800 -12.985300
O -13.054800 -18.871300 -10.528100
N -12.388300 -19.270200 -12.661000
C -12.180100 -19.195000 -11.355700
H -11.718300 -19.420400 -13.266900
N -10.908300 -19.490900 -10.891700
H -10.741700 -19.358400 -10.079700
N -9.964800 -19.907600 -11.783100
H -8.914300 -20.305700 -9.345400
C -8.763600 -20.149800 -11.364700
C -8.241800 -20.018000 -9.967000
O -8.186500 -20.723000 -13.632000
H -8.018600 -19.100200 -9.793600
C -7.860500 -20.606600 -12.476300
H -7.457900 -20.562500 -9.864600
O -6.623800 -20.875500 -12.045900
H -5.975900 -22.119200 -13.489900
C -5.667100 -21.306200 -13.060800
H -5.563600 -20.620000 -13.738800
H -4.467100 -22.250600 -11.716100
C -4.359700 -21.549700 -12.362500
H -4.078700 -20.745500 -11.919900
H -3.696500 -21.807900 -13.006700
46
Fragment
H -17.667600 -25.389200 -16.882000
O -17.526100 -25.521700 -14.466200
N -16.872500 -25.189200 -16.617000
C -16.655000 -25.209300 -15.308700
H -16.213800 -25.001100 -17.174900
N -15.389100 -24.866400 -14.861600
H -15.224000 -24.989300 -14.044000
N -14.451700 -24.489800 -15.776400
H -13.448900 -24.334100 -13.372700
C -13.258100 -24.191600 -15.386400
O -12.741900 -23.618600 -17.681800
C -12.724900 -24.208700 -13.989900
C -12.376600 -23.779700 -16.535200
H -12.285400 -23.375000 -13.805200
H -12.096500 -24.928800 -13.896400
O -11.114800 -23.587500 -16.137500
H -10.482900 -22.380400 -17.620800
C -10.175200 -23.192000 -17.187200
H -10.107300 -23.891400 -17.856200
H -8.900300 -22.221100 -15.933800
C -8.838500 -22.960300 -16.543000
H -8.572300 -23.748300 -16.065500
H -8.186400 -22.761100 -17.221000
H -13.158300 -19.092800 -12.985300
O -13.054800 -18.871300 -10.528100
N -12.388300 -19.270200 -12.661000
C -12.180100 -19.195000 -11.355700
H -11.718300 -19.420400 -13.266900
N -10.908300 -19.490900 -10.891700
H -10.741700 -19.358400 -10.079700
N -9.964800 -19.907600 -11.783100
H -8.914300 -20.305700 -9.345400
C -8.763600 -20.149800 -11.364700
C -8.241800 -20.018000 -9.967000
O -8.186500 -20.723000 -13.632000
H -8.018600 -19.100200 -9.793600
C -7.860500 -20.606600 -12.476300
H -7.457900 -20.562500 -9.864600
O -6.623800 -20.875500 -12.045900
H -5.975900 -22.119200 -13.489900
C -5.667100 -21.306200 -13.060800
H -5.563600 -20.620000 -13.738800
H -4.467100 -22.250600 -11.716100
C -4.359700 -21.549700 -12.362500
H -4.078700 -20.745500 -11.919900
H -3.696500 -21.807900 -13.006700
