23
Fragment
H -17.667600 -25.389200 -16.882000
O -17.526100 -25.521700 -14.466200
N -16.872500 -25.189200 -16.617000
C -16.655000 -25.209300 -15.308700
H -16.213800 -25.001100 -17.174900
N -15.389100 -24.866400 -14.861600
H -15.224000 -24.989300 -14.044000
N -14.451700 -24.489800 -15.776400
H -13.448900 -24.334100 -13.372700
C -13.258100 -24.191600 -15.386400
O -12.741900 -23.618600 -17.681800
C -12.724900 -24.208700 -13.989900
C -12.376600 -23.779700 -16.535200
H -12.285400 -23.375000 -13.805200
H -12.096500 -24.928800 -13.896400
O -11.114800 -23.587500 -16.137500
H -10.482900 -22.380400 -17.620800
C -10.175200 -23.192000 -17.187200
H -10.107300 -23.891400 -17.856200
H -8.900300 -22.221100 -15.933800
C -8.838500 -22.960300 -16.543000
H -8.572300 -23.748300 -16.065500
H -8.186400 -22.761100 -17.221000
3
Fragment
H -11.188300 -20.174400 -15.365000
O -10.520500 -19.750200 -14.893500
H -9.947500 -20.295400 -14.501200
26
Fragment
H -17.667600 -25.389200 -16.882000
O -17.526100 -25.521700 -14.466200
N -16.872500 -25.189200 -16.617000
C -16.655000 -25.209300 -15.308700
H -16.213800 -25.001100 -17.174900
N -15.389100 -24.866400 -14.861600
H -15.224000 -24.989300 -14.044000
N -14.451700 -24.489800 -15.776400
H -13.448900 -24.334100 -13.372700
C -13.258100 -24.191600 -15.386400
O -12.741900 -23.618600 -17.681800
C -12.724900 -24.208700 -13.989900
C -12.376600 -23.779700 -16.535200
H -12.285400 -23.375000 -13.805200
H -12.096500 -24.928800 -13.896400
O -11.114800 -23.587500 -16.137500
H -10.482900 -22.380400 -17.620800
C -10.175200 -23.192000 -17.187200
H -10.107300 -23.891400 -17.856200
H -8.900300 -22.221100 -15.933800
C -8.838500 -22.960300 -16.543000
H -8.572300 -23.748300 -16.065500
H -8.186400 -22.761100 -17.221000
H -11.188300 -20.174400 -15.365000
O -10.520500 -19.750200 -14.893500
H -9.947500 -20.295400 -14.501200
