23
Fragment
H -17.667600 -25.389200 -16.882000
O -17.526100 -25.521700 -14.466200
N -16.872500 -25.189200 -16.617000
C -16.655000 -25.209300 -15.308700
H -16.213800 -25.001100 -17.174900
N -15.389100 -24.866400 -14.861600
H -15.224000 -24.989300 -14.044000
N -14.451700 -24.489800 -15.776400
H -13.448900 -24.334100 -13.372700
C -13.258100 -24.191600 -15.386400
O -12.741900 -23.618600 -17.681800
C -12.724900 -24.208700 -13.989900
C -12.376600 -23.779700 -16.535200
H -12.285400 -23.375000 -13.805200
H -12.096500 -24.928800 -13.896400
O -11.114800 -23.587500 -16.137500
H -10.482900 -22.380400 -17.620800
C -10.175200 -23.192000 -17.187200
H -10.107300 -23.891400 -17.856200
H -8.900300 -22.221100 -15.933800
C -8.838500 -22.960300 -16.543000
H -8.572300 -23.748300 -16.065500
H -8.186400 -22.761100 -17.221000
23
Fragment
H -17.445400 -21.506900 -16.565600
H -17.059400 -20.519700 -17.721100
C -16.793300 -21.307700 -17.243600
H -16.731500 -22.046900 -17.852800
H -15.524400 -20.376600 -15.930400
C -15.456500 -21.076000 -16.599400
H -15.148800 -21.887600 -16.165800
O -14.516900 -20.680500 -17.649100
H -13.535200 -19.339200 -19.890200
H -13.346400 -20.893000 -19.981400
C -13.255200 -20.488300 -17.251400
C -12.906800 -20.059300 -19.796700
O -12.889900 -20.649400 -16.104800
C -12.373600 -20.076400 -18.400200
H -12.182800 -19.933900 -20.413900
N -11.180100 -19.778200 -18.010200
H -10.407700 -19.278700 -19.742600
N -10.242600 -19.401600 -18.925000
H -9.418000 -19.266900 -16.611700
C -8.976700 -19.058700 -18.477900
N -8.759300 -19.078800 -17.169600
O -8.105700 -18.746300 -19.320400
H -7.964200 -18.878800 -16.904600
46
Fragment
H -17.667600 -25.389200 -16.882000
O -17.526100 -25.521700 -14.466200
N -16.872500 -25.189200 -16.617000
C -16.655000 -25.209300 -15.308700
H -16.213800 -25.001100 -17.174900
N -15.389100 -24.866400 -14.861600
H -15.224000 -24.989300 -14.044000
N -14.451700 -24.489800 -15.776400
H -13.448900 -24.334100 -13.372700
C -13.258100 -24.191600 -15.386400
O -12.741900 -23.618600 -17.681800
C -12.724900 -24.208700 -13.989900
C -12.376600 -23.779700 -16.535200
H -12.285400 -23.375000 -13.805200
H -12.096500 -24.928800 -13.896400
O -11.114800 -23.587500 -16.137500
H -10.482900 -22.380400 -17.620800
C -10.175200 -23.192000 -17.187200
H -10.107300 -23.891400 -17.856200
H -8.900300 -22.221100 -15.933800
C -8.838500 -22.960300 -16.543000
H -8.572300 -23.748300 -16.065500
H -8.186400 -22.761100 -17.221000
H -17.445400 -21.506900 -16.565600
H -17.059400 -20.519700 -17.721100
C -16.793300 -21.307700 -17.243600
H -16.731500 -22.046900 -17.852800
H -15.524400 -20.376600 -15.930400
C -15.456500 -21.076000 -16.599400
H -15.148800 -21.887600 -16.165800
O -14.516900 -20.680500 -17.649100
H -13.535200 -19.339200 -19.890200
H -13.346400 -20.893000 -19.981400
C -13.255200 -20.488300 -17.251400
C -12.906800 -20.059300 -19.796700
O -12.889900 -20.649400 -16.104800
C -12.373600 -20.076400 -18.400200
H -12.182800 -19.933900 -20.413900
N -11.180100 -19.778200 -18.010200
H -10.407700 -19.278700 -19.742600
N -10.242600 -19.401600 -18.925000
H -9.418000 -19.266900 -16.611700
C -8.976700 -19.058700 -18.477900
N -8.759300 -19.078800 -17.169600
O -8.105700 -18.746300 -19.320400
H -7.964200 -18.878800 -16.904600
