23
Fragment
H -17.667600 -25.389200 -16.882000
O -17.526100 -25.521700 -14.466200
N -16.872500 -25.189200 -16.617000
C -16.655000 -25.209300 -15.308700
H -16.213800 -25.001100 -17.174900
N -15.389100 -24.866400 -14.861600
H -15.224000 -24.989300 -14.044000
N -14.451700 -24.489800 -15.776400
H -13.448900 -24.334100 -13.372700
C -13.258100 -24.191600 -15.386400
O -12.741900 -23.618600 -17.681800
C -12.724900 -24.208700 -13.989900
C -12.376600 -23.779700 -16.535200
H -12.285400 -23.375000 -13.805200
H -12.096500 -24.928800 -13.896400
O -11.114800 -23.587500 -16.137500
H -10.482900 -22.380400 -17.620800
C -10.175200 -23.192000 -17.187200
H -10.107300 -23.891400 -17.856200
H -8.900300 -22.221100 -15.933800
C -8.838500 -22.960300 -16.543000
H -8.572300 -23.748300 -16.065500
H -8.186400 -22.761100 -17.221000
23
Fragment
H -13.391300 -22.460100 -9.517700
H -13.009100 -23.522500 -10.604500
C -12.728100 -22.718300 -10.161900
H -12.620800 -22.017400 -10.808300
H -11.524200 -23.648000 -8.785600
C -11.420700 -22.961800 -9.463600
H -11.112000 -22.148800 -9.034500
O -10.464100 -23.392500 -10.478500
H -9.629900 -23.705500 -12.659800
C -9.227300 -23.661400 -10.048100
H -9.069200 -25.167800 -12.730800
O -8.901400 -23.545000 -8.892400
C -8.846000 -24.250000 -12.557400
C -8.324300 -24.118200 -11.159700
H -8.173500 -23.962300 -13.179000
N -7.123100 -24.360400 -10.741300
H -6.346100 -24.909600 -12.444700
N -6.179600 -24.777100 -11.632700
H -5.369500 -24.847600 -9.257500
C -4.907700 -25.073000 -11.168700
N -4.699600 -24.997800 -9.863400
O -4.033100 -25.396700 -11.996300
H -3.929500 -25.175200 -9.539100
46
Fragment
H -17.667600 -25.389200 -16.882000
O -17.526100 -25.521700 -14.466200
N -16.872500 -25.189200 -16.617000
C -16.655000 -25.209300 -15.308700
H -16.213800 -25.001100 -17.174900
N -15.389100 -24.866400 -14.861600
H -15.224000 -24.989300 -14.044000
N -14.451700 -24.489800 -15.776400
H -13.448900 -24.334100 -13.372700
C -13.258100 -24.191600 -15.386400
O -12.741900 -23.618600 -17.681800
C -12.724900 -24.208700 -13.989900
C -12.376600 -23.779700 -16.535200
H -12.285400 -23.375000 -13.805200
H -12.096500 -24.928800 -13.896400
O -11.114800 -23.587500 -16.137500
H -10.482900 -22.380400 -17.620800
C -10.175200 -23.192000 -17.187200
H -10.107300 -23.891400 -17.856200
H -8.900300 -22.221100 -15.933800
C -8.838500 -22.960300 -16.543000
H -8.572300 -23.748300 -16.065500
H -8.186400 -22.761100 -17.221000
H -13.391300 -22.460100 -9.517700
H -13.009100 -23.522500 -10.604500
C -12.728100 -22.718300 -10.161900
H -12.620800 -22.017400 -10.808300
H -11.524200 -23.648000 -8.785600
C -11.420700 -22.961800 -9.463600
H -11.112000 -22.148800 -9.034500
O -10.464100 -23.392500 -10.478500
H -9.629900 -23.705500 -12.659800
C -9.227300 -23.661400 -10.048100
H -9.069200 -25.167800 -12.730800
O -8.901400 -23.545000 -8.892400
C -8.846000 -24.250000 -12.557400
C -8.324300 -24.118200 -11.159700
H -8.173500 -23.962300 -13.179000
N -7.123100 -24.360400 -10.741300
H -6.346100 -24.909600 -12.444700
N -6.179600 -24.777100 -11.632700
H -5.369500 -24.847600 -9.257500
C -4.907700 -25.073000 -11.168700
N -4.699600 -24.997800 -9.863400
O -4.033100 -25.396700 -11.996300
H -3.929500 -25.175200 -9.539100
