23
Fragment
H -17.667600 -25.389200 -16.882000
O -17.526100 -25.521700 -14.466200
N -16.872500 -25.189200 -16.617000
C -16.655000 -25.209300 -15.308700
H -16.213800 -25.001100 -17.174900
N -15.389100 -24.866400 -14.861600
H -15.224000 -24.989300 -14.044000
N -14.451700 -24.489800 -15.776400
H -13.448900 -24.334100 -13.372700
C -13.258100 -24.191600 -15.386400
O -12.741900 -23.618600 -17.681800
C -12.724900 -24.208700 -13.989900
C -12.376600 -23.779700 -16.535200
H -12.285400 -23.375000 -13.805200
H -12.096500 -24.928800 -13.896400
O -11.114800 -23.587500 -16.137500
H -10.482900 -22.380400 -17.620800
C -10.175200 -23.192000 -17.187200
H -10.107300 -23.891400 -17.856200
H -8.900300 -22.221100 -15.933800
C -8.838500 -22.960300 -16.543000
H -8.572300 -23.748300 -16.065500
H -8.186400 -22.761100 -17.221000
23
Fragment
H -13.395600 -26.256800 -11.250900
O -13.254100 -26.124300 -8.835100
N -12.600500 -26.456800 -10.985900
C -12.383000 -26.436700 -9.677600
H -11.941800 -26.644900 -11.543800
N -11.117200 -26.779600 -9.230500
H -10.952100 -26.656700 -8.412900
N -10.179700 -27.156200 -10.145300
H -9.176900 -27.311900 -7.741600
C -8.986200 -27.454400 -9.755300
O -8.469900 -28.027400 -12.050700
C -8.453000 -27.437300 -8.358800
C -8.104600 -27.866300 -10.904100
H -8.013400 -28.271000 -8.174100
H -7.824500 -26.717200 -8.265300
O -6.842800 -28.058500 -10.506400
H -6.211000 -29.265600 -11.989700
C -5.903300 -28.454000 -11.556100
H -5.835400 -27.754600 -12.225100
H -4.628300 -29.424900 -10.302700
C -4.566500 -28.685700 -10.911900
H -4.300400 -27.897700 -10.434400
H -3.914400 -28.884900 -11.589900
46
Fragment
H -17.667600 -25.389200 -16.882000
O -17.526100 -25.521700 -14.466200
N -16.872500 -25.189200 -16.617000
C -16.655000 -25.209300 -15.308700
H -16.213800 -25.001100 -17.174900
N -15.389100 -24.866400 -14.861600
H -15.224000 -24.989300 -14.044000
N -14.451700 -24.489800 -15.776400
H -13.448900 -24.334100 -13.372700
C -13.258100 -24.191600 -15.386400
O -12.741900 -23.618600 -17.681800
C -12.724900 -24.208700 -13.989900
C -12.376600 -23.779700 -16.535200
H -12.285400 -23.375000 -13.805200
H -12.096500 -24.928800 -13.896400
O -11.114800 -23.587500 -16.137500
H -10.482900 -22.380400 -17.620800
C -10.175200 -23.192000 -17.187200
H -10.107300 -23.891400 -17.856200
H -8.900300 -22.221100 -15.933800
C -8.838500 -22.960300 -16.543000
H -8.572300 -23.748300 -16.065500
H -8.186400 -22.761100 -17.221000
H -13.395600 -26.256800 -11.250900
O -13.254100 -26.124300 -8.835100
N -12.600500 -26.456800 -10.985900
C -12.383000 -26.436700 -9.677600
H -11.941800 -26.644900 -11.543800
N -11.117200 -26.779600 -9.230500
H -10.952100 -26.656700 -8.412900
N -10.179700 -27.156200 -10.145300
H -9.176900 -27.311900 -7.741600
C -8.986200 -27.454400 -9.755300
O -8.469900 -28.027400 -12.050700
C -8.453000 -27.437300 -8.358800
C -8.104600 -27.866300 -10.904100
H -8.013400 -28.271000 -8.174100
H -7.824500 -26.717200 -8.265300
O -6.842800 -28.058500 -10.506400
H -6.211000 -29.265600 -11.989700
C -5.903300 -28.454000 -11.556100
H -5.835400 -27.754600 -12.225100
H -4.628300 -29.424900 -10.302700
C -4.566500 -28.685700 -10.911900
H -4.300400 -27.897700 -10.434400
H -3.914400 -28.884900 -11.589900
