31
Fragment
H -6.455800 -8.277300 -15.867500
H -6.379500 -6.360700 -17.133100
H -5.971900 -5.161700 -6.930500
C -5.929100 -7.556900 -15.605200
C -5.874300 -6.417900 -16.354100
H -5.790300 -3.292100 -8.251100
C -5.498200 -5.210600 -7.729500
C -5.398200 -4.095100 -8.508500
C -5.172900 -7.606800 -14.437800
C -5.081600 -5.345500 -15.981700
H -5.075300 -4.582200 -16.513300
N -5.058900 -8.629000 -13.504600
H -4.989800 -7.149400 -7.524300
C -4.914500 -6.417800 -8.094000
C -4.692100 -4.200700 -9.693900
N -4.396100 -3.231000 -10.649100
C -4.370500 -6.528700 -14.083300
C -4.305500 -5.378300 -14.852300
C -4.229400 -6.553700 -9.275400
C -4.204100 -8.161300 -12.631500
C -4.127300 -5.425800 -10.067400
H -3.934100 -8.642100 -11.882600
H -3.852900 -7.365600 -9.530700
H -3.762400 -4.662200 -14.613000
N -3.747000 -6.918100 -12.908900
C -3.690900 -3.867200 -11.554200
N -3.494400 -5.179800 -11.271900
H -3.357200 -3.456800 -12.318200
C -2.819000 -6.143100 -12.117900
H -2.295200 -6.742600 -11.563200
H -2.208300 -5.675800 -12.709600
31
Fragment
H -4.268900 -3.187900 -5.855200
H -4.192700 -1.271300 -7.120800
H -3.785100 -0.072300 3.081800
C -3.742200 -2.467500 -5.592900
C -3.687400 -1.328500 -6.341800
H -3.603500 1.797300 1.761200
C -3.311300 -0.121200 2.282800
C -3.211300 0.994300 1.503800
C -2.986000 -2.517400 -4.425400
C -2.894800 -0.256100 -5.969300
H -2.888400 0.507200 -6.501000
N -2.872100 -3.539600 -3.492300
H -2.802900 -2.060000 2.488100
C -2.727600 -1.328400 1.918400
C -2.505200 0.888600 0.318400
N -2.209300 1.858300 -0.636800
C -2.183700 -1.439300 -4.071000
C -2.118700 -0.288900 -4.840000
C -2.042600 -1.464300 0.736900
C -2.017300 -3.071900 -2.619200
C -1.940400 -0.336400 -0.055100
H -1.747200 -3.552800 -1.870300
H -1.666000 -2.276200 0.481600
H -1.575500 0.427200 -4.600700
N -1.560200 -1.828700 -2.896600
C -1.504100 1.222100 -1.541900
N -1.307500 -0.090400 -1.259500
H -1.170400 1.632600 -2.305800
C -0.632200 -1.053800 -2.105600
H -0.108400 -1.653200 -1.550900
H -0.021400 -0.586400 -2.697300
62
Fragment
H -6.455800 -8.277300 -15.867500
H -6.379500 -6.360700 -17.133100
H -5.971900 -5.161700 -6.930500
C -5.929100 -7.556900 -15.605200
C -5.874300 -6.417900 -16.354100
H -5.790300 -3.292100 -8.251100
C -5.498200 -5.210600 -7.729500
C -5.398200 -4.095100 -8.508500
C -5.172900 -7.606800 -14.437800
C -5.081600 -5.345500 -15.981700
H -5.075300 -4.582200 -16.513300
N -5.058900 -8.629000 -13.504600
H -4.989800 -7.149400 -7.524300
C -4.914500 -6.417800 -8.094000
C -4.692100 -4.200700 -9.693900
N -4.396100 -3.231000 -10.649100
C -4.370500 -6.528700 -14.083300
C -4.305500 -5.378300 -14.852300
C -4.229400 -6.553700 -9.275400
C -4.204100 -8.161300 -12.631500
C -4.127300 -5.425800 -10.067400
H -3.934100 -8.642100 -11.882600
H -3.852900 -7.365600 -9.530700
H -3.762400 -4.662200 -14.613000
N -3.747000 -6.918100 -12.908900
C -3.690900 -3.867200 -11.554200
N -3.494400 -5.179800 -11.271900
H -3.357200 -3.456800 -12.318200
C -2.819000 -6.143100 -12.117900
H -2.295200 -6.742600 -11.563200
H -2.208300 -5.675800 -12.709600
H -4.268900 -3.187900 -5.855200
H -4.192700 -1.271300 -7.120800
H -3.785100 -0.072300 3.081800
C -3.742200 -2.467500 -5.592900
C -3.687400 -1.328500 -6.341800
H -3.603500 1.797300 1.761200
C -3.311300 -0.121200 2.282800
C -3.211300 0.994300 1.503800
C -2.986000 -2.517400 -4.425400
C -2.894800 -0.256100 -5.969300
H -2.888400 0.507200 -6.501000
N -2.872100 -3.539600 -3.492300
H -2.802900 -2.060000 2.488100
C -2.727600 -1.328400 1.918400
C -2.505200 0.888600 0.318400
N -2.209300 1.858300 -0.636800
C -2.183700 -1.439300 -4.071000
C -2.118700 -0.288900 -4.840000
C -2.042600 -1.464300 0.736900
C -2.017300 -3.071900 -2.619200
C -1.940400 -0.336400 -0.055100
H -1.747200 -3.552800 -1.870300
H -1.666000 -2.276200 0.481600
H -1.575500 0.427200 -4.600700
N -1.560200 -1.828700 -2.896600
C -1.504100 1.222100 -1.541900
N -1.307500 -0.090400 -1.259500
H -1.170400 1.632600 -2.305800
C -0.632200 -1.053800 -2.105600
H -0.108400 -1.653200 -1.550900
H -0.021400 -0.586400 -2.697300
