31
Fragment
H -6.455800 -8.277300 -15.867500
H -6.379500 -6.360700 -17.133100
H -5.971900 -5.161700 -6.930500
C -5.929100 -7.556900 -15.605200
C -5.874300 -6.417900 -16.354100
H -5.790300 -3.292100 -8.251100
C -5.498200 -5.210600 -7.729500
C -5.398200 -4.095100 -8.508500
C -5.172900 -7.606800 -14.437800
C -5.081600 -5.345500 -15.981700
H -5.075300 -4.582200 -16.513300
N -5.058900 -8.629000 -13.504600
H -4.989800 -7.149400 -7.524300
C -4.914500 -6.417800 -8.094000
C -4.692100 -4.200700 -9.693900
N -4.396100 -3.231000 -10.649100
C -4.370500 -6.528700 -14.083300
C -4.305500 -5.378300 -14.852300
C -4.229400 -6.553700 -9.275400
C -4.204100 -8.161300 -12.631500
C -4.127300 -5.425800 -10.067400
H -3.934100 -8.642100 -11.882600
H -3.852900 -7.365600 -9.530700
H -3.762400 -4.662200 -14.613000
N -3.747000 -6.918100 -12.908900
C -3.690900 -3.867200 -11.554200
N -3.494400 -5.179800 -11.271900
H -3.357200 -3.456800 -12.318200
C -2.819000 -6.143100 -12.117900
H -2.295200 -6.742600 -11.563200
H -2.208300 -5.675800 -12.709600
3
Fragment
H -2.886300 -1.708900 -10.021300
H -2.800700 -0.382900 -9.655900
O -2.351400 -1.093400 -9.780000
34
Fragment
H -6.455800 -8.277300 -15.867500
H -6.379500 -6.360700 -17.133100
H -5.971900 -5.161700 -6.930500
C -5.929100 -7.556900 -15.605200
C -5.874300 -6.417900 -16.354100
H -5.790300 -3.292100 -8.251100
C -5.498200 -5.210600 -7.729500
C -5.398200 -4.095100 -8.508500
C -5.172900 -7.606800 -14.437800
C -5.081600 -5.345500 -15.981700
H -5.075300 -4.582200 -16.513300
N -5.058900 -8.629000 -13.504600
H -4.989800 -7.149400 -7.524300
C -4.914500 -6.417800 -8.094000
C -4.692100 -4.200700 -9.693900
N -4.396100 -3.231000 -10.649100
C -4.370500 -6.528700 -14.083300
C -4.305500 -5.378300 -14.852300
C -4.229400 -6.553700 -9.275400
C -4.204100 -8.161300 -12.631500
C -4.127300 -5.425800 -10.067400
H -3.934100 -8.642100 -11.882600
H -3.852900 -7.365600 -9.530700
H -3.762400 -4.662200 -14.613000
N -3.747000 -6.918100 -12.908900
C -3.690900 -3.867200 -11.554200
N -3.494400 -5.179800 -11.271900
H -3.357200 -3.456800 -12.318200
C -2.819000 -6.143100 -12.117900
H -2.295200 -6.742600 -11.563200
H -2.208300 -5.675800 -12.709600
H -2.886300 -1.708900 -10.021300
H -2.800700 -0.382900 -9.655900
O -2.351400 -1.093400 -9.780000
