31
Fragment
H -6.455800 -8.277300 -15.867500
H -6.379500 -6.360700 -17.133100
H -5.971900 -5.161700 -6.930500
C -5.929100 -7.556900 -15.605200
C -5.874300 -6.417900 -16.354100
H -5.790300 -3.292100 -8.251100
C -5.498200 -5.210600 -7.729500
C -5.398200 -4.095100 -8.508500
C -5.172900 -7.606800 -14.437800
C -5.081600 -5.345500 -15.981700
H -5.075300 -4.582200 -16.513300
N -5.058900 -8.629000 -13.504600
H -4.989800 -7.149400 -7.524300
C -4.914500 -6.417800 -8.094000
C -4.692100 -4.200700 -9.693900
N -4.396100 -3.231000 -10.649100
C -4.370500 -6.528700 -14.083300
C -4.305500 -5.378300 -14.852300
C -4.229400 -6.553700 -9.275400
C -4.204100 -8.161300 -12.631500
C -4.127300 -5.425800 -10.067400
H -3.934100 -8.642100 -11.882600
H -3.852900 -7.365600 -9.530700
H -3.762400 -4.662200 -14.613000
N -3.747000 -6.918100 -12.908900
C -3.690900 -3.867200 -11.554200
N -3.494400 -5.179800 -11.271900
H -3.357200 -3.456800 -12.318200
C -2.819000 -6.143100 -12.117900
H -2.295200 -6.742600 -11.563200
H -2.208300 -5.675800 -12.709600
31
Fragment
H -10.540600 -4.503000 -7.315000
H -10.453700 -3.436200 -8.461400
C -9.929900 -4.035600 -7.906700
H -9.391700 -6.721900 -7.706500
N -9.254500 -4.999000 -8.752800
C -9.058000 -6.311500 -8.470400
N -9.001900 -3.260700 -7.115800
H -8.986500 -5.516600 -5.411700
H -8.896000 -2.813100 -10.493900
H -8.814800 -1.536600 -8.142000
C -8.621600 -4.753000 -9.957200
C -8.544800 -2.017500 -7.393100
C -8.519500 -3.625100 -10.749200
C -8.443400 -4.800500 -5.172400
C -8.378300 -3.650100 -5.941300
N -8.352800 -6.947700 -9.375500
C -8.056800 -5.978000 -10.330700
C -7.834400 -3.760900 -11.930700
H -7.759100 -3.029400 -12.500400
N -7.689900 -1.549700 -6.520000
H -7.673600 -5.596600 -3.511300
C -7.667300 -4.833300 -4.043000
C -7.576000 -2.572000 -5.586900
C -7.350700 -6.083700 -11.516200
C -7.250700 -4.968200 -12.295100
H -6.958600 -6.886700 -11.773500
C -6.874600 -3.760900 -3.670500
C -6.819800 -2.621800 -4.419400
H -6.777000 -5.017100 -13.094100
H -6.369400 -3.818000 -2.891600
H -6.293100 -1.901400 -4.157100
62
Fragment
H -6.455800 -8.277300 -15.867500
H -6.379500 -6.360700 -17.133100
H -5.971900 -5.161700 -6.930500
C -5.929100 -7.556900 -15.605200
C -5.874300 -6.417900 -16.354100
H -5.790300 -3.292100 -8.251100
C -5.498200 -5.210600 -7.729500
C -5.398200 -4.095100 -8.508500
C -5.172900 -7.606800 -14.437800
C -5.081600 -5.345500 -15.981700
H -5.075300 -4.582200 -16.513300
N -5.058900 -8.629000 -13.504600
H -4.989800 -7.149400 -7.524300
C -4.914500 -6.417800 -8.094000
C -4.692100 -4.200700 -9.693900
N -4.396100 -3.231000 -10.649100
C -4.370500 -6.528700 -14.083300
C -4.305500 -5.378300 -14.852300
C -4.229400 -6.553700 -9.275400
C -4.204100 -8.161300 -12.631500
C -4.127300 -5.425800 -10.067400
H -3.934100 -8.642100 -11.882600
H -3.852900 -7.365600 -9.530700
H -3.762400 -4.662200 -14.613000
N -3.747000 -6.918100 -12.908900
C -3.690900 -3.867200 -11.554200
N -3.494400 -5.179800 -11.271900
H -3.357200 -3.456800 -12.318200
C -2.819000 -6.143100 -12.117900
H -2.295200 -6.742600 -11.563200
H -2.208300 -5.675800 -12.709600
H -10.540600 -4.503000 -7.315000
H -10.453700 -3.436200 -8.461400
C -9.929900 -4.035600 -7.906700
H -9.391700 -6.721900 -7.706500
N -9.254500 -4.999000 -8.752800
C -9.058000 -6.311500 -8.470400
N -9.001900 -3.260700 -7.115800
H -8.986500 -5.516600 -5.411700
H -8.896000 -2.813100 -10.493900
H -8.814800 -1.536600 -8.142000
C -8.621600 -4.753000 -9.957200
C -8.544800 -2.017500 -7.393100
C -8.519500 -3.625100 -10.749200
C -8.443400 -4.800500 -5.172400
C -8.378300 -3.650100 -5.941300
N -8.352800 -6.947700 -9.375500
C -8.056800 -5.978000 -10.330700
C -7.834400 -3.760900 -11.930700
H -7.759100 -3.029400 -12.500400
N -7.689900 -1.549700 -6.520000
H -7.673600 -5.596600 -3.511300
C -7.667300 -4.833300 -4.043000
C -7.576000 -2.572000 -5.586900
C -7.350700 -6.083700 -11.516200
C -7.250700 -4.968200 -12.295100
H -6.958600 -6.886700 -11.773500
C -6.874600 -3.760900 -3.670500
C -6.819800 -2.621800 -4.419400
H -6.777000 -5.017100 -13.094100
H -6.369400 -3.818000 -2.891600
H -6.293100 -1.901400 -4.157100
