16
Fragment
N -12.470400 -16.575500 -56.484100
C -11.740000 -16.145400 -55.724000
H -11.728700 -13.807200 -54.324300
C -10.967700 -14.408300 -54.159900
C -10.786400 -15.648400 -54.761400
N -10.225800 -11.623300 -52.173500
C -10.175100 -12.659000 -52.637200
C -10.028500 -13.963000 -53.234700
C -9.673400 -16.432600 -54.430500
C -9.526800 -17.736600 -55.028100
N -9.476100 -18.772300 -55.491800
C -8.915500 -14.747200 -52.903800
C -8.734200 -15.987300 -53.505300
H -7.973200 -16.588400 -53.341000
C -7.961900 -14.250200 -51.941300
N -7.231500 -13.820100 -51.181200
16
Fragment
N -15.839100 -16.145400 -57.634700
C -15.448100 -15.155200 -58.047400
H -15.399000 -14.278300 -60.543800
C -15.057400 -13.600500 -59.907800
C -14.976400 -13.887000 -58.544800
N -14.711600 -11.721300 -62.860400
C -14.674800 -12.026000 -61.764700
C -14.621100 -12.355800 -60.360000
C -14.455900 -12.944700 -57.642500
C -14.319200 -13.269200 -56.247200
N -14.184600 -13.526000 -55.142600
C -14.132400 -11.401400 -59.451700
C -14.041100 -11.690900 -58.093700
H -13.733000 -10.957600 -57.439400
C -13.705200 -10.109600 -59.913900
N -13.386600 -9.066200 -60.259500
32
Fragment
N -12.470400 -16.575500 -56.484100
C -11.740000 -16.145400 -55.724000
H -11.728700 -13.807200 -54.324300
C -10.967700 -14.408300 -54.159900
C -10.786400 -15.648400 -54.761400
N -10.225800 -11.623300 -52.173500
C -10.175100 -12.659000 -52.637200
C -10.028500 -13.963000 -53.234700
C -9.673400 -16.432600 -54.430500
C -9.526800 -17.736600 -55.028100
N -9.476100 -18.772300 -55.491800
C -8.915500 -14.747200 -52.903800
C -8.734200 -15.987300 -53.505300
H -7.973200 -16.588400 -53.341000
C -7.961900 -14.250200 -51.941300
N -7.231500 -13.820100 -51.181200
N -15.839100 -16.145400 -57.634700
C -15.448100 -15.155200 -58.047400
H -15.399000 -14.278300 -60.543800
C -15.057400 -13.600500 -59.907800
C -14.976400 -13.887000 -58.544800
N -14.711600 -11.721300 -62.860400
C -14.674800 -12.026000 -61.764700
C -14.621100 -12.355800 -60.360000
C -14.455900 -12.944700 -57.642500
C -14.319200 -13.269200 -56.247200
N -14.184600 -13.526000 -55.142600
C -14.132400 -11.401400 -59.451700
C -14.041100 -11.690900 -58.093700
H -13.733000 -10.957600 -57.439400
C -13.705200 -10.109600 -59.913900
N -13.386600 -9.066200 -60.259500
