16
Fragment
N -12.470400 -16.575500 -56.484100
C -11.740000 -16.145400 -55.724000
H -11.728700 -13.807200 -54.324300
C -10.967700 -14.408300 -54.159900
C -10.786400 -15.648400 -54.761400
N -10.225800 -11.623300 -52.173500
C -10.175100 -12.659000 -52.637200
C -10.028500 -13.963000 -53.234700
C -9.673400 -16.432600 -54.430500
C -9.526800 -17.736600 -55.028100
N -9.476100 -18.772300 -55.491800
C -8.915500 -14.747200 -52.903800
C -8.734200 -15.987300 -53.505300
H -7.973200 -16.588400 -53.341000
C -7.961900 -14.250200 -51.941300
N -7.231500 -13.820100 -51.181200
16
Fragment
N -6.315300 -13.730500 -47.405700
C -5.996700 -12.687100 -47.751300
H -5.968900 -11.839100 -50.225800
C -5.660800 -11.105800 -49.571600
C -5.569500 -11.395300 -48.213600
N -5.517300 -9.270700 -52.522700
C -5.382700 -9.527500 -51.418100
C -5.246000 -9.852000 -50.022700
C -5.080800 -10.440900 -47.305200
C -5.027100 -10.770700 -45.900600
N -4.990300 -11.075400 -44.804900
C -4.725500 -8.909700 -49.120500
C -4.644500 -9.196200 -47.757400
H -4.302900 -8.518400 -47.121500
C -4.253800 -7.641500 -49.617900
N -3.862800 -6.651300 -50.030600
32
Fragment
N -12.470400 -16.575500 -56.484100
C -11.740000 -16.145400 -55.724000
H -11.728700 -13.807200 -54.324300
C -10.967700 -14.408300 -54.159900
C -10.786400 -15.648400 -54.761400
N -10.225800 -11.623300 -52.173500
C -10.175100 -12.659000 -52.637200
C -10.028500 -13.963000 -53.234700
C -9.673400 -16.432600 -54.430500
C -9.526800 -17.736600 -55.028100
N -9.476100 -18.772300 -55.491800
C -8.915500 -14.747200 -52.903800
C -8.734200 -15.987300 -53.505300
H -7.973200 -16.588400 -53.341000
C -7.961900 -14.250200 -51.941300
N -7.231500 -13.820100 -51.181200
N -6.315300 -13.730500 -47.405700
C -5.996700 -12.687100 -47.751300
H -5.968900 -11.839100 -50.225800
C -5.660800 -11.105800 -49.571600
C -5.569500 -11.395300 -48.213600
N -5.517300 -9.270700 -52.522700
C -5.382700 -9.527500 -51.418100
C -5.246000 -9.852000 -50.022700
C -5.080800 -10.440900 -47.305200
C -5.027100 -10.770700 -45.900600
N -4.990300 -11.075400 -44.804900
C -4.725500 -8.909700 -49.120500
C -4.644500 -9.196200 -47.757400
H -4.302900 -8.518400 -47.121500
C -4.253800 -7.641500 -49.617900
N -3.862800 -6.651300 -50.030600
