17
Fragment
H -25.895900 -29.156600 -12.512100
O -25.510200 -28.631900 -11.825800
H -25.038300 -31.214000 -11.939800
C -24.846800 -29.438100 -10.950700
C -24.690900 -30.802700 -11.167900
H -24.433900 -27.908800 -9.629600
C -24.325300 -28.836300 -9.804600
H -24.133400 -33.208400 -11.198000
C -23.985400 -31.560100 -10.232900
O -23.784900 -32.899100 -10.392300
C -23.622900 -29.598900 -8.873700
C -23.452600 -30.964800 -9.093200
H -23.212600 -29.456100 -6.831900
H -23.209100 -28.086700 -7.594900
C -23.039400 -28.951100 -7.644300
H -22.952500 -31.480900 -8.449700
H -22.088000 -29.043800 -7.658500
17
Fragment
H -25.895900 -29.156600 -5.447100
O -25.510200 -28.631900 -4.760800
H -25.038300 -31.214000 -4.874800
C -24.846800 -29.438100 -3.885700
C -24.690900 -30.802700 -4.102900
H -24.433900 -27.908800 -2.564600
C -24.325300 -28.836300 -2.739600
H -24.133400 -33.208400 -4.133000
C -23.985400 -31.560100 -3.167900
O -23.784900 -32.899100 -3.327300
C -23.622900 -29.598900 -1.808700
C -23.452600 -30.964800 -2.028200
H -23.212600 -29.456100 0.233100
H -23.209100 -28.086700 -0.529900
C -23.039400 -28.951100 -0.579300
H -22.952500 -31.480900 -1.384700
H -22.088000 -29.043800 -0.593500
34
Fragment
H -25.895900 -29.156600 -12.512100
O -25.510200 -28.631900 -11.825800
H -25.038300 -31.214000 -11.939800
C -24.846800 -29.438100 -10.950700
C -24.690900 -30.802700 -11.167900
H -24.433900 -27.908800 -9.629600
C -24.325300 -28.836300 -9.804600
H -24.133400 -33.208400 -11.198000
C -23.985400 -31.560100 -10.232900
O -23.784900 -32.899100 -10.392300
C -23.622900 -29.598900 -8.873700
C -23.452600 -30.964800 -9.093200
H -23.212600 -29.456100 -6.831900
H -23.209100 -28.086700 -7.594900
C -23.039400 -28.951100 -7.644300
H -22.952500 -31.480900 -8.449700
H -22.088000 -29.043800 -7.658500
H -25.895900 -29.156600 -5.447100
O -25.510200 -28.631900 -4.760800
H -25.038300 -31.214000 -4.874800
C -24.846800 -29.438100 -3.885700
C -24.690900 -30.802700 -4.102900
H -24.433900 -27.908800 -2.564600
C -24.325300 -28.836300 -2.739600
H -24.133400 -33.208400 -4.133000
C -23.985400 -31.560100 -3.167900
O -23.784900 -32.899100 -3.327300
C -23.622900 -29.598900 -1.808700
C -23.452600 -30.964800 -2.028200
H -23.212600 -29.456100 0.233100
H -23.209100 -28.086700 -0.529900
C -23.039400 -28.951100 -0.579300
H -22.952500 -31.480900 -1.384700
H -22.088000 -29.043800 -0.593500
