17
Fragment
H -25.895900 -29.156600 -12.512100
O -25.510200 -28.631900 -11.825800
H -25.038300 -31.214000 -11.939800
C -24.846800 -29.438100 -10.950700
C -24.690900 -30.802700 -11.167900
H -24.433900 -27.908800 -9.629600
C -24.325300 -28.836300 -9.804600
H -24.133400 -33.208400 -11.198000
C -23.985400 -31.560100 -10.232900
O -23.784900 -32.899100 -10.392300
C -23.622900 -29.598900 -8.873700
C -23.452600 -30.964800 -9.093200
H -23.212600 -29.456100 -6.831900
H -23.209100 -28.086700 -7.594900
C -23.039400 -28.951100 -7.644300
H -22.952500 -31.480900 -8.449700
H -22.088000 -29.043800 -7.658500
17
Fragment
H -25.895900 -25.098400 -8.979600
O -25.510200 -25.623100 -8.293300
H -25.038300 -23.041000 -8.407300
C -24.846800 -24.816900 -7.418200
C -24.690900 -23.452300 -7.635400
H -24.433900 -26.346200 -6.097100
C -24.325300 -25.418700 -6.272100
H -24.133400 -21.046600 -7.665500
C -23.985400 -22.694900 -6.700400
O -23.784900 -21.355900 -6.859800
C -23.622900 -24.656100 -5.341200
C -23.452600 -23.290200 -5.560700
H -23.212600 -24.798900 -3.299400
H -23.209100 -26.168300 -4.062400
C -23.039400 -25.303900 -4.111800
H -22.952500 -22.774100 -4.917200
H -22.088000 -25.211200 -4.126000
34
Fragment
H -25.895900 -29.156600 -12.512100
O -25.510200 -28.631900 -11.825800
H -25.038300 -31.214000 -11.939800
C -24.846800 -29.438100 -10.950700
C -24.690900 -30.802700 -11.167900
H -24.433900 -27.908800 -9.629600
C -24.325300 -28.836300 -9.804600
H -24.133400 -33.208400 -11.198000
C -23.985400 -31.560100 -10.232900
O -23.784900 -32.899100 -10.392300
C -23.622900 -29.598900 -8.873700
C -23.452600 -30.964800 -9.093200
H -23.212600 -29.456100 -6.831900
H -23.209100 -28.086700 -7.594900
C -23.039400 -28.951100 -7.644300
H -22.952500 -31.480900 -8.449700
H -22.088000 -29.043800 -7.658500
H -25.895900 -25.098400 -8.979600
O -25.510200 -25.623100 -8.293300
H -25.038300 -23.041000 -8.407300
C -24.846800 -24.816900 -7.418200
C -24.690900 -23.452300 -7.635400
H -24.433900 -26.346200 -6.097100
C -24.325300 -25.418700 -6.272100
H -24.133400 -21.046600 -7.665500
C -23.985400 -22.694900 -6.700400
O -23.784900 -21.355900 -6.859800
C -23.622900 -24.656100 -5.341200
C -23.452600 -23.290200 -5.560700
H -23.212600 -24.798900 -3.299400
H -23.209100 -26.168300 -4.062400
C -23.039400 -25.303900 -4.111800
H -22.952500 -22.774100 -4.917200
H -22.088000 -25.211200 -4.126000
