17
Fragment
H -25.895900 -29.156600 -12.512100
O -25.510200 -28.631900 -11.825800
H -25.038300 -31.214000 -11.939800
C -24.846800 -29.438100 -10.950700
C -24.690900 -30.802700 -11.167900
H -24.433900 -27.908800 -9.629600
C -24.325300 -28.836300 -9.804600
H -24.133400 -33.208400 -11.198000
C -23.985400 -31.560100 -10.232900
O -23.784900 -32.899100 -10.392300
C -23.622900 -29.598900 -8.873700
C -23.452600 -30.964800 -9.093200
H -23.212600 -29.456100 -6.831900
H -23.209100 -28.086700 -7.594900
C -23.039400 -28.951100 -7.644300
H -22.952500 -31.480900 -8.449700
H -22.088000 -29.043800 -7.658500
17
Fragment
H -21.842000 -29.043800 -11.191000
H -20.977500 -31.480900 -11.982200
C -20.890600 -28.951100 -11.176800
H -20.720900 -28.086700 -11.127400
H -20.717400 -29.456100 -10.364400
C -20.477400 -30.964800 -12.625700
C -20.307100 -29.598900 -12.406200
O -20.145100 -32.899100 -13.924800
C -19.944600 -31.560100 -13.765400
H -19.796600 -33.208400 -14.730500
C -19.604700 -28.836300 -13.337100
H -19.496100 -27.908800 -13.162100
C -19.239100 -30.802700 -14.700400
C -19.083200 -29.438100 -14.483200
H -18.891700 -31.214000 -15.472400
O -18.419800 -28.631900 -15.358300
H -18.034100 -29.156600 -16.044600
34
Fragment
H -25.895900 -29.156600 -12.512100
O -25.510200 -28.631900 -11.825800
H -25.038300 -31.214000 -11.939800
C -24.846800 -29.438100 -10.950700
C -24.690900 -30.802700 -11.167900
H -24.433900 -27.908800 -9.629600
C -24.325300 -28.836300 -9.804600
H -24.133400 -33.208400 -11.198000
C -23.985400 -31.560100 -10.232900
O -23.784900 -32.899100 -10.392300
C -23.622900 -29.598900 -8.873700
C -23.452600 -30.964800 -9.093200
H -23.212600 -29.456100 -6.831900
H -23.209100 -28.086700 -7.594900
C -23.039400 -28.951100 -7.644300
H -22.952500 -31.480900 -8.449700
H -22.088000 -29.043800 -7.658500
H -21.842000 -29.043800 -11.191000
H -20.977500 -31.480900 -11.982200
C -20.890600 -28.951100 -11.176800
H -20.720900 -28.086700 -11.127400
H -20.717400 -29.456100 -10.364400
C -20.477400 -30.964800 -12.625700
C -20.307100 -29.598900 -12.406200
O -20.145100 -32.899100 -13.924800
C -19.944600 -31.560100 -13.765400
H -19.796600 -33.208400 -14.730500
C -19.604700 -28.836300 -13.337100
H -19.496100 -27.908800 -13.162100
C -19.239100 -30.802700 -14.700400
C -19.083200 -29.438100 -14.483200
H -18.891700 -31.214000 -15.472400
O -18.419800 -28.631900 -15.358300
H -18.034100 -29.156600 -16.044600
