17
Fragment
H -25.895900 -29.156600 -12.512100
O -25.510200 -28.631900 -11.825800
H -25.038300 -31.214000 -11.939800
C -24.846800 -29.438100 -10.950700
C -24.690900 -30.802700 -11.167900
H -24.433900 -27.908800 -9.629600
C -24.325300 -28.836300 -9.804600
H -24.133400 -33.208400 -11.198000
C -23.985400 -31.560100 -10.232900
O -23.784900 -32.899100 -10.392300
C -23.622900 -29.598900 -8.873700
C -23.452600 -30.964800 -9.093200
H -23.212600 -29.456100 -6.831900
H -23.209100 -28.086700 -7.594900
C -23.039400 -28.951100 -7.644300
H -22.952500 -31.480900 -8.449700
H -22.088000 -29.043800 -7.658500
22
Fragment
H -26.447600 -34.434600 -12.929000
H -26.336900 -36.821800 -13.091400
C -25.608000 -34.376400 -13.513500
H -25.604200 -33.510100 -14.059400
N -25.572200 -35.519200 -14.447200
C -25.508400 -36.768200 -13.651600
H -25.482900 -37.564000 -14.271300
H -25.228100 -35.671600 -11.311100
N -24.430700 -34.351700 -12.625800
C -24.395000 -35.632700 -11.877100
H -24.354800 -34.527900 -15.769100
N -24.334600 -36.797700 -12.771100
C -24.326000 -35.429200 -15.243200
H -24.305600 -36.222800 -15.853900
H -23.602700 -35.610800 -11.289900
H -23.258300 -33.442800 -13.988700
C -23.211600 -34.290200 -13.467200
C -23.131400 -36.663100 -13.604600
N -23.126200 -35.427200 -14.394900
H -23.082600 -37.459800 -14.207700
H -22.425400 -34.302200 -12.858300
H -22.330500 -36.641700 -12.985500
39
Fragment
H -25.895900 -29.156600 -12.512100
O -25.510200 -28.631900 -11.825800
H -25.038300 -31.214000 -11.939800
C -24.846800 -29.438100 -10.950700
C -24.690900 -30.802700 -11.167900
H -24.433900 -27.908800 -9.629600
C -24.325300 -28.836300 -9.804600
H -24.133400 -33.208400 -11.198000
C -23.985400 -31.560100 -10.232900
O -23.784900 -32.899100 -10.392300
C -23.622900 -29.598900 -8.873700
C -23.452600 -30.964800 -9.093200
H -23.212600 -29.456100 -6.831900
H -23.209100 -28.086700 -7.594900
C -23.039400 -28.951100 -7.644300
H -22.952500 -31.480900 -8.449700
H -22.088000 -29.043800 -7.658500
H -26.447600 -34.434600 -12.929000
H -26.336900 -36.821800 -13.091400
C -25.608000 -34.376400 -13.513500
H -25.604200 -33.510100 -14.059400
N -25.572200 -35.519200 -14.447200
C -25.508400 -36.768200 -13.651600
H -25.482900 -37.564000 -14.271300
H -25.228100 -35.671600 -11.311100
N -24.430700 -34.351700 -12.625800
C -24.395000 -35.632700 -11.877100
H -24.354800 -34.527900 -15.769100
N -24.334600 -36.797700 -12.771100
C -24.326000 -35.429200 -15.243200
H -24.305600 -36.222800 -15.853900
H -23.602700 -35.610800 -11.289900
H -23.258300 -33.442800 -13.988700
C -23.211600 -34.290200 -13.467200
C -23.131400 -36.663100 -13.604600
N -23.126200 -35.427200 -14.394900
H -23.082600 -37.459800 -14.207700
H -22.425400 -34.302200 -12.858300
H -22.330500 -36.641700 -12.985500
