17
Fragment
N -15.843400 -16.003900 -29.190200
F -15.790700 -10.652300 -31.509000
N -15.759200 -13.409200 -31.580900
C -15.694300 -14.875000 -29.161400
C -15.668500 -11.370600 -30.343100
C -15.649400 -12.751200 -30.383000
C -15.579100 -13.451200 -29.150100
C -15.555900 -10.701700 -29.152600
H -15.536800 -13.017800 -32.294900
Cl -15.473600 -8.984300 -29.163800
C -15.452800 -11.419100 -27.963800
C -15.452100 -12.811900 -27.909100
N -15.395800 -13.486100 -26.710200
F -15.357700 -10.758400 -26.798800
H -15.289500 -14.153900 -31.533600
H -15.221900 -14.355900 -26.670000
H -15.084700 -13.086400 -26.010100
17
Fragment
N -13.459000 -6.528700 -29.190200
F -13.406300 -1.177100 -31.509000
N -13.374800 -3.934000 -31.580900
C -13.309900 -5.399800 -29.161400
C -13.284100 -1.895400 -30.343100
C -13.265000 -3.276000 -30.383000
C -13.194700 -3.976000 -29.150100
C -13.171500 -1.226500 -29.152600
H -13.152400 -3.542600 -32.294900
Cl -13.089200 0.490900 -29.163800
C -13.068400 -1.943900 -27.963800
C -13.067700 -3.336700 -27.909100
N -13.011400 -4.010900 -26.710200
F -12.973300 -1.283200 -26.798800
H -12.905200 -4.678700 -31.533600
H -12.837500 -4.880700 -26.670000
H -12.700300 -3.611200 -26.010100
34
Fragment
N -15.843400 -16.003900 -29.190200
F -15.790700 -10.652300 -31.509000
N -15.759200 -13.409200 -31.580900
C -15.694300 -14.875000 -29.161400
C -15.668500 -11.370600 -30.343100
C -15.649400 -12.751200 -30.383000
C -15.579100 -13.451200 -29.150100
C -15.555900 -10.701700 -29.152600
H -15.536800 -13.017800 -32.294900
Cl -15.473600 -8.984300 -29.163800
C -15.452800 -11.419100 -27.963800
C -15.452100 -12.811900 -27.909100
N -15.395800 -13.486100 -26.710200
F -15.357700 -10.758400 -26.798800
H -15.289500 -14.153900 -31.533600
H -15.221900 -14.355900 -26.670000
H -15.084700 -13.086400 -26.010100
N -13.459000 -6.528700 -29.190200
F -13.406300 -1.177100 -31.509000
N -13.374800 -3.934000 -31.580900
C -13.309900 -5.399800 -29.161400
C -13.284100 -1.895400 -30.343100
C -13.265000 -3.276000 -30.383000
C -13.194700 -3.976000 -29.150100
C -13.171500 -1.226500 -29.152600
H -13.152400 -3.542600 -32.294900
Cl -13.089200 0.490900 -29.163800
C -13.068400 -1.943900 -27.963800
C -13.067700 -3.336700 -27.909100
N -13.011400 -4.010900 -26.710200
F -12.973300 -1.283200 -26.798800
H -12.905200 -4.678700 -31.533600
H -12.837500 -4.880700 -26.670000
H -12.700300 -3.611200 -26.010100
