17
Fragment
N -15.843400 -16.003900 -29.190200
F -15.790700 -10.652300 -31.509000
N -15.759200 -13.409200 -31.580900
C -15.694300 -14.875000 -29.161400
C -15.668500 -11.370600 -30.343100
C -15.649400 -12.751200 -30.383000
C -15.579100 -13.451200 -29.150100
C -15.555900 -10.701700 -29.152600
H -15.536800 -13.017800 -32.294900
Cl -15.473600 -8.984300 -29.163800
C -15.452800 -11.419100 -27.963800
C -15.452100 -12.811900 -27.909100
N -15.395800 -13.486100 -26.710200
F -15.357700 -10.758400 -26.798800
H -15.289500 -14.153900 -31.533600
H -15.221900 -14.355900 -26.670000
H -15.084700 -13.086400 -26.010100
42
Fragment
H -15.798500 -5.505500 -22.267500
H -15.772600 -6.117500 -24.615700
H -15.762100 -7.359200 -23.597600
C -15.243900 -6.579300 -23.917500
H -15.119700 -3.235200 -21.883800
C -14.972000 -5.654200 -22.792100
H -14.780400 -8.322900 -25.698400
H -14.512100 -6.882300 -26.353500
O -14.507900 -4.418500 -23.334100
H -14.286100 -6.040600 -22.192300
C -14.267000 -3.491400 -22.317000
H -14.185000 -1.913500 -23.637500
C -14.148500 -7.562100 -25.732200
O -13.998500 -7.008300 -24.453900
H -13.675800 -3.889300 -21.629900
C -13.612700 -2.280200 -22.917400
H -13.502500 -1.581700 -22.224400
H -12.928000 -8.527800 -27.058600
C -12.821700 -8.026900 -26.211400
H -12.417000 -8.633000 -25.541500
O -12.346800 -2.633200 -23.446000
O -11.969800 -6.898700 -26.420000
H -11.899700 -0.898900 -24.324400
C -11.495000 -1.505000 -23.654600
H -11.388600 -1.004200 -22.807400
H -10.814100 -7.950200 -27.641500
C -10.703900 -7.251700 -26.948600
H -10.640800 -5.642700 -28.236100
O -10.318100 -2.523600 -25.412000
C -10.168100 -1.969900 -24.133800
H -10.131700 -7.618400 -26.228500
C -10.049700 -6.040500 -27.548900
H -10.030500 -3.491400 -27.673600
O -9.808700 -5.113400 -26.531800
H -9.804600 -2.649600 -23.512500
H -9.536200 -1.209100 -24.167500
C -9.344700 -3.877700 -27.073900
H -9.196900 -6.296700 -27.982100
C -9.072800 -2.952600 -25.948400
H -8.554500 -2.172700 -26.268400
H -8.544100 -3.414400 -25.250300
H -8.518100 -4.026400 -27.598500
59
Fragment
N -15.843400 -16.003900 -29.190200
F -15.790700 -10.652300 -31.509000
N -15.759200 -13.409200 -31.580900
C -15.694300 -14.875000 -29.161400
C -15.668500 -11.370600 -30.343100
C -15.649400 -12.751200 -30.383000
C -15.579100 -13.451200 -29.150100
C -15.555900 -10.701700 -29.152600
H -15.536800 -13.017800 -32.294900
Cl -15.473600 -8.984300 -29.163800
C -15.452800 -11.419100 -27.963800
C -15.452100 -12.811900 -27.909100
N -15.395800 -13.486100 -26.710200
F -15.357700 -10.758400 -26.798800
H -15.289500 -14.153900 -31.533600
H -15.221900 -14.355900 -26.670000
H -15.084700 -13.086400 -26.010100
H -15.798500 -5.505500 -22.267500
H -15.772600 -6.117500 -24.615700
H -15.762100 -7.359200 -23.597600
C -15.243900 -6.579300 -23.917500
H -15.119700 -3.235200 -21.883800
C -14.972000 -5.654200 -22.792100
H -14.780400 -8.322900 -25.698400
H -14.512100 -6.882300 -26.353500
O -14.507900 -4.418500 -23.334100
H -14.286100 -6.040600 -22.192300
C -14.267000 -3.491400 -22.317000
H -14.185000 -1.913500 -23.637500
C -14.148500 -7.562100 -25.732200
O -13.998500 -7.008300 -24.453900
H -13.675800 -3.889300 -21.629900
C -13.612700 -2.280200 -22.917400
H -13.502500 -1.581700 -22.224400
H -12.928000 -8.527800 -27.058600
C -12.821700 -8.026900 -26.211400
H -12.417000 -8.633000 -25.541500
O -12.346800 -2.633200 -23.446000
O -11.969800 -6.898700 -26.420000
H -11.899700 -0.898900 -24.324400
C -11.495000 -1.505000 -23.654600
H -11.388600 -1.004200 -22.807400
H -10.814100 -7.950200 -27.641500
C -10.703900 -7.251700 -26.948600
H -10.640800 -5.642700 -28.236100
O -10.318100 -2.523600 -25.412000
C -10.168100 -1.969900 -24.133800
H -10.131700 -7.618400 -26.228500
C -10.049700 -6.040500 -27.548900
H -10.030500 -3.491400 -27.673600
O -9.808700 -5.113400 -26.531800
H -9.804600 -2.649600 -23.512500
H -9.536200 -1.209100 -24.167500
C -9.344700 -3.877700 -27.073900
H -9.196900 -6.296700 -27.982100
C -9.072800 -2.952600 -25.948400
H -8.554500 -2.172700 -26.268400
H -8.544100 -3.414400 -25.250300
H -8.518100 -4.026400 -27.598500
