17
Fragment
N -15.843400 -16.003900 -29.190200
F -15.790700 -10.652300 -31.509000
N -15.759200 -13.409200 -31.580900
C -15.694300 -14.875000 -29.161400
C -15.668500 -11.370600 -30.343100
C -15.649400 -12.751200 -30.383000
C -15.579100 -13.451200 -29.150100
C -15.555900 -10.701700 -29.152600
H -15.536800 -13.017800 -32.294900
Cl -15.473600 -8.984300 -29.163800
C -15.452800 -11.419100 -27.963800
C -15.452100 -12.811900 -27.909100
N -15.395800 -13.486100 -26.710200
F -15.357700 -10.758400 -26.798800
H -15.289500 -14.153900 -31.533600
H -15.221900 -14.355900 -26.670000
H -15.084700 -13.086400 -26.010100
42
Fragment
H -18.182900 -14.980700 -22.267500
H -18.157000 -15.592700 -24.615700
H -18.146500 -16.834400 -23.597600
C -17.628300 -16.054500 -23.917500
H -17.504100 -12.710400 -21.883800
C -17.356400 -15.129400 -22.792100
H -17.164800 -17.798100 -25.698400
H -16.896500 -16.357500 -26.353500
O -16.892300 -13.893700 -23.334100
H -16.670500 -15.515800 -22.192300
C -16.651400 -12.966600 -22.317000
H -16.569400 -11.388700 -23.637500
C -16.532900 -17.037200 -25.732200
O -16.382900 -16.483500 -24.453900
H -16.060200 -13.364400 -21.629900
C -15.997100 -11.755400 -22.917400
H -15.886900 -11.056900 -22.224400
H -15.312400 -18.002900 -27.058600
C -15.206100 -17.502100 -26.211400
H -14.801400 -18.108200 -25.541500
O -14.731200 -12.108400 -23.446000
O -14.354200 -16.373900 -26.420000
H -14.284100 -10.374100 -24.324400
C -13.879400 -10.980200 -23.654600
H -13.773000 -10.479400 -22.807400
H -13.198500 -17.425400 -27.641500
C -13.088300 -16.726900 -26.948600
H -13.025200 -15.117900 -28.236100
O -12.702500 -11.998800 -25.412000
C -12.552500 -11.445100 -24.133800
H -12.516100 -17.093600 -26.228500
C -12.434100 -15.515700 -27.548900
H -12.414900 -12.966500 -27.673600
O -12.193100 -14.588600 -26.531800
H -12.189000 -12.124800 -23.512500
H -11.920600 -10.684200 -24.167500
C -11.729100 -13.352900 -27.073900
H -11.581300 -15.771900 -27.982100
C -11.457200 -12.427800 -25.948400
H -10.938900 -11.647900 -26.268400
H -10.928500 -12.889600 -25.250300
H -10.902500 -13.501600 -27.598500
59
Fragment
N -15.843400 -16.003900 -29.190200
F -15.790700 -10.652300 -31.509000
N -15.759200 -13.409200 -31.580900
C -15.694300 -14.875000 -29.161400
C -15.668500 -11.370600 -30.343100
C -15.649400 -12.751200 -30.383000
C -15.579100 -13.451200 -29.150100
C -15.555900 -10.701700 -29.152600
H -15.536800 -13.017800 -32.294900
Cl -15.473600 -8.984300 -29.163800
C -15.452800 -11.419100 -27.963800
C -15.452100 -12.811900 -27.909100
N -15.395800 -13.486100 -26.710200
F -15.357700 -10.758400 -26.798800
H -15.289500 -14.153900 -31.533600
H -15.221900 -14.355900 -26.670000
H -15.084700 -13.086400 -26.010100
H -18.182900 -14.980700 -22.267500
H -18.157000 -15.592700 -24.615700
H -18.146500 -16.834400 -23.597600
C -17.628300 -16.054500 -23.917500
H -17.504100 -12.710400 -21.883800
C -17.356400 -15.129400 -22.792100
H -17.164800 -17.798100 -25.698400
H -16.896500 -16.357500 -26.353500
O -16.892300 -13.893700 -23.334100
H -16.670500 -15.515800 -22.192300
C -16.651400 -12.966600 -22.317000
H -16.569400 -11.388700 -23.637500
C -16.532900 -17.037200 -25.732200
O -16.382900 -16.483500 -24.453900
H -16.060200 -13.364400 -21.629900
C -15.997100 -11.755400 -22.917400
H -15.886900 -11.056900 -22.224400
H -15.312400 -18.002900 -27.058600
C -15.206100 -17.502100 -26.211400
H -14.801400 -18.108200 -25.541500
O -14.731200 -12.108400 -23.446000
O -14.354200 -16.373900 -26.420000
H -14.284100 -10.374100 -24.324400
C -13.879400 -10.980200 -23.654600
H -13.773000 -10.479400 -22.807400
H -13.198500 -17.425400 -27.641500
C -13.088300 -16.726900 -26.948600
H -13.025200 -15.117900 -28.236100
O -12.702500 -11.998800 -25.412000
C -12.552500 -11.445100 -24.133800
H -12.516100 -17.093600 -26.228500
C -12.434100 -15.515700 -27.548900
H -12.414900 -12.966500 -27.673600
O -12.193100 -14.588600 -26.531800
H -12.189000 -12.124800 -23.512500
H -11.920600 -10.684200 -24.167500
C -11.729100 -13.352900 -27.073900
H -11.581300 -15.771900 -27.982100
C -11.457200 -12.427800 -25.948400
H -10.938900 -11.647900 -26.268400
H -10.928500 -12.889600 -25.250300
H -10.902500 -13.501600 -27.598500
