17
Fragment
N -15.843400 -16.003900 -29.190200
F -15.790700 -10.652300 -31.509000
N -15.759200 -13.409200 -31.580900
C -15.694300 -14.875000 -29.161400
C -15.668500 -11.370600 -30.343100
C -15.649400 -12.751200 -30.383000
C -15.579100 -13.451200 -29.150100
C -15.555900 -10.701700 -29.152600
H -15.536800 -13.017800 -32.294900
Cl -15.473600 -8.984300 -29.163800
C -15.452800 -11.419100 -27.963800
C -15.452100 -12.811900 -27.909100
N -15.395800 -13.486100 -26.710200
F -15.357700 -10.758400 -26.798800
H -15.289500 -14.153900 -31.533600
H -15.221900 -14.355900 -26.670000
H -15.084700 -13.086400 -26.010100
17
Fragment
N -18.227800 -25.479100 -29.190200
F -18.175100 -20.127500 -31.509000
N -18.143600 -22.884400 -31.580900
C -18.078700 -24.350200 -29.161400
C -18.052900 -20.845800 -30.343100
C -18.033800 -22.226400 -30.383000
C -17.963500 -22.926400 -29.150100
C -17.940300 -20.176900 -29.152600
H -17.921200 -22.492900 -32.294900
Cl -17.858000 -18.459500 -29.163800
C -17.837200 -20.894300 -27.963800
C -17.836500 -22.287100 -27.909100
N -17.780200 -22.961300 -26.710200
F -17.742100 -20.233600 -26.798800
H -17.673900 -23.629100 -31.533600
H -17.606300 -23.831100 -26.670000
H -17.469100 -22.561600 -26.010100
34
Fragment
N -15.843400 -16.003900 -29.190200
F -15.790700 -10.652300 -31.509000
N -15.759200 -13.409200 -31.580900
C -15.694300 -14.875000 -29.161400
C -15.668500 -11.370600 -30.343100
C -15.649400 -12.751200 -30.383000
C -15.579100 -13.451200 -29.150100
C -15.555900 -10.701700 -29.152600
H -15.536800 -13.017800 -32.294900
Cl -15.473600 -8.984300 -29.163800
C -15.452800 -11.419100 -27.963800
C -15.452100 -12.811900 -27.909100
N -15.395800 -13.486100 -26.710200
F -15.357700 -10.758400 -26.798800
H -15.289500 -14.153900 -31.533600
H -15.221900 -14.355900 -26.670000
H -15.084700 -13.086400 -26.010100
N -18.227800 -25.479100 -29.190200
F -18.175100 -20.127500 -31.509000
N -18.143600 -22.884400 -31.580900
C -18.078700 -24.350200 -29.161400
C -18.052900 -20.845800 -30.343100
C -18.033800 -22.226400 -30.383000
C -17.963500 -22.926400 -29.150100
C -17.940300 -20.176900 -29.152600
H -17.921200 -22.492900 -32.294900
Cl -17.858000 -18.459500 -29.163800
C -17.837200 -20.894300 -27.963800
C -17.836500 -22.287100 -27.909100
N -17.780200 -22.961300 -26.710200
F -17.742100 -20.233600 -26.798800
H -17.673900 -23.629100 -31.533600
H -17.606300 -23.831100 -26.670000
H -17.469100 -22.561600 -26.010100
