17
Fragment
N -15.843400 -16.003900 -29.190200
F -15.790700 -10.652300 -31.509000
N -15.759200 -13.409200 -31.580900
C -15.694300 -14.875000 -29.161400
C -15.668500 -11.370600 -30.343100
C -15.649400 -12.751200 -30.383000
C -15.579100 -13.451200 -29.150100
C -15.555900 -10.701700 -29.152600
H -15.536800 -13.017800 -32.294900
Cl -15.473600 -8.984300 -29.163800
C -15.452800 -11.419100 -27.963800
C -15.452100 -12.811900 -27.909100
N -15.395800 -13.486100 -26.710200
F -15.357700 -10.758400 -26.798800
H -15.289500 -14.153900 -31.533600
H -15.221900 -14.355900 -26.670000
H -15.084700 -13.086400 -26.010100
42
Fragment
H -25.270000 -13.478900 -35.475000
H -25.159800 -15.640900 -36.247600
H -25.043800 -15.907100 -33.880600
H -25.035600 -17.325100 -34.631900
C -24.520500 -16.492900 -34.483500
H -24.478800 -13.797600 -34.113600
C -24.338600 -13.543900 -35.070900
C -24.282900 -15.787600 -35.811700
H -24.155700 -11.516000 -34.829400
H -23.920300 -18.027900 -32.458100
H -23.874100 -16.486600 -32.014100
H -23.759100 -16.391500 -36.395500
O -23.606600 -14.539900 -35.737100
C -23.605300 -12.251700 -35.198100
H -23.428900 -12.058600 -36.152800
C -23.397300 -17.189900 -32.522100
O -23.271800 -16.799100 -33.891600
O -22.370500 -12.335600 -34.485500
H -22.144900 -10.411600 -34.026500
H -22.108500 -17.701600 -31.006500
C -22.035100 -17.396800 -31.945600
C -21.661400 -11.104400 -34.542300
H -21.588000 -10.799600 -35.481500
H -21.551600 -18.089600 -32.461400
O -21.325900 -16.165600 -32.002500
O -20.424700 -11.702100 -32.596400
C -20.299200 -11.311300 -33.965900
H -20.267500 -16.442600 -30.335100
C -20.091200 -16.249500 -31.289900
O -20.089900 -13.961300 -30.750800
H -19.937300 -12.109700 -30.092400
H -19.822400 -12.014600 -34.473800
H -19.776200 -10.473300 -34.029900
H -19.540800 -16.985200 -31.658600
C -19.413600 -12.713700 -30.676200
C -19.357900 -14.957300 -31.417000
H -19.217700 -14.703600 -32.374300
C -19.176000 -12.008300 -32.004500
H -18.660900 -11.176100 -31.856000
H -18.652700 -12.594100 -32.607300
H -18.536700 -12.860300 -30.240400
H -18.426500 -15.022300 -31.013000
59
Fragment
N -15.843400 -16.003900 -29.190200
F -15.790700 -10.652300 -31.509000
N -15.759200 -13.409200 -31.580900
C -15.694300 -14.875000 -29.161400
C -15.668500 -11.370600 -30.343100
C -15.649400 -12.751200 -30.383000
C -15.579100 -13.451200 -29.150100
C -15.555900 -10.701700 -29.152600
H -15.536800 -13.017800 -32.294900
Cl -15.473600 -8.984300 -29.163800
C -15.452800 -11.419100 -27.963800
C -15.452100 -12.811900 -27.909100
N -15.395800 -13.486100 -26.710200
F -15.357700 -10.758400 -26.798800
H -15.289500 -14.153900 -31.533600
H -15.221900 -14.355900 -26.670000
H -15.084700 -13.086400 -26.010100
H -25.270000 -13.478900 -35.475000
H -25.159800 -15.640900 -36.247600
H -25.043800 -15.907100 -33.880600
H -25.035600 -17.325100 -34.631900
C -24.520500 -16.492900 -34.483500
H -24.478800 -13.797600 -34.113600
C -24.338600 -13.543900 -35.070900
C -24.282900 -15.787600 -35.811700
H -24.155700 -11.516000 -34.829400
H -23.920300 -18.027900 -32.458100
H -23.874100 -16.486600 -32.014100
H -23.759100 -16.391500 -36.395500
O -23.606600 -14.539900 -35.737100
C -23.605300 -12.251700 -35.198100
H -23.428900 -12.058600 -36.152800
C -23.397300 -17.189900 -32.522100
O -23.271800 -16.799100 -33.891600
O -22.370500 -12.335600 -34.485500
H -22.144900 -10.411600 -34.026500
H -22.108500 -17.701600 -31.006500
C -22.035100 -17.396800 -31.945600
C -21.661400 -11.104400 -34.542300
H -21.588000 -10.799600 -35.481500
H -21.551600 -18.089600 -32.461400
O -21.325900 -16.165600 -32.002500
O -20.424700 -11.702100 -32.596400
C -20.299200 -11.311300 -33.965900
H -20.267500 -16.442600 -30.335100
C -20.091200 -16.249500 -31.289900
O -20.089900 -13.961300 -30.750800
H -19.937300 -12.109700 -30.092400
H -19.822400 -12.014600 -34.473800
H -19.776200 -10.473300 -34.029900
H -19.540800 -16.985200 -31.658600
C -19.413600 -12.713700 -30.676200
C -19.357900 -14.957300 -31.417000
H -19.217700 -14.703600 -32.374300
C -19.176000 -12.008300 -32.004500
H -18.660900 -11.176100 -31.856000
H -18.652700 -12.594100 -32.607300
H -18.536700 -12.860300 -30.240400
H -18.426500 -15.022300 -31.013000
