17
Fragment
N -17.080200 -27.657200 -16.686900
C -16.874900 -26.746200 -17.314100
C -16.689200 -25.579600 -18.151300
H -16.681000 -26.613700 -19.915000
C -16.668300 -25.759800 -19.547700
C -16.630400 -24.671300 -20.341500
C -16.625700 -23.366200 -19.864900
C -16.613600 -24.299400 -17.583500
H -16.609400 -24.793300 -15.703000
N -16.598400 -24.114100 -16.230600
C -16.596900 -23.244700 -18.477200
F -16.585700 -24.814200 -21.694400
H -16.577800 -23.318000 -15.905500
N -16.575200 -22.277600 -20.709400
H -16.574300 -21.481500 -20.385200
H -16.545100 -22.395800 -21.560800
F -16.513200 -21.984700 -17.958700
42
Fragment
H -13.690200 -21.406400 -20.451300
H -13.601000 -22.328900 -19.182500
H -13.585900 -23.790900 -21.072300
C -13.121300 -22.027200 -19.969200
H -13.038300 -19.932500 -18.718600
H -12.792500 -24.182100 -23.355500
C -12.775600 -23.283200 -20.906400
H -12.430200 -19.514100 -20.116400
O -12.294700 -22.912700 -21.982600
C -12.271100 -20.020500 -19.304300
H -12.146100 -23.860300 -20.450600
O -11.993500 -21.410100 -19.599800
C -11.960500 -23.855500 -22.987900
H -11.599900 -22.925900 -24.772900
H -11.529400 -24.599000 -22.543100
H -11.179800 -18.759900 -18.121900
C -11.090100 -23.437300 -24.130800
C -11.021800 -19.572300 -18.626400
H -10.735100 -24.226800 -24.577400
H -10.697000 -20.257900 -18.021800
O -10.214300 -22.796300 -23.699100
O -10.004200 -19.319700 -19.756300
H -9.521400 -21.858200 -25.433600
H -9.483300 -17.889300 -18.878000
C -9.196700 -22.543800 -24.829000
C -9.128400 -18.678800 -19.324600
H -9.038700 -23.356100 -25.333500
H -8.689000 -17.517000 -20.912300
H -8.618500 -19.190100 -18.682500
C -8.257900 -18.260600 -20.467500
O -8.225000 -20.706000 -23.855600
H -8.072300 -18.255700 -23.004900
C -7.947300 -22.095600 -24.151100
O -7.923700 -19.203300 -21.472800
H -7.788200 -22.602000 -23.339000
C -7.442900 -18.832900 -22.549000
H -7.426000 -17.933900 -20.099900
H -7.180100 -22.183500 -24.736800
C -7.097100 -20.088900 -23.486200
H -6.632500 -18.325200 -22.383200
H -6.617400 -19.787200 -24.272900
H -6.528300 -20.709700 -23.004100
59
Fragment
N -17.080200 -27.657200 -16.686900
C -16.874900 -26.746200 -17.314100
C -16.689200 -25.579600 -18.151300
H -16.681000 -26.613700 -19.915000
C -16.668300 -25.759800 -19.547700
C -16.630400 -24.671300 -20.341500
C -16.625700 -23.366200 -19.864900
C -16.613600 -24.299400 -17.583500
H -16.609400 -24.793300 -15.703000
N -16.598400 -24.114100 -16.230600
C -16.596900 -23.244700 -18.477200
F -16.585700 -24.814200 -21.694400
H -16.577800 -23.318000 -15.905500
N -16.575200 -22.277600 -20.709400
H -16.574300 -21.481500 -20.385200
H -16.545100 -22.395800 -21.560800
F -16.513200 -21.984700 -17.958700
H -13.690200 -21.406400 -20.451300
H -13.601000 -22.328900 -19.182500
H -13.585900 -23.790900 -21.072300
C -13.121300 -22.027200 -19.969200
H -13.038300 -19.932500 -18.718600
H -12.792500 -24.182100 -23.355500
C -12.775600 -23.283200 -20.906400
H -12.430200 -19.514100 -20.116400
O -12.294700 -22.912700 -21.982600
C -12.271100 -20.020500 -19.304300
H -12.146100 -23.860300 -20.450600
O -11.993500 -21.410100 -19.599800
C -11.960500 -23.855500 -22.987900
H -11.599900 -22.925900 -24.772900
H -11.529400 -24.599000 -22.543100
H -11.179800 -18.759900 -18.121900
C -11.090100 -23.437300 -24.130800
C -11.021800 -19.572300 -18.626400
H -10.735100 -24.226800 -24.577400
H -10.697000 -20.257900 -18.021800
O -10.214300 -22.796300 -23.699100
O -10.004200 -19.319700 -19.756300
H -9.521400 -21.858200 -25.433600
H -9.483300 -17.889300 -18.878000
C -9.196700 -22.543800 -24.829000
C -9.128400 -18.678800 -19.324600
H -9.038700 -23.356100 -25.333500
H -8.689000 -17.517000 -20.912300
H -8.618500 -19.190100 -18.682500
C -8.257900 -18.260600 -20.467500
O -8.225000 -20.706000 -23.855600
H -8.072300 -18.255700 -23.004900
C -7.947300 -22.095600 -24.151100
O -7.923700 -19.203300 -21.472800
H -7.788200 -22.602000 -23.339000
C -7.442900 -18.832900 -22.549000
H -7.426000 -17.933900 -20.099900
H -7.180100 -22.183500 -24.736800
C -7.097100 -20.088900 -23.486200
H -6.632500 -18.325200 -22.383200
H -6.617400 -19.787200 -24.272900
H -6.528300 -20.709700 -23.004100
