17
Fragment
N -17.080200 -27.657200 -16.686900
C -16.874900 -26.746200 -17.314100
C -16.689200 -25.579600 -18.151300
H -16.681000 -26.613700 -19.915000
C -16.668300 -25.759800 -19.547700
C -16.630400 -24.671300 -20.341500
C -16.625700 -23.366200 -19.864900
C -16.613600 -24.299400 -17.583500
H -16.609400 -24.793300 -15.703000
N -16.598400 -24.114100 -16.230600
C -16.596900 -23.244700 -18.477200
F -16.585700 -24.814200 -21.694400
H -16.577800 -23.318000 -15.905500
N -16.575200 -22.277600 -20.709400
H -16.574300 -21.481500 -20.385200
H -16.545100 -22.395800 -21.560800
F -16.513200 -21.984700 -17.958700
42
Fragment
H -21.354200 -21.406400 -20.451300
H -21.265000 -22.328900 -19.182500
H -21.249900 -23.790900 -21.072300
C -20.785300 -22.027200 -19.969200
H -20.702300 -19.932500 -18.718600
H -20.456500 -24.182100 -23.355500
C -20.439600 -23.283200 -20.906400
H -20.094200 -19.514100 -20.116400
O -19.958700 -22.912700 -21.982600
C -19.935100 -20.020500 -19.304300
H -19.810100 -23.860300 -20.450600
O -19.657500 -21.410100 -19.599800
C -19.624500 -23.855500 -22.987900
H -19.263900 -22.925900 -24.772900
H -19.193400 -24.599000 -22.543100
H -18.843800 -18.759900 -18.121900
C -18.754100 -23.437300 -24.130800
C -18.685800 -19.572300 -18.626400
H -18.399100 -24.226800 -24.577400
H -18.361000 -20.257900 -18.021800
O -17.878300 -22.796300 -23.699100
O -17.668200 -19.319700 -19.756300
H -17.185400 -21.858200 -25.433600
H -17.147300 -17.889300 -18.878000
C -16.860700 -22.543800 -24.829000
C -16.792400 -18.678800 -19.324600
H -16.702700 -23.356100 -25.333500
H -16.353000 -17.517000 -20.912300
H -16.282500 -19.190100 -18.682500
C -15.921900 -18.260600 -20.467500
O -15.889000 -20.706000 -23.855600
H -15.736300 -18.255700 -23.004900
C -15.611300 -22.095600 -24.151100
O -15.587700 -19.203300 -21.472800
H -15.452200 -22.602000 -23.339000
C -15.106900 -18.832900 -22.549000
H -15.090000 -17.933900 -20.099900
H -14.844100 -22.183500 -24.736800
C -14.761100 -20.088900 -23.486200
H -14.296500 -18.325200 -22.383200
H -14.281400 -19.787200 -24.272900
H -14.192300 -20.709700 -23.004100
59
Fragment
N -17.080200 -27.657200 -16.686900
C -16.874900 -26.746200 -17.314100
C -16.689200 -25.579600 -18.151300
H -16.681000 -26.613700 -19.915000
C -16.668300 -25.759800 -19.547700
C -16.630400 -24.671300 -20.341500
C -16.625700 -23.366200 -19.864900
C -16.613600 -24.299400 -17.583500
H -16.609400 -24.793300 -15.703000
N -16.598400 -24.114100 -16.230600
C -16.596900 -23.244700 -18.477200
F -16.585700 -24.814200 -21.694400
H -16.577800 -23.318000 -15.905500
N -16.575200 -22.277600 -20.709400
H -16.574300 -21.481500 -20.385200
H -16.545100 -22.395800 -21.560800
F -16.513200 -21.984700 -17.958700
H -21.354200 -21.406400 -20.451300
H -21.265000 -22.328900 -19.182500
H -21.249900 -23.790900 -21.072300
C -20.785300 -22.027200 -19.969200
H -20.702300 -19.932500 -18.718600
H -20.456500 -24.182100 -23.355500
C -20.439600 -23.283200 -20.906400
H -20.094200 -19.514100 -20.116400
O -19.958700 -22.912700 -21.982600
C -19.935100 -20.020500 -19.304300
H -19.810100 -23.860300 -20.450600
O -19.657500 -21.410100 -19.599800
C -19.624500 -23.855500 -22.987900
H -19.263900 -22.925900 -24.772900
H -19.193400 -24.599000 -22.543100
H -18.843800 -18.759900 -18.121900
C -18.754100 -23.437300 -24.130800
C -18.685800 -19.572300 -18.626400
H -18.399100 -24.226800 -24.577400
H -18.361000 -20.257900 -18.021800
O -17.878300 -22.796300 -23.699100
O -17.668200 -19.319700 -19.756300
H -17.185400 -21.858200 -25.433600
H -17.147300 -17.889300 -18.878000
C -16.860700 -22.543800 -24.829000
C -16.792400 -18.678800 -19.324600
H -16.702700 -23.356100 -25.333500
H -16.353000 -17.517000 -20.912300
H -16.282500 -19.190100 -18.682500
C -15.921900 -18.260600 -20.467500
O -15.889000 -20.706000 -23.855600
H -15.736300 -18.255700 -23.004900
C -15.611300 -22.095600 -24.151100
O -15.587700 -19.203300 -21.472800
H -15.452200 -22.602000 -23.339000
C -15.106900 -18.832900 -22.549000
H -15.090000 -17.933900 -20.099900
H -14.844100 -22.183500 -24.736800
C -14.761100 -20.088900 -23.486200
H -14.296500 -18.325200 -22.383200
H -14.281400 -19.787200 -24.272900
H -14.192300 -20.709700 -23.004100
