17
Fragment
N -17.080200 -27.657200 -16.686900
C -16.874900 -26.746200 -17.314100
C -16.689200 -25.579600 -18.151300
H -16.681000 -26.613700 -19.915000
C -16.668300 -25.759800 -19.547700
C -16.630400 -24.671300 -20.341500
C -16.625700 -23.366200 -19.864900
C -16.613600 -24.299400 -17.583500
H -16.609400 -24.793300 -15.703000
N -16.598400 -24.114100 -16.230600
C -16.596900 -23.244700 -18.477200
F -16.585700 -24.814200 -21.694400
H -16.577800 -23.318000 -15.905500
N -16.575200 -22.277600 -20.709400
H -16.574300 -21.481500 -20.385200
H -16.545100 -22.395800 -21.560800
F -16.513200 -21.984700 -17.958700
42
Fragment
H -24.949200 -31.256900 -20.451300
H -24.860000 -32.179300 -19.182500
H -24.844900 -33.641300 -21.072300
C -24.380300 -31.877600 -19.969200
H -24.297400 -29.783000 -18.718600
H -24.051500 -34.032600 -23.355500
C -24.034600 -33.133700 -20.906400
H -23.689200 -29.364600 -20.116400
O -23.553700 -32.763200 -21.982600
C -23.530100 -29.870900 -19.304300
H -23.405100 -33.710800 -20.450600
O -23.252500 -31.260600 -19.599800
C -23.219500 -33.706000 -22.987900
H -22.859000 -32.776400 -24.772900
H -22.788400 -34.449500 -22.543100
H -22.438800 -28.610400 -18.121900
C -22.349100 -33.287800 -24.130800
C -22.280800 -29.422800 -18.626400
H -21.994200 -34.077300 -24.577400
H -21.956000 -30.108400 -18.021800
O -21.473300 -32.646800 -23.699100
O -21.263200 -29.170200 -19.756300
H -20.780500 -31.708600 -25.433600
H -20.742300 -27.739800 -18.878000
C -20.455700 -32.394300 -24.829000
C -20.387400 -28.529300 -19.324600
H -20.297700 -33.206600 -25.333500
H -19.948100 -27.367500 -20.912300
H -19.877500 -29.040600 -18.682500
C -19.517000 -28.111100 -20.467500
O -19.484000 -30.556400 -23.855600
H -19.331400 -28.106200 -23.004900
C -19.206400 -31.946100 -24.151100
O -19.182800 -29.053800 -21.472800
H -19.047300 -32.452400 -23.339000
C -18.701900 -28.683400 -22.549000
H -18.685000 -27.784400 -20.099900
H -18.439100 -32.034000 -24.736800
C -18.356200 -29.939400 -23.486200
H -17.891600 -28.175700 -22.383200
H -17.876500 -29.637700 -24.272900
H -17.787300 -30.560200 -23.004100
59
Fragment
N -17.080200 -27.657200 -16.686900
C -16.874900 -26.746200 -17.314100
C -16.689200 -25.579600 -18.151300
H -16.681000 -26.613700 -19.915000
C -16.668300 -25.759800 -19.547700
C -16.630400 -24.671300 -20.341500
C -16.625700 -23.366200 -19.864900
C -16.613600 -24.299400 -17.583500
H -16.609400 -24.793300 -15.703000
N -16.598400 -24.114100 -16.230600
C -16.596900 -23.244700 -18.477200
F -16.585700 -24.814200 -21.694400
H -16.577800 -23.318000 -15.905500
N -16.575200 -22.277600 -20.709400
H -16.574300 -21.481500 -20.385200
H -16.545100 -22.395800 -21.560800
F -16.513200 -21.984700 -17.958700
H -24.949200 -31.256900 -20.451300
H -24.860000 -32.179300 -19.182500
H -24.844900 -33.641300 -21.072300
C -24.380300 -31.877600 -19.969200
H -24.297400 -29.783000 -18.718600
H -24.051500 -34.032600 -23.355500
C -24.034600 -33.133700 -20.906400
H -23.689200 -29.364600 -20.116400
O -23.553700 -32.763200 -21.982600
C -23.530100 -29.870900 -19.304300
H -23.405100 -33.710800 -20.450600
O -23.252500 -31.260600 -19.599800
C -23.219500 -33.706000 -22.987900
H -22.859000 -32.776400 -24.772900
H -22.788400 -34.449500 -22.543100
H -22.438800 -28.610400 -18.121900
C -22.349100 -33.287800 -24.130800
C -22.280800 -29.422800 -18.626400
H -21.994200 -34.077300 -24.577400
H -21.956000 -30.108400 -18.021800
O -21.473300 -32.646800 -23.699100
O -21.263200 -29.170200 -19.756300
H -20.780500 -31.708600 -25.433600
H -20.742300 -27.739800 -18.878000
C -20.455700 -32.394300 -24.829000
C -20.387400 -28.529300 -19.324600
H -20.297700 -33.206600 -25.333500
H -19.948100 -27.367500 -20.912300
H -19.877500 -29.040600 -18.682500
C -19.517000 -28.111100 -20.467500
O -19.484000 -30.556400 -23.855600
H -19.331400 -28.106200 -23.004900
C -19.206400 -31.946100 -24.151100
O -19.182800 -29.053800 -21.472800
H -19.047300 -32.452400 -23.339000
C -18.701900 -28.683400 -22.549000
H -18.685000 -27.784400 -20.099900
H -18.439100 -32.034000 -24.736800
C -18.356200 -29.939400 -23.486200
H -17.891600 -28.175700 -22.383200
H -17.876500 -29.637700 -24.272900
H -17.787300 -30.560200 -23.004100
