36
Fragment
H -14.719500 -46.928000 -11.168900
H -14.630000 -44.472700 -11.705500
C -13.841100 -46.879800 -10.869500
C -13.750900 -44.445600 -11.405500
H -13.714900 -48.790600 -10.350200
H -13.501900 -42.505800 -11.747600
C -13.240100 -47.990500 -10.375600
C -13.139400 -45.640700 -10.933500
C -13.077400 -43.267500 -11.426800
C -11.903800 -47.963500 -9.897900
C -11.813000 -45.585000 -10.471400
H -11.739700 -49.901100 -9.314000
C -11.733300 -43.176900 -10.967600
H -11.409100 -41.177200 -11.247400
C -11.275300 -49.096700 -9.352600
C -11.180400 -46.748200 -9.942900
C -11.094400 -44.352200 -10.503700
C -10.997600 -41.959700 -10.957200
C -9.998700 -49.041100 -8.881300
C -9.848200 -46.697400 -9.462800
C -9.745500 -44.292600 -10.038100
C -9.702200 -41.912800 -10.530200
H -9.617300 -49.809900 -8.521800
H -9.249500 -41.099000 -10.537200
C -9.234300 -47.845300 -8.920500
C -9.118300 -45.470400 -9.534400
C -9.032800 -43.075700 -10.076700
C -7.898800 -47.767200 -8.464100
C -7.786200 -45.428400 -9.081500
C -7.686500 -43.068500 -9.642900
H -7.498300 -48.520400 -8.092000
H -7.203000 -42.274600 -9.681500
C -7.187400 -46.606600 -8.560500
C -7.074800 -44.193900 -9.169700
H -6.300200 -46.586100 -8.282400
H -6.184200 -44.156800 -8.902600
36
Fragment
H -10.901900 -34.482000 -8.284100
H -10.812400 -36.937300 -8.820700
C -10.023500 -34.530200 -7.984700
C -9.933200 -36.964400 -8.520700
H -9.897200 -32.619400 -7.465400
H -9.684300 -38.904200 -8.862800
C -9.422400 -33.419500 -7.490800
C -9.321800 -35.769300 -8.048700
C -9.259800 -38.142500 -8.542000
C -8.086100 -33.446500 -7.013000
C -7.995400 -35.825000 -7.586500
H -7.922100 -31.508900 -6.429200
C -7.915700 -38.233100 -8.082700
H -7.591400 -40.232800 -8.362600
C -7.457700 -32.313300 -6.467800
C -7.362800 -34.661800 -7.058000
C -7.276700 -37.057800 -7.618900
C -7.179900 -39.450300 -8.072400
C -6.181100 -32.368900 -5.996400
C -6.030600 -34.712600 -6.578000
C -5.927800 -37.117400 -7.153200
C -5.884500 -39.497200 -7.645400
H -5.799700 -31.600100 -5.637000
H -5.431900 -40.311000 -7.652300
C -5.416700 -33.564700 -6.035700
C -5.300600 -35.939600 -6.649600
C -5.215200 -38.334300 -7.191900
C -4.081200 -33.642800 -5.579300
C -3.968500 -35.981600 -6.196600
C -3.868900 -38.341500 -6.758000
H -3.680600 -32.889600 -5.207100
H -3.385400 -39.135400 -6.796700
C -3.369700 -34.803400 -5.675600
C -3.257100 -37.216100 -6.284900
H -2.482600 -34.823900 -5.397500
H -2.366600 -37.253200 -6.017800
72
Fragment
H -14.719500 -46.928000 -11.168900
H -14.630000 -44.472700 -11.705500
C -13.841100 -46.879800 -10.869500
C -13.750900 -44.445600 -11.405500
H -13.714900 -48.790600 -10.350200
H -13.501900 -42.505800 -11.747600
C -13.240100 -47.990500 -10.375600
C -13.139400 -45.640700 -10.933500
C -13.077400 -43.267500 -11.426800
C -11.903800 -47.963500 -9.897900
C -11.813000 -45.585000 -10.471400
H -11.739700 -49.901100 -9.314000
C -11.733300 -43.176900 -10.967600
H -11.409100 -41.177200 -11.247400
C -11.275300 -49.096700 -9.352600
C -11.180400 -46.748200 -9.942900
C -11.094400 -44.352200 -10.503700
C -10.997600 -41.959700 -10.957200
C -9.998700 -49.041100 -8.881300
C -9.848200 -46.697400 -9.462800
C -9.745500 -44.292600 -10.038100
C -9.702200 -41.912800 -10.530200
H -9.617300 -49.809900 -8.521800
H -9.249500 -41.099000 -10.537200
C -9.234300 -47.845300 -8.920500
C -9.118300 -45.470400 -9.534400
C -9.032800 -43.075700 -10.076700
C -7.898800 -47.767200 -8.464100
C -7.786200 -45.428400 -9.081500
C -7.686500 -43.068500 -9.642900
H -7.498300 -48.520400 -8.092000
H -7.203000 -42.274600 -9.681500
C -7.187400 -46.606600 -8.560500
C -7.074800 -44.193900 -9.169700
H -6.300200 -46.586100 -8.282400
H -6.184200 -44.156800 -8.902600
H -10.901900 -34.482000 -8.284100
H -10.812400 -36.937300 -8.820700
C -10.023500 -34.530200 -7.984700
C -9.933200 -36.964400 -8.520700
H -9.897200 -32.619400 -7.465400
H -9.684300 -38.904200 -8.862800
C -9.422400 -33.419500 -7.490800
C -9.321800 -35.769300 -8.048700
C -9.259800 -38.142500 -8.542000
C -8.086100 -33.446500 -7.013000
C -7.995400 -35.825000 -7.586500
H -7.922100 -31.508900 -6.429200
C -7.915700 -38.233100 -8.082700
H -7.591400 -40.232800 -8.362600
C -7.457700 -32.313300 -6.467800
C -7.362800 -34.661800 -7.058000
C -7.276700 -37.057800 -7.618900
C -7.179900 -39.450300 -8.072400
C -6.181100 -32.368900 -5.996400
C -6.030600 -34.712600 -6.578000
C -5.927800 -37.117400 -7.153200
C -5.884500 -39.497200 -7.645400
H -5.799700 -31.600100 -5.637000
H -5.431900 -40.311000 -7.652300
C -5.416700 -33.564700 -6.035700
C -5.300600 -35.939600 -6.649600
C -5.215200 -38.334300 -7.191900
C -4.081200 -33.642800 -5.579300
C -3.968500 -35.981600 -6.196600
C -3.868900 -38.341500 -6.758000
H -3.680600 -32.889600 -5.207100
H -3.385400 -39.135400 -6.796700
C -3.369700 -34.803400 -5.675600
C -3.257100 -37.216100 -6.284900
H -2.482600 -34.823900 -5.397500
H -2.366600 -37.253200 -6.017800
