36
Fragment
H -14.719500 -46.928000 -11.168900
H -14.630000 -44.472700 -11.705500
C -13.841100 -46.879800 -10.869500
C -13.750900 -44.445600 -11.405500
H -13.714900 -48.790600 -10.350200
H -13.501900 -42.505800 -11.747600
C -13.240100 -47.990500 -10.375600
C -13.139400 -45.640700 -10.933500
C -13.077400 -43.267500 -11.426800
C -11.903800 -47.963500 -9.897900
C -11.813000 -45.585000 -10.471400
H -11.739700 -49.901100 -9.314000
C -11.733300 -43.176900 -10.967600
H -11.409100 -41.177200 -11.247400
C -11.275300 -49.096700 -9.352600
C -11.180400 -46.748200 -9.942900
C -11.094400 -44.352200 -10.503700
C -10.997600 -41.959700 -10.957200
C -9.998700 -49.041100 -8.881300
C -9.848200 -46.697400 -9.462800
C -9.745500 -44.292600 -10.038100
C -9.702200 -41.912800 -10.530200
H -9.617300 -49.809900 -8.521800
H -9.249500 -41.099000 -10.537200
C -9.234300 -47.845300 -8.920500
C -9.118300 -45.470400 -9.534400
C -9.032800 -43.075700 -10.076700
C -7.898800 -47.767200 -8.464100
C -7.786200 -45.428400 -9.081500
C -7.686500 -43.068500 -9.642900
H -7.498300 -48.520400 -8.092000
H -7.203000 -42.274600 -9.681500
C -7.187400 -46.606600 -8.560500
C -7.074800 -44.193900 -9.169700
H -6.300200 -46.586100 -8.282400
H -6.184200 -44.156800 -8.902600
16
Fragment
N -23.404500 -45.719500 -13.956800
N -23.113700 -41.772100 -14.643400
C -22.432800 -45.141800 -13.782600
C -22.190000 -42.333500 -14.257400
C -21.191000 -44.450200 -13.522400
C -21.064400 -43.073400 -13.753200
H -20.200400 -46.087800 -12.894600
C -20.123400 -45.169500 -13.020400
C -19.876100 -42.427000 -13.461200
H -19.794400 -41.515800 -13.622200
C -18.932100 -44.523800 -12.703700
C -18.811200 -43.129700 -12.931600
C -17.856400 -45.279600 -12.130700
C -17.583800 -42.469600 -12.576700
N -17.032900 -45.918200 -11.653600
N -16.610400 -41.955800 -12.268600
52
Fragment
H -14.719500 -46.928000 -11.168900
H -14.630000 -44.472700 -11.705500
C -13.841100 -46.879800 -10.869500
C -13.750900 -44.445600 -11.405500
H -13.714900 -48.790600 -10.350200
H -13.501900 -42.505800 -11.747600
C -13.240100 -47.990500 -10.375600
C -13.139400 -45.640700 -10.933500
C -13.077400 -43.267500 -11.426800
C -11.903800 -47.963500 -9.897900
C -11.813000 -45.585000 -10.471400
H -11.739700 -49.901100 -9.314000
C -11.733300 -43.176900 -10.967600
H -11.409100 -41.177200 -11.247400
C -11.275300 -49.096700 -9.352600
C -11.180400 -46.748200 -9.942900
C -11.094400 -44.352200 -10.503700
C -10.997600 -41.959700 -10.957200
C -9.998700 -49.041100 -8.881300
C -9.848200 -46.697400 -9.462800
C -9.745500 -44.292600 -10.038100
C -9.702200 -41.912800 -10.530200
H -9.617300 -49.809900 -8.521800
H -9.249500 -41.099000 -10.537200
C -9.234300 -47.845300 -8.920500
C -9.118300 -45.470400 -9.534400
C -9.032800 -43.075700 -10.076700
C -7.898800 -47.767200 -8.464100
C -7.786200 -45.428400 -9.081500
C -7.686500 -43.068500 -9.642900
H -7.498300 -48.520400 -8.092000
H -7.203000 -42.274600 -9.681500
C -7.187400 -46.606600 -8.560500
C -7.074800 -44.193900 -9.169700
H -6.300200 -46.586100 -8.282400
H -6.184200 -44.156800 -8.902600
N -23.404500 -45.719500 -13.956800
N -23.113700 -41.772100 -14.643400
C -22.432800 -45.141800 -13.782600
C -22.190000 -42.333500 -14.257400
C -21.191000 -44.450200 -13.522400
C -21.064400 -43.073400 -13.753200
H -20.200400 -46.087800 -12.894600
C -20.123400 -45.169500 -13.020400
C -19.876100 -42.427000 -13.461200
H -19.794400 -41.515800 -13.622200
C -18.932100 -44.523800 -12.703700
C -18.811200 -43.129700 -12.931600
C -17.856400 -45.279600 -12.130700
C -17.583800 -42.469600 -12.576700
N -17.032900 -45.918200 -11.653600
N -16.610400 -41.955800 -12.268600
