36
Fragment
H -14.719500 -46.928000 -11.168900
H -14.630000 -44.472700 -11.705500
C -13.841100 -46.879800 -10.869500
C -13.750900 -44.445600 -11.405500
H -13.714900 -48.790600 -10.350200
H -13.501900 -42.505800 -11.747600
C -13.240100 -47.990500 -10.375600
C -13.139400 -45.640700 -10.933500
C -13.077400 -43.267500 -11.426800
C -11.903800 -47.963500 -9.897900
C -11.813000 -45.585000 -10.471400
H -11.739700 -49.901100 -9.314000
C -11.733300 -43.176900 -10.967600
H -11.409100 -41.177200 -11.247400
C -11.275300 -49.096700 -9.352600
C -11.180400 -46.748200 -9.942900
C -11.094400 -44.352200 -10.503700
C -10.997600 -41.959700 -10.957200
C -9.998700 -49.041100 -8.881300
C -9.848200 -46.697400 -9.462800
C -9.745500 -44.292600 -10.038100
C -9.702200 -41.912800 -10.530200
H -9.617300 -49.809900 -8.521800
H -9.249500 -41.099000 -10.537200
C -9.234300 -47.845300 -8.920500
C -9.118300 -45.470400 -9.534400
C -9.032800 -43.075700 -10.076700
C -7.898800 -47.767200 -8.464100
C -7.786200 -45.428400 -9.081500
C -7.686500 -43.068500 -9.642900
H -7.498300 -48.520400 -8.092000
H -7.203000 -42.274600 -9.681500
C -7.187400 -46.606600 -8.560500
C -7.074800 -44.193900 -9.169700
H -6.300200 -46.586100 -8.282400
H -6.184200 -44.156800 -8.902600
16
Fragment
N -15.769200 -45.719500 -8.187200
N -15.478400 -41.772100 -8.873800
C -14.797500 -45.141800 -8.012900
C -14.554700 -42.333500 -8.487800
C -13.555700 -44.450200 -7.752700
C -13.429100 -43.073400 -7.983500
H -12.565100 -46.087800 -7.125000
C -12.488100 -45.169500 -7.250800
C -12.240800 -42.427000 -7.691600
H -12.159100 -41.515800 -7.852500
C -11.296800 -44.523800 -6.934000
C -11.175900 -43.129700 -7.161900
C -10.221100 -45.279600 -6.361100
C -9.948500 -42.469600 -6.807100
N -9.397600 -45.918200 -5.883900
N -8.975100 -41.955800 -6.499000
52
Fragment
H -14.719500 -46.928000 -11.168900
H -14.630000 -44.472700 -11.705500
C -13.841100 -46.879800 -10.869500
C -13.750900 -44.445600 -11.405500
H -13.714900 -48.790600 -10.350200
H -13.501900 -42.505800 -11.747600
C -13.240100 -47.990500 -10.375600
C -13.139400 -45.640700 -10.933500
C -13.077400 -43.267500 -11.426800
C -11.903800 -47.963500 -9.897900
C -11.813000 -45.585000 -10.471400
H -11.739700 -49.901100 -9.314000
C -11.733300 -43.176900 -10.967600
H -11.409100 -41.177200 -11.247400
C -11.275300 -49.096700 -9.352600
C -11.180400 -46.748200 -9.942900
C -11.094400 -44.352200 -10.503700
C -10.997600 -41.959700 -10.957200
C -9.998700 -49.041100 -8.881300
C -9.848200 -46.697400 -9.462800
C -9.745500 -44.292600 -10.038100
C -9.702200 -41.912800 -10.530200
H -9.617300 -49.809900 -8.521800
H -9.249500 -41.099000 -10.537200
C -9.234300 -47.845300 -8.920500
C -9.118300 -45.470400 -9.534400
C -9.032800 -43.075700 -10.076700
C -7.898800 -47.767200 -8.464100
C -7.786200 -45.428400 -9.081500
C -7.686500 -43.068500 -9.642900
H -7.498300 -48.520400 -8.092000
H -7.203000 -42.274600 -9.681500
C -7.187400 -46.606600 -8.560500
C -7.074800 -44.193900 -9.169700
H -6.300200 -46.586100 -8.282400
H -6.184200 -44.156800 -8.902600
N -15.769200 -45.719500 -8.187200
N -15.478400 -41.772100 -8.873800
C -14.797500 -45.141800 -8.012900
C -14.554700 -42.333500 -8.487800
C -13.555700 -44.450200 -7.752700
C -13.429100 -43.073400 -7.983500
H -12.565100 -46.087800 -7.125000
C -12.488100 -45.169500 -7.250800
C -12.240800 -42.427000 -7.691600
H -12.159100 -41.515800 -7.852500
C -11.296800 -44.523800 -6.934000
C -11.175900 -43.129700 -7.161900
C -10.221100 -45.279600 -6.361100
C -9.948500 -42.469600 -6.807100
N -9.397600 -45.918200 -5.883900
N -8.975100 -41.955800 -6.499000
