36
Fragment
H -14.719500 -46.928000 -11.168900
H -14.630000 -44.472700 -11.705500
C -13.841100 -46.879800 -10.869500
C -13.750900 -44.445600 -11.405500
H -13.714900 -48.790600 -10.350200
H -13.501900 -42.505800 -11.747600
C -13.240100 -47.990500 -10.375600
C -13.139400 -45.640700 -10.933500
C -13.077400 -43.267500 -11.426800
C -11.903800 -47.963500 -9.897900
C -11.813000 -45.585000 -10.471400
H -11.739700 -49.901100 -9.314000
C -11.733300 -43.176900 -10.967600
H -11.409100 -41.177200 -11.247400
C -11.275300 -49.096700 -9.352600
C -11.180400 -46.748200 -9.942900
C -11.094400 -44.352200 -10.503700
C -10.997600 -41.959700 -10.957200
C -9.998700 -49.041100 -8.881300
C -9.848200 -46.697400 -9.462800
C -9.745500 -44.292600 -10.038100
C -9.702200 -41.912800 -10.530200
H -9.617300 -49.809900 -8.521800
H -9.249500 -41.099000 -10.537200
C -9.234300 -47.845300 -8.920500
C -9.118300 -45.470400 -9.534400
C -9.032800 -43.075700 -10.076700
C -7.898800 -47.767200 -8.464100
C -7.786200 -45.428400 -9.081500
C -7.686500 -43.068500 -9.642900
H -7.498300 -48.520400 -8.092000
H -7.203000 -42.274600 -9.681500
C -7.187400 -46.606600 -8.560500
C -7.074800 -44.193900 -9.169700
H -6.300200 -46.586100 -8.282400
H -6.184200 -44.156800 -8.902600
36
Fragment
H -18.537200 -34.482000 -14.053800
H -18.447700 -36.937300 -14.590400
C -17.658800 -34.530200 -13.754300
C -17.568500 -36.964400 -14.290300
H -17.532500 -32.619400 -13.235100
H -17.319600 -38.904200 -14.632500
C -17.057700 -33.419500 -13.260400
C -16.957100 -35.769300 -13.818400
C -16.895100 -38.142500 -14.311700
C -15.721400 -33.446500 -12.782700
C -15.630700 -35.825000 -13.356200
H -15.557300 -31.508900 -12.198800
C -15.551000 -38.233100 -13.852400
H -15.226700 -40.232800 -14.132200
C -15.093000 -32.313300 -12.237500
C -14.998100 -34.661800 -12.827700
C -14.912000 -37.057800 -13.388500
C -14.815200 -39.450300 -13.842000
C -13.816400 -32.368900 -11.766100
C -13.665900 -34.712600 -12.347700
C -13.563100 -37.117400 -12.922900
C -13.519800 -39.497200 -13.415100
H -13.435000 -31.600100 -11.406600
H -13.067200 -40.311000 -13.422000
C -13.052000 -33.564700 -11.805300
C -12.935900 -35.939600 -12.419200
C -12.850500 -38.334300 -12.961600
C -11.716500 -33.642800 -11.349000
C -11.603800 -35.981600 -11.966300
C -11.504200 -38.341500 -12.527700
H -11.315900 -32.889600 -10.976800
H -11.020700 -39.135400 -12.566400
C -11.005000 -34.803400 -11.445300
C -10.892400 -37.216100 -12.054600
H -10.117900 -34.823900 -11.167200
H -10.001900 -37.253200 -11.787400
72
Fragment
H -14.719500 -46.928000 -11.168900
H -14.630000 -44.472700 -11.705500
C -13.841100 -46.879800 -10.869500
C -13.750900 -44.445600 -11.405500
H -13.714900 -48.790600 -10.350200
H -13.501900 -42.505800 -11.747600
C -13.240100 -47.990500 -10.375600
C -13.139400 -45.640700 -10.933500
C -13.077400 -43.267500 -11.426800
C -11.903800 -47.963500 -9.897900
C -11.813000 -45.585000 -10.471400
H -11.739700 -49.901100 -9.314000
C -11.733300 -43.176900 -10.967600
H -11.409100 -41.177200 -11.247400
C -11.275300 -49.096700 -9.352600
C -11.180400 -46.748200 -9.942900
C -11.094400 -44.352200 -10.503700
C -10.997600 -41.959700 -10.957200
C -9.998700 -49.041100 -8.881300
C -9.848200 -46.697400 -9.462800
C -9.745500 -44.292600 -10.038100
C -9.702200 -41.912800 -10.530200
H -9.617300 -49.809900 -8.521800
H -9.249500 -41.099000 -10.537200
C -9.234300 -47.845300 -8.920500
C -9.118300 -45.470400 -9.534400
C -9.032800 -43.075700 -10.076700
C -7.898800 -47.767200 -8.464100
C -7.786200 -45.428400 -9.081500
C -7.686500 -43.068500 -9.642900
H -7.498300 -48.520400 -8.092000
H -7.203000 -42.274600 -9.681500
C -7.187400 -46.606600 -8.560500
C -7.074800 -44.193900 -9.169700
H -6.300200 -46.586100 -8.282400
H -6.184200 -44.156800 -8.902600
H -18.537200 -34.482000 -14.053800
H -18.447700 -36.937300 -14.590400
C -17.658800 -34.530200 -13.754300
C -17.568500 -36.964400 -14.290300
H -17.532500 -32.619400 -13.235100
H -17.319600 -38.904200 -14.632500
C -17.057700 -33.419500 -13.260400
C -16.957100 -35.769300 -13.818400
C -16.895100 -38.142500 -14.311700
C -15.721400 -33.446500 -12.782700
C -15.630700 -35.825000 -13.356200
H -15.557300 -31.508900 -12.198800
C -15.551000 -38.233100 -13.852400
H -15.226700 -40.232800 -14.132200
C -15.093000 -32.313300 -12.237500
C -14.998100 -34.661800 -12.827700
C -14.912000 -37.057800 -13.388500
C -14.815200 -39.450300 -13.842000
C -13.816400 -32.368900 -11.766100
C -13.665900 -34.712600 -12.347700
C -13.563100 -37.117400 -12.922900
C -13.519800 -39.497200 -13.415100
H -13.435000 -31.600100 -11.406600
H -13.067200 -40.311000 -13.422000
C -13.052000 -33.564700 -11.805300
C -12.935900 -35.939600 -12.419200
C -12.850500 -38.334300 -12.961600
C -11.716500 -33.642800 -11.349000
C -11.603800 -35.981600 -11.966300
C -11.504200 -38.341500 -12.527700
H -11.315900 -32.889600 -10.976800
H -11.020700 -39.135400 -12.566400
C -11.005000 -34.803400 -11.445300
C -10.892400 -37.216100 -12.054600
H -10.117900 -34.823900 -11.167200
H -10.001900 -37.253200 -11.787400
