36
Fragment
H -14.719500 -46.928000 -11.168900
H -14.630000 -44.472700 -11.705500
C -13.841100 -46.879800 -10.869500
C -13.750900 -44.445600 -11.405500
H -13.714900 -48.790600 -10.350200
H -13.501900 -42.505800 -11.747600
C -13.240100 -47.990500 -10.375600
C -13.139400 -45.640700 -10.933500
C -13.077400 -43.267500 -11.426800
C -11.903800 -47.963500 -9.897900
C -11.813000 -45.585000 -10.471400
H -11.739700 -49.901100 -9.314000
C -11.733300 -43.176900 -10.967600
H -11.409100 -41.177200 -11.247400
C -11.275300 -49.096700 -9.352600
C -11.180400 -46.748200 -9.942900
C -11.094400 -44.352200 -10.503700
C -10.997600 -41.959700 -10.957200
C -9.998700 -49.041100 -8.881300
C -9.848200 -46.697400 -9.462800
C -9.745500 -44.292600 -10.038100
C -9.702200 -41.912800 -10.530200
H -9.617300 -49.809900 -8.521800
H -9.249500 -41.099000 -10.537200
C -9.234300 -47.845300 -8.920500
C -9.118300 -45.470400 -9.534400
C -9.032800 -43.075700 -10.076700
C -7.898800 -47.767200 -8.464100
C -7.786200 -45.428400 -9.081500
C -7.686500 -43.068500 -9.642900
H -7.498300 -48.520400 -8.092000
H -7.203000 -42.274600 -9.681500
C -7.187400 -46.606600 -8.560500
C -7.074800 -44.193900 -9.169700
H -6.300200 -46.586100 -8.282400
H -6.184200 -44.156800 -8.902600
16
Fragment
N -19.586800 -35.690500 -11.072000
N -19.296100 -39.637900 -11.758600
C -18.615200 -36.268200 -10.897800
C -18.372400 -39.076500 -11.372600
C -17.373400 -36.959800 -10.637600
C -17.246800 -38.336600 -10.868300
H -16.382700 -35.322200 -10.009800
C -16.305700 -36.240500 -10.135600
C -16.058500 -38.983000 -10.576400
H -15.976700 -39.894200 -10.737400
C -15.114400 -36.886200 -9.818800
C -14.993500 -38.280300 -10.046700
C -14.038800 -36.130400 -9.245900
C -13.766200 -38.940400 -9.691900
N -13.215200 -35.491800 -8.768800
N -12.792800 -39.454200 -9.383800
52
Fragment
H -14.719500 -46.928000 -11.168900
H -14.630000 -44.472700 -11.705500
C -13.841100 -46.879800 -10.869500
C -13.750900 -44.445600 -11.405500
H -13.714900 -48.790600 -10.350200
H -13.501900 -42.505800 -11.747600
C -13.240100 -47.990500 -10.375600
C -13.139400 -45.640700 -10.933500
C -13.077400 -43.267500 -11.426800
C -11.903800 -47.963500 -9.897900
C -11.813000 -45.585000 -10.471400
H -11.739700 -49.901100 -9.314000
C -11.733300 -43.176900 -10.967600
H -11.409100 -41.177200 -11.247400
C -11.275300 -49.096700 -9.352600
C -11.180400 -46.748200 -9.942900
C -11.094400 -44.352200 -10.503700
C -10.997600 -41.959700 -10.957200
C -9.998700 -49.041100 -8.881300
C -9.848200 -46.697400 -9.462800
C -9.745500 -44.292600 -10.038100
C -9.702200 -41.912800 -10.530200
H -9.617300 -49.809900 -8.521800
H -9.249500 -41.099000 -10.537200
C -9.234300 -47.845300 -8.920500
C -9.118300 -45.470400 -9.534400
C -9.032800 -43.075700 -10.076700
C -7.898800 -47.767200 -8.464100
C -7.786200 -45.428400 -9.081500
C -7.686500 -43.068500 -9.642900
H -7.498300 -48.520400 -8.092000
H -7.203000 -42.274600 -9.681500
C -7.187400 -46.606600 -8.560500
C -7.074800 -44.193900 -9.169700
H -6.300200 -46.586100 -8.282400
H -6.184200 -44.156800 -8.902600
N -19.586800 -35.690500 -11.072000
N -19.296100 -39.637900 -11.758600
C -18.615200 -36.268200 -10.897800
C -18.372400 -39.076500 -11.372600
C -17.373400 -36.959800 -10.637600
C -17.246800 -38.336600 -10.868300
H -16.382700 -35.322200 -10.009800
C -16.305700 -36.240500 -10.135600
C -16.058500 -38.983000 -10.576400
H -15.976700 -39.894200 -10.737400
C -15.114400 -36.886200 -9.818800
C -14.993500 -38.280300 -10.046700
C -14.038800 -36.130400 -9.245900
C -13.766200 -38.940400 -9.691900
N -13.215200 -35.491800 -8.768800
N -12.792800 -39.454200 -9.383800
