16
Fragment
N -10.298300 -23.104900 -53.943900
C -9.749800 -22.507900 -53.134500
H -9.508800 -19.913700 -52.652400
C -9.039200 -21.816200 -52.087900
C -9.035600 -20.432300 -52.013900
N -8.434400 -25.163000 -51.309300
C -8.387300 -24.018200 -51.223400
C -8.348700 -22.582200 -51.128400
N -8.340400 -17.236400 -50.757000
C -8.330000 -18.380200 -50.871300
C -8.326200 -19.814500 -50.986000
C -7.645800 -21.971500 -50.102500
C -7.618200 -20.579500 -50.040500
H -7.189700 -22.493500 -49.453200
C -6.878100 -19.928500 -48.993800
N -6.289300 -19.418900 -48.154900
27
Fragment
H -13.831500 -23.403800 -60.109200
H -13.401300 -21.303100 -59.240700
C -13.234300 -23.332000 -59.373700
C -12.995800 -22.068400 -58.847800
N -12.675100 -24.451300 -58.908600
H -12.322300 -19.862400 -57.653000
H -12.294500 -15.289200 -56.587700
C -12.161100 -21.930100 -57.745300
C -11.925000 -20.592500 -57.193300
C -11.863600 -24.303100 -57.852100
C -11.703900 -15.508100 -55.876000
O -11.700600 -17.949000 -56.273200
C -11.593700 -23.098300 -57.233000
H -11.444400 -25.081600 -57.503700
H -11.377500 -13.626900 -55.173000
C -11.330600 -16.808100 -55.599500
C -11.207500 -20.301300 -56.108700
C -11.153700 -14.540900 -55.037300
C -11.040500 -18.956000 -55.608300
H -11.030100 -23.065400 -56.469000
H -10.785100 -21.012300 -55.641200
C -10.486500 -17.176900 -54.568100
N -10.325200 -18.569900 -54.593300
C -10.281100 -14.884600 -54.002900
C -9.932600 -16.199300 -53.737300
H -9.914000 -14.194100 -53.463200
H -9.345700 -16.424700 -53.025600
43
Fragment
N -10.298300 -23.104900 -53.943900
C -9.749800 -22.507900 -53.134500
H -9.508800 -19.913700 -52.652400
C -9.039200 -21.816200 -52.087900
C -9.035600 -20.432300 -52.013900
N -8.434400 -25.163000 -51.309300
C -8.387300 -24.018200 -51.223400
C -8.348700 -22.582200 -51.128400
N -8.340400 -17.236400 -50.757000
C -8.330000 -18.380200 -50.871300
C -8.326200 -19.814500 -50.986000
C -7.645800 -21.971500 -50.102500
C -7.618200 -20.579500 -50.040500
H -7.189700 -22.493500 -49.453200
C -6.878100 -19.928500 -48.993800
N -6.289300 -19.418900 -48.154900
H -13.831500 -23.403800 -60.109200
H -13.401300 -21.303100 -59.240700
C -13.234300 -23.332000 -59.373700
C -12.995800 -22.068400 -58.847800
N -12.675100 -24.451300 -58.908600
H -12.322300 -19.862400 -57.653000
H -12.294500 -15.289200 -56.587700
C -12.161100 -21.930100 -57.745300
C -11.925000 -20.592500 -57.193300
C -11.863600 -24.303100 -57.852100
C -11.703900 -15.508100 -55.876000
O -11.700600 -17.949000 -56.273200
C -11.593700 -23.098300 -57.233000
H -11.444400 -25.081600 -57.503700
H -11.377500 -13.626900 -55.173000
C -11.330600 -16.808100 -55.599500
C -11.207500 -20.301300 -56.108700
C -11.153700 -14.540900 -55.037300
C -11.040500 -18.956000 -55.608300
H -11.030100 -23.065400 -56.469000
H -10.785100 -21.012300 -55.641200
C -10.486500 -17.176900 -54.568100
N -10.325200 -18.569900 -54.593300
C -10.281100 -14.884600 -54.002900
C -9.932600 -16.199300 -53.737300
H -9.914000 -14.194100 -53.463200
H -9.345700 -16.424700 -53.025600
