16
Fragment
N -10.298300 -23.104900 -53.943900
C -9.749800 -22.507900 -53.134500
H -9.508800 -19.913700 -52.652400
C -9.039200 -21.816200 -52.087900
C -9.035600 -20.432300 -52.013900
N -8.434400 -25.163000 -51.309300
C -8.387300 -24.018200 -51.223400
C -8.348700 -22.582200 -51.128400
N -8.340400 -17.236400 -50.757000
C -8.330000 -18.380200 -50.871300
C -8.326200 -19.814500 -50.986000
C -7.645800 -21.971500 -50.102500
C -7.618200 -20.579500 -50.040500
H -7.189700 -22.493500 -49.453200
C -6.878100 -19.928500 -48.993800
N -6.289300 -19.418900 -48.154900
27
Fragment
H -13.831500 -35.319600 -60.109200
H -13.401300 -33.218900 -59.240700
C -13.234300 -35.247800 -59.373700
C -12.995800 -33.984200 -58.847800
N -12.675100 -36.367100 -58.908600
H -12.322300 -31.778200 -57.653000
H -12.294500 -27.205000 -56.587700
C -12.161100 -33.845900 -57.745300
C -11.925000 -32.508300 -57.193300
C -11.863600 -36.218900 -57.852100
C -11.703900 -27.423900 -55.876000
O -11.700600 -29.864800 -56.273200
C -11.593700 -35.014100 -57.233000
H -11.444400 -36.997400 -57.503700
H -11.377500 -25.542700 -55.173000
C -11.330600 -28.723900 -55.599500
C -11.207500 -32.217100 -56.108700
C -11.153700 -26.456700 -55.037300
C -11.040500 -30.871800 -55.608300
H -11.030100 -34.981200 -56.469000
H -10.785100 -32.928100 -55.641200
C -10.486500 -29.092700 -54.568100
N -10.325200 -30.485700 -54.593300
C -10.281100 -26.800400 -54.002900
C -9.932600 -28.115100 -53.737300
H -9.914000 -26.109900 -53.463200
H -9.345700 -28.340500 -53.025600
43
Fragment
N -10.298300 -23.104900 -53.943900
C -9.749800 -22.507900 -53.134500
H -9.508800 -19.913700 -52.652400
C -9.039200 -21.816200 -52.087900
C -9.035600 -20.432300 -52.013900
N -8.434400 -25.163000 -51.309300
C -8.387300 -24.018200 -51.223400
C -8.348700 -22.582200 -51.128400
N -8.340400 -17.236400 -50.757000
C -8.330000 -18.380200 -50.871300
C -8.326200 -19.814500 -50.986000
C -7.645800 -21.971500 -50.102500
C -7.618200 -20.579500 -50.040500
H -7.189700 -22.493500 -49.453200
C -6.878100 -19.928500 -48.993800
N -6.289300 -19.418900 -48.154900
H -13.831500 -35.319600 -60.109200
H -13.401300 -33.218900 -59.240700
C -13.234300 -35.247800 -59.373700
C -12.995800 -33.984200 -58.847800
N -12.675100 -36.367100 -58.908600
H -12.322300 -31.778200 -57.653000
H -12.294500 -27.205000 -56.587700
C -12.161100 -33.845900 -57.745300
C -11.925000 -32.508300 -57.193300
C -11.863600 -36.218900 -57.852100
C -11.703900 -27.423900 -55.876000
O -11.700600 -29.864800 -56.273200
C -11.593700 -35.014100 -57.233000
H -11.444400 -36.997400 -57.503700
H -11.377500 -25.542700 -55.173000
C -11.330600 -28.723900 -55.599500
C -11.207500 -32.217100 -56.108700
C -11.153700 -26.456700 -55.037300
C -11.040500 -30.871800 -55.608300
H -11.030100 -34.981200 -56.469000
H -10.785100 -32.928100 -55.641200
C -10.486500 -29.092700 -54.568100
N -10.325200 -30.485700 -54.593300
C -10.281100 -26.800400 -54.002900
C -9.932600 -28.115100 -53.737300
H -9.914000 -26.109900 -53.463200
H -9.345700 -28.340500 -53.025600
