16
Fragment
N -10.298300 -23.104900 -53.943900
C -9.749800 -22.507900 -53.134500
H -9.508800 -19.913700 -52.652400
C -9.039200 -21.816200 -52.087900
C -9.035600 -20.432300 -52.013900
N -8.434400 -25.163000 -51.309300
C -8.387300 -24.018200 -51.223400
C -8.348700 -22.582200 -51.128400
N -8.340400 -17.236400 -50.757000
C -8.330000 -18.380200 -50.871300
C -8.326200 -19.814500 -50.986000
C -7.645800 -21.971500 -50.102500
C -7.618200 -20.579500 -50.040500
H -7.189700 -22.493500 -49.453200
C -6.878100 -19.928500 -48.993800
N -6.289300 -19.418900 -48.154900
27
Fragment
H -17.412400 -27.985400 -60.163500
C -16.931400 -27.993200 -59.342500
H -16.786000 -25.964500 -59.237300
N -16.650600 -29.176700 -58.794900
C -16.568100 -26.775800 -58.793600
C -15.966600 -29.137800 -57.642800
C -15.876800 -26.753100 -57.583100
H -15.751300 -24.684800 -57.486800
H -15.739400 -29.965900 -57.235700
C -15.568600 -27.979800 -57.004700
C -15.517400 -25.460800 -56.991800
H -15.496400 -20.200900 -56.370600
O -15.112900 -22.888600 -56.044900
H -15.092000 -28.020000 -56.184000
C -14.950500 -20.459400 -55.638800
C -14.897200 -25.266000 -55.834900
C -14.671700 -21.777900 -55.361300
H -14.643100 -26.022900 -55.318900
C -14.592800 -23.944300 -55.328100
H -14.541100 -18.605300 -54.915200
C -14.381800 -19.531300 -54.776500
C -13.907400 -22.215500 -54.288600
N -13.894200 -23.615300 -54.287600
C -13.580700 -19.934500 -53.709500
C -13.321300 -21.270500 -53.438100
H -13.198700 -19.270200 -53.147700
H -12.770600 -21.531900 -52.710000
43
Fragment
N -10.298300 -23.104900 -53.943900
C -9.749800 -22.507900 -53.134500
H -9.508800 -19.913700 -52.652400
C -9.039200 -21.816200 -52.087900
C -9.035600 -20.432300 -52.013900
N -8.434400 -25.163000 -51.309300
C -8.387300 -24.018200 -51.223400
C -8.348700 -22.582200 -51.128400
N -8.340400 -17.236400 -50.757000
C -8.330000 -18.380200 -50.871300
C -8.326200 -19.814500 -50.986000
C -7.645800 -21.971500 -50.102500
C -7.618200 -20.579500 -50.040500
H -7.189700 -22.493500 -49.453200
C -6.878100 -19.928500 -48.993800
N -6.289300 -19.418900 -48.154900
H -17.412400 -27.985400 -60.163500
C -16.931400 -27.993200 -59.342500
H -16.786000 -25.964500 -59.237300
N -16.650600 -29.176700 -58.794900
C -16.568100 -26.775800 -58.793600
C -15.966600 -29.137800 -57.642800
C -15.876800 -26.753100 -57.583100
H -15.751300 -24.684800 -57.486800
H -15.739400 -29.965900 -57.235700
C -15.568600 -27.979800 -57.004700
C -15.517400 -25.460800 -56.991800
H -15.496400 -20.200900 -56.370600
O -15.112900 -22.888600 -56.044900
H -15.092000 -28.020000 -56.184000
C -14.950500 -20.459400 -55.638800
C -14.897200 -25.266000 -55.834900
C -14.671700 -21.777900 -55.361300
H -14.643100 -26.022900 -55.318900
C -14.592800 -23.944300 -55.328100
H -14.541100 -18.605300 -54.915200
C -14.381800 -19.531300 -54.776500
C -13.907400 -22.215500 -54.288600
N -13.894200 -23.615300 -54.287600
C -13.580700 -19.934500 -53.709500
C -13.321300 -21.270500 -53.438100
H -13.198700 -19.270200 -53.147700
H -12.770600 -21.531900 -52.710000
