16
Fragment
N -10.298300 -23.104900 -53.943900
C -9.749800 -22.507900 -53.134500
H -9.508800 -19.913700 -52.652400
C -9.039200 -21.816200 -52.087900
C -9.035600 -20.432300 -52.013900
N -8.434400 -25.163000 -51.309300
C -8.387300 -24.018200 -51.223400
C -8.348700 -22.582200 -51.128400
N -8.340400 -17.236400 -50.757000
C -8.330000 -18.380200 -50.871300
C -8.326200 -19.814500 -50.986000
C -7.645800 -21.971500 -50.102500
C -7.618200 -20.579500 -50.040500
H -7.189700 -22.493500 -49.453200
C -6.878100 -19.928500 -48.993800
N -6.289300 -19.418900 -48.154900
16
Fragment
N -13.967500 -16.328500 -53.621600
C -13.378800 -15.818900 -52.782600
H -13.067100 -13.253900 -52.323300
C -12.638600 -15.167900 -51.736000
C -12.611000 -13.775900 -51.674000
C -11.930600 -15.932900 -50.790500
C -11.926800 -17.367200 -50.905200
N -11.916400 -18.511000 -51.019500
C -11.908100 -13.165200 -50.648100
C -11.869500 -11.729200 -50.553100
N -11.822500 -10.584400 -50.467200
C -11.221200 -15.315100 -49.762600
C -11.217600 -13.931200 -49.688600
H -10.748000 -15.833700 -49.124100
C -10.507000 -13.239500 -48.642000
N -9.958500 -12.642500 -47.832600
32
Fragment
N -10.298300 -23.104900 -53.943900
C -9.749800 -22.507900 -53.134500
H -9.508800 -19.913700 -52.652400
C -9.039200 -21.816200 -52.087900
C -9.035600 -20.432300 -52.013900
N -8.434400 -25.163000 -51.309300
C -8.387300 -24.018200 -51.223400
C -8.348700 -22.582200 -51.128400
N -8.340400 -17.236400 -50.757000
C -8.330000 -18.380200 -50.871300
C -8.326200 -19.814500 -50.986000
C -7.645800 -21.971500 -50.102500
C -7.618200 -20.579500 -50.040500
H -7.189700 -22.493500 -49.453200
C -6.878100 -19.928500 -48.993800
N -6.289300 -19.418900 -48.154900
N -13.967500 -16.328500 -53.621600
C -13.378800 -15.818900 -52.782600
H -13.067100 -13.253900 -52.323300
C -12.638600 -15.167900 -51.736000
C -12.611000 -13.775900 -51.674000
C -11.930600 -15.932900 -50.790500
C -11.926800 -17.367200 -50.905200
N -11.916400 -18.511000 -51.019500
C -11.908100 -13.165200 -50.648100
C -11.869500 -11.729200 -50.553100
N -11.822500 -10.584400 -50.467200
C -11.221200 -15.315100 -49.762600
C -11.217600 -13.931200 -49.688600
H -10.748000 -15.833700 -49.124100
C -10.507000 -13.239500 -48.642000
N -9.958500 -12.642500 -47.832600
