16
Fragment
N -10.298300 -23.104900 -53.943900
C -9.749800 -22.507900 -53.134500
H -9.508800 -19.913700 -52.652400
C -9.039200 -21.816200 -52.087900
C -9.035600 -20.432300 -52.013900
N -8.434400 -25.163000 -51.309300
C -8.387300 -24.018200 -51.223400
C -8.348700 -22.582200 -51.128400
N -8.340400 -17.236400 -50.757000
C -8.330000 -18.380200 -50.871300
C -8.326200 -19.814500 -50.986000
C -7.645800 -21.971500 -50.102500
C -7.618200 -20.579500 -50.040500
H -7.189700 -22.493500 -49.453200
C -6.878100 -19.928500 -48.993800
N -6.289300 -19.418900 -48.154900
27
Fragment
H -7.486200 -14.215500 -49.066400
H -7.058100 -16.477200 -48.628800
C -6.935500 -14.476900 -48.338400
C -6.676100 -15.812900 -48.067000
N -6.362600 -12.132100 -47.488900
C -6.349500 -13.531900 -47.487900
C -5.875100 -16.216100 -47.000000
H -5.715700 -17.142100 -46.861300
C -5.664000 -11.803100 -46.448400
H -5.613700 -9.724500 -46.457600
C -5.585100 -13.969500 -46.415200
C -5.359600 -10.481400 -45.941600
C -5.306300 -15.288000 -46.137700
H -5.164800 -7.727400 -45.592500
O -5.143900 -12.858800 -45.731600
H -4.760400 -15.546500 -45.405900
C -4.739400 -10.286600 -44.784700
C -4.688200 -7.767600 -44.771800
H -4.517400 -5.781500 -44.540800
H -4.505500 -11.062600 -44.289700
C -4.380000 -8.994300 -44.193400
C -4.290200 -6.609600 -44.133700
C -3.688700 -8.971600 -42.982900
N -3.606200 -6.570700 -42.981600
H -3.470800 -9.782900 -42.539200
C -3.325400 -7.754200 -42.434000
H -2.844400 -7.762000 -41.613000
43
Fragment
N -10.298300 -23.104900 -53.943900
C -9.749800 -22.507900 -53.134500
H -9.508800 -19.913700 -52.652400
C -9.039200 -21.816200 -52.087900
C -9.035600 -20.432300 -52.013900
N -8.434400 -25.163000 -51.309300
C -8.387300 -24.018200 -51.223400
C -8.348700 -22.582200 -51.128400
N -8.340400 -17.236400 -50.757000
C -8.330000 -18.380200 -50.871300
C -8.326200 -19.814500 -50.986000
C -7.645800 -21.971500 -50.102500
C -7.618200 -20.579500 -50.040500
H -7.189700 -22.493500 -49.453200
C -6.878100 -19.928500 -48.993800
N -6.289300 -19.418900 -48.154900
H -7.486200 -14.215500 -49.066400
H -7.058100 -16.477200 -48.628800
C -6.935500 -14.476900 -48.338400
C -6.676100 -15.812900 -48.067000
N -6.362600 -12.132100 -47.488900
C -6.349500 -13.531900 -47.487900
C -5.875100 -16.216100 -47.000000
H -5.715700 -17.142100 -46.861300
C -5.664000 -11.803100 -46.448400
H -5.613700 -9.724500 -46.457600
C -5.585100 -13.969500 -46.415200
C -5.359600 -10.481400 -45.941600
C -5.306300 -15.288000 -46.137700
H -5.164800 -7.727400 -45.592500
O -5.143900 -12.858800 -45.731600
H -4.760400 -15.546500 -45.405900
C -4.739400 -10.286600 -44.784700
C -4.688200 -7.767600 -44.771800
H -4.517400 -5.781500 -44.540800
H -4.505500 -11.062600 -44.289700
C -4.380000 -8.994300 -44.193400
C -4.290200 -6.609600 -44.133700
C -3.688700 -8.971600 -42.982900
N -3.606200 -6.570700 -42.981600
H -3.470800 -9.782900 -42.539200
C -3.325400 -7.754200 -42.434000
H -2.844400 -7.762000 -41.613000
