16
Fragment
N -9.014300 -9.265200 -11.063900
C -8.648300 -9.022400 -10.078300
O -8.576500 -10.890500 -8.004500
C -8.191600 -9.777500 -7.717300
C -8.172900 -8.674700 -8.735400
N -7.749600 -11.326800 -4.597300
C -7.738000 -7.428400 -8.420900
C -7.734800 -10.526800 -5.348100
C -7.715200 -6.337200 -9.417500
C -7.712000 -9.435600 -6.344800
N -7.700400 -5.537200 -10.168400
C -7.277100 -8.189300 -6.030300
C -7.258400 -7.086500 -7.048400
O -6.873500 -5.973500 -6.761100
C -6.801600 -7.841600 -4.687400
N -6.435700 -7.598800 -3.701800
18
Fragment
H -5.354800 -11.565100 -8.339700
H -5.125500 -9.629800 -9.598400
C -5.027300 -10.772900 -7.929200
C -4.896300 -9.623100 -8.676300
H -4.772200 -11.590700 -6.058400
C -4.679300 -10.789500 -6.559700
H -4.513100 -7.183400 -9.732100
C -4.421500 -8.427100 -8.077600
C -4.279000 -7.206400 -8.811400
C -4.210900 -9.657600 -5.954300
C -4.068500 -8.436900 -6.688100
H -3.976900 -9.680600 -5.033600
C -3.810600 -6.074500 -8.206000
H -3.717800 -5.273300 -8.707300
C -3.593700 -7.240900 -6.089400
C -3.462700 -6.091100 -6.836500
H -3.364500 -7.234200 -5.167200
H -3.135200 -5.298900 -6.426000
34
Fragment
N -9.014300 -9.265200 -11.063900
C -8.648300 -9.022400 -10.078300
O -8.576500 -10.890500 -8.004500
C -8.191600 -9.777500 -7.717300
C -8.172900 -8.674700 -8.735400
N -7.749600 -11.326800 -4.597300
C -7.738000 -7.428400 -8.420900
C -7.734800 -10.526800 -5.348100
C -7.715200 -6.337200 -9.417500
C -7.712000 -9.435600 -6.344800
N -7.700400 -5.537200 -10.168400
C -7.277100 -8.189300 -6.030300
C -7.258400 -7.086500 -7.048400
O -6.873500 -5.973500 -6.761100
C -6.801600 -7.841600 -4.687400
N -6.435700 -7.598800 -3.701800
H -5.354800 -11.565100 -8.339700
H -5.125500 -9.629800 -9.598400
C -5.027300 -10.772900 -7.929200
C -4.896300 -9.623100 -8.676300
H -4.772200 -11.590700 -6.058400
C -4.679300 -10.789500 -6.559700
H -4.513100 -7.183400 -9.732100
C -4.421500 -8.427100 -8.077600
C -4.279000 -7.206400 -8.811400
C -4.210900 -9.657600 -5.954300
C -4.068500 -8.436900 -6.688100
H -3.976900 -9.680600 -5.033600
C -3.810600 -6.074500 -8.206000
H -3.717800 -5.273300 -8.707300
C -3.593700 -7.240900 -6.089400
C -3.462700 -6.091100 -6.836500
H -3.364500 -7.234200 -5.167200
H -3.135200 -5.298900 -6.426000
