16
Fragment
N -9.014300 -9.265200 -11.063900
C -8.648300 -9.022400 -10.078300
O -8.576500 -10.890500 -8.004500
C -8.191600 -9.777500 -7.717300
C -8.172900 -8.674700 -8.735400
N -7.749600 -11.326800 -4.597300
C -7.738000 -7.428400 -8.420900
C -7.734800 -10.526800 -5.348100
C -7.715200 -6.337200 -9.417500
C -7.712000 -9.435600 -6.344800
N -7.700400 -5.537200 -10.168400
C -7.277100 -8.189300 -6.030300
C -7.258400 -7.086500 -7.048400
O -6.873500 -5.973500 -6.761100
C -6.801600 -7.841600 -4.687400
N -6.435700 -7.598800 -3.701800
18
Fragment
H -9.913100 -16.119700 -15.722500
H -9.683800 -14.184400 -16.981300
C -9.585600 -15.327500 -15.312000
C -9.454600 -14.177800 -16.059100
H -9.330500 -16.145400 -13.441200
C -9.237600 -15.344200 -13.942500
H -9.071400 -11.738100 -17.114900
C -8.979800 -12.981700 -15.460400
C -8.837300 -11.761000 -16.194300
C -8.769200 -14.212300 -13.337100
C -8.626800 -12.991500 -14.071000
H -8.535200 -14.235200 -12.416500
C -8.368900 -10.629100 -15.588900
H -8.276100 -9.827900 -16.090200
C -8.152000 -11.795500 -13.472200
C -8.021000 -10.645800 -14.219300
H -7.922800 -11.788800 -12.550100
H -7.693500 -9.853600 -13.808900
34
Fragment
N -9.014300 -9.265200 -11.063900
C -8.648300 -9.022400 -10.078300
O -8.576500 -10.890500 -8.004500
C -8.191600 -9.777500 -7.717300
C -8.172900 -8.674700 -8.735400
N -7.749600 -11.326800 -4.597300
C -7.738000 -7.428400 -8.420900
C -7.734800 -10.526800 -5.348100
C -7.715200 -6.337200 -9.417500
C -7.712000 -9.435600 -6.344800
N -7.700400 -5.537200 -10.168400
C -7.277100 -8.189300 -6.030300
C -7.258400 -7.086500 -7.048400
O -6.873500 -5.973500 -6.761100
C -6.801600 -7.841600 -4.687400
N -6.435700 -7.598800 -3.701800
H -9.913100 -16.119700 -15.722500
H -9.683800 -14.184400 -16.981300
C -9.585600 -15.327500 -15.312000
C -9.454600 -14.177800 -16.059100
H -9.330500 -16.145400 -13.441200
C -9.237600 -15.344200 -13.942500
H -9.071400 -11.738100 -17.114900
C -8.979800 -12.981700 -15.460400
C -8.837300 -11.761000 -16.194300
C -8.769200 -14.212300 -13.337100
C -8.626800 -12.991500 -14.071000
H -8.535200 -14.235200 -12.416500
C -8.368900 -10.629100 -15.588900
H -8.276100 -9.827900 -16.090200
C -8.152000 -11.795500 -13.472200
C -8.021000 -10.645800 -14.219300
H -7.922800 -11.788800 -12.550100
H -7.693500 -9.853600 -13.808900
