20
Fragment
H -19.849700 -19.477700 -6.278400
H -19.611700 -18.106600 -5.487500
C -19.273300 -18.688600 -6.199200
O -19.270500 -17.969500 -7.447100
C -18.414000 -16.919100 -7.551800
H -18.407500 -17.025200 -9.589000
H -18.360300 -18.971500 -5.983200
H -18.165400 -16.435000 -5.580000
C -18.076100 -16.529500 -8.850100
C -17.935000 -16.183500 -6.466500
C -17.267700 -15.437800 -9.072300
C -17.126600 -15.091800 -6.688700
H -17.037300 -15.186300 -9.958800
H -16.842400 -12.649800 -9.555600
H -16.795200 -14.596100 -5.949800
C -16.788700 -14.702200 -7.986900
O -15.932200 -13.651800 -8.091700
C -15.929400 -12.932700 -9.339600
H -15.591000 -13.514700 -10.051200
H -15.353000 -12.143600 -9.260300
16
Fragment
O -15.444400 -18.008000 -7.428300
N -15.133000 -16.885800 -4.123200
N -15.006900 -18.030600 -10.890300
C -14.796200 -16.586200 -5.114600
C -14.768700 -17.021100 -7.585200
C -14.695700 -17.422200 -10.052800
C -14.350900 -16.160300 -6.440800
C -14.319300 -16.569500 -8.925500
C -13.591400 -15.051800 -6.613300
C -13.559800 -15.461000 -9.097900
C -13.215000 -14.199100 -5.486000
C -13.142000 -14.600200 -7.953500
C -13.114500 -15.035100 -10.424200
N -12.903800 -13.590700 -4.648400
N -12.777700 -14.735600 -11.415500
O -12.466300 -13.613300 -8.110500
36
Fragment
H -19.849700 -19.477700 -6.278400
H -19.611700 -18.106600 -5.487500
C -19.273300 -18.688600 -6.199200
O -19.270500 -17.969500 -7.447100
C -18.414000 -16.919100 -7.551800
H -18.407500 -17.025200 -9.589000
H -18.360300 -18.971500 -5.983200
H -18.165400 -16.435000 -5.580000
C -18.076100 -16.529500 -8.850100
C -17.935000 -16.183500 -6.466500
C -17.267700 -15.437800 -9.072300
C -17.126600 -15.091800 -6.688700
H -17.037300 -15.186300 -9.958800
H -16.842400 -12.649800 -9.555600
H -16.795200 -14.596100 -5.949800
C -16.788700 -14.702200 -7.986900
O -15.932200 -13.651800 -8.091700
C -15.929400 -12.932700 -9.339600
H -15.591000 -13.514700 -10.051200
H -15.353000 -12.143600 -9.260300
O -15.444400 -18.008000 -7.428300
N -15.133000 -16.885800 -4.123200
N -15.006900 -18.030600 -10.890300
C -14.796200 -16.586200 -5.114600
C -14.768700 -17.021100 -7.585200
C -14.695700 -17.422200 -10.052800
C -14.350900 -16.160300 -6.440800
C -14.319300 -16.569500 -8.925500
C -13.591400 -15.051800 -6.613300
C -13.559800 -15.461000 -9.097900
C -13.215000 -14.199100 -5.486000
C -13.142000 -14.600200 -7.953500
C -13.114500 -15.035100 -10.424200
N -12.903800 -13.590700 -4.648400
N -12.777700 -14.735600 -11.415500
O -12.466300 -13.613300 -8.110500
