20
Fragment
H -19.849700 -19.477700 -6.278400
H -19.611700 -18.106600 -5.487500
C -19.273300 -18.688600 -6.199200
O -19.270500 -17.969500 -7.447100
C -18.414000 -16.919100 -7.551800
H -18.407500 -17.025200 -9.589000
H -18.360300 -18.971500 -5.983200
H -18.165400 -16.435000 -5.580000
C -18.076100 -16.529500 -8.850100
C -17.935000 -16.183500 -6.466500
C -17.267700 -15.437800 -9.072300
C -17.126600 -15.091800 -6.688700
H -17.037300 -15.186300 -9.958800
H -16.842400 -12.649800 -9.555600
H -16.795200 -14.596100 -5.949800
C -16.788700 -14.702200 -7.986900
O -15.932200 -13.651800 -8.091700
C -15.929400 -12.932700 -9.339600
H -15.591000 -13.514700 -10.051200
H -15.353000 -12.143600 -9.260300
20
Fragment
H -18.194900 -12.252800 -6.278400
H -17.956900 -10.881700 -5.487500
C -17.618500 -11.463700 -6.199200
O -17.615700 -10.744600 -7.447100
C -16.759100 -9.694200 -7.551800
H -16.752600 -9.800300 -9.589000
H -16.705500 -11.746600 -5.983200
H -16.510600 -9.210100 -5.580000
C -16.421300 -9.304600 -8.850100
C -16.280100 -8.958600 -6.466500
C -15.612800 -8.212900 -9.072300
C -15.471700 -7.866900 -6.688700
H -15.382400 -7.961400 -9.958800
H -15.187500 -5.424900 -9.555600
H -15.140400 -7.371200 -5.949800
C -15.133900 -7.477300 -7.986900
O -14.277300 -6.426900 -8.091700
C -14.274500 -5.707800 -9.339600
H -13.936100 -6.289800 -10.051200
H -13.698100 -4.918700 -9.260300
40
Fragment
H -19.849700 -19.477700 -6.278400
H -19.611700 -18.106600 -5.487500
C -19.273300 -18.688600 -6.199200
O -19.270500 -17.969500 -7.447100
C -18.414000 -16.919100 -7.551800
H -18.407500 -17.025200 -9.589000
H -18.360300 -18.971500 -5.983200
H -18.165400 -16.435000 -5.580000
C -18.076100 -16.529500 -8.850100
C -17.935000 -16.183500 -6.466500
C -17.267700 -15.437800 -9.072300
C -17.126600 -15.091800 -6.688700
H -17.037300 -15.186300 -9.958800
H -16.842400 -12.649800 -9.555600
H -16.795200 -14.596100 -5.949800
C -16.788700 -14.702200 -7.986900
O -15.932200 -13.651800 -8.091700
C -15.929400 -12.932700 -9.339600
H -15.591000 -13.514700 -10.051200
H -15.353000 -12.143600 -9.260300
H -18.194900 -12.252800 -6.278400
H -17.956900 -10.881700 -5.487500
C -17.618500 -11.463700 -6.199200
O -17.615700 -10.744600 -7.447100
C -16.759100 -9.694200 -7.551800
H -16.752600 -9.800300 -9.589000
H -16.705500 -11.746600 -5.983200
H -16.510600 -9.210100 -5.580000
C -16.421300 -9.304600 -8.850100
C -16.280100 -8.958600 -6.466500
C -15.612800 -8.212900 -9.072300
C -15.471700 -7.866900 -6.688700
H -15.382400 -7.961400 -9.958800
H -15.187500 -5.424900 -9.555600
H -15.140400 -7.371200 -5.949800
C -15.133900 -7.477300 -7.986900
O -14.277300 -6.426900 -8.091700
C -14.274500 -5.707800 -9.339600
H -13.936100 -6.289800 -10.051200
H -13.698100 -4.918700 -9.260300
