16
Fragment
N -9.014300 -9.265200 -11.063900
C -8.648300 -9.022400 -10.078300
O -8.576500 -10.890500 -8.004500
C -8.191600 -9.777500 -7.717300
C -8.172900 -8.674700 -8.735400
N -7.749600 -11.326800 -4.597300
C -7.738000 -7.428400 -8.420900
C -7.734800 -10.526800 -5.348100
C -7.715200 -6.337200 -9.417500
C -7.712000 -9.435600 -6.344800
N -7.700400 -5.537200 -10.168400
C -7.277100 -8.189300 -6.030300
C -7.258400 -7.086500 -7.048400
O -6.873500 -5.973500 -6.761100
C -6.801600 -7.841600 -4.687400
N -6.435700 -7.598800 -3.701800
16
Fragment
N -7.239200 -6.065100 -18.446800
C -6.873300 -5.822300 -17.461200
O -6.801400 -7.690400 -15.387400
C -6.416600 -6.577400 -15.100100
C -6.397800 -5.474600 -16.118200
N -5.974500 -8.126700 -11.980100
C -5.963000 -4.228300 -15.803700
C -5.959700 -7.326700 -12.731000
C -5.940200 -3.137100 -16.800400
C -5.936900 -6.235500 -13.727600
N -5.925400 -2.337100 -17.551200
C -5.502000 -4.989200 -13.413100
C -5.483300 -3.886400 -14.431200
O -5.098500 -2.773400 -14.144000
C -5.026600 -4.641500 -12.070200
N -4.660700 -4.398700 -11.084600
32
Fragment
N -9.014300 -9.265200 -11.063900
C -8.648300 -9.022400 -10.078300
O -8.576500 -10.890500 -8.004500
C -8.191600 -9.777500 -7.717300
C -8.172900 -8.674700 -8.735400
N -7.749600 -11.326800 -4.597300
C -7.738000 -7.428400 -8.420900
C -7.734800 -10.526800 -5.348100
C -7.715200 -6.337200 -9.417500
C -7.712000 -9.435600 -6.344800
N -7.700400 -5.537200 -10.168400
C -7.277100 -8.189300 -6.030300
C -7.258400 -7.086500 -7.048400
O -6.873500 -5.973500 -6.761100
C -6.801600 -7.841600 -4.687400
N -6.435700 -7.598800 -3.701800
N -7.239200 -6.065100 -18.446800
C -6.873300 -5.822300 -17.461200
O -6.801400 -7.690400 -15.387400
C -6.416600 -6.577400 -15.100100
C -6.397800 -5.474600 -16.118200
N -5.974500 -8.126700 -11.980100
C -5.963000 -4.228300 -15.803700
C -5.959700 -7.326700 -12.731000
C -5.940200 -3.137100 -16.800400
C -5.936900 -6.235500 -13.727600
N -5.925400 -2.337100 -17.551200
C -5.502000 -4.989200 -13.413100
C -5.483300 -3.886400 -14.431200
O -5.098500 -2.773400 -14.144000
C -5.026600 -4.641500 -12.070200
N -4.660700 -4.398700 -11.084600
