20
Fragment
H -19.849700 -19.477700 -6.278400
H -19.611700 -18.106600 -5.487500
C -19.273300 -18.688600 -6.199200
O -19.270500 -17.969500 -7.447100
C -18.414000 -16.919100 -7.551800
H -18.407500 -17.025200 -9.589000
H -18.360300 -18.971500 -5.983200
H -18.165400 -16.435000 -5.580000
C -18.076100 -16.529500 -8.850100
C -17.935000 -16.183500 -6.466500
C -17.267700 -15.437800 -9.072300
C -17.126600 -15.091800 -6.688700
H -17.037300 -15.186300 -9.958800
H -16.842400 -12.649800 -9.555600
H -16.795200 -14.596100 -5.949800
C -16.788700 -14.702200 -7.986900
O -15.932200 -13.651800 -8.091700
C -15.929400 -12.932700 -9.339600
H -15.591000 -13.514700 -10.051200
H -15.353000 -12.143600 -9.260300
16
Fragment
O -21.037600 -23.872000 0.341100
N -20.726200 -22.749800 3.646200
N -20.600100 -23.894600 -3.121000
C -20.389500 -22.450200 2.654800
C -20.361900 -22.885100 0.184100
C -20.288900 -23.286300 -2.283400
C -19.944100 -22.024300 1.328600
C -19.912500 -22.433500 -1.156100
C -19.184600 -20.915900 1.156100
C -19.153000 -21.325100 -1.328600
C -18.808300 -20.063100 2.283400
C -18.735300 -20.464300 -0.184100
C -18.707700 -20.899200 -2.654800
N -18.497000 -19.454800 3.121000
N -18.370900 -20.599600 -3.646200
O -18.059500 -19.477400 -0.341100
36
Fragment
H -19.849700 -19.477700 -6.278400
H -19.611700 -18.106600 -5.487500
C -19.273300 -18.688600 -6.199200
O -19.270500 -17.969500 -7.447100
C -18.414000 -16.919100 -7.551800
H -18.407500 -17.025200 -9.589000
H -18.360300 -18.971500 -5.983200
H -18.165400 -16.435000 -5.580000
C -18.076100 -16.529500 -8.850100
C -17.935000 -16.183500 -6.466500
C -17.267700 -15.437800 -9.072300
C -17.126600 -15.091800 -6.688700
H -17.037300 -15.186300 -9.958800
H -16.842400 -12.649800 -9.555600
H -16.795200 -14.596100 -5.949800
C -16.788700 -14.702200 -7.986900
O -15.932200 -13.651800 -8.091700
C -15.929400 -12.932700 -9.339600
H -15.591000 -13.514700 -10.051200
H -15.353000 -12.143600 -9.260300
O -21.037600 -23.872000 0.341100
N -20.726200 -22.749800 3.646200
N -20.600100 -23.894600 -3.121000
C -20.389500 -22.450200 2.654800
C -20.361900 -22.885100 0.184100
C -20.288900 -23.286300 -2.283400
C -19.944100 -22.024300 1.328600
C -19.912500 -22.433500 -1.156100
C -19.184600 -20.915900 1.156100
C -19.153000 -21.325100 -1.328600
C -18.808300 -20.063100 2.283400
C -18.735300 -20.464300 -0.184100
C -18.707700 -20.899200 -2.654800
N -18.497000 -19.454800 3.121000
N -18.370900 -20.599600 -3.646200
O -18.059500 -19.477400 -0.341100
