16
Fragment
N -9.014300 -9.265200 -11.063900
C -8.648300 -9.022400 -10.078300
O -8.576500 -10.890500 -8.004500
C -8.191600 -9.777500 -7.717300
C -8.172900 -8.674700 -8.735400
N -7.749600 -11.326800 -4.597300
C -7.738000 -7.428400 -8.420900
C -7.734800 -10.526800 -5.348100
C -7.715200 -6.337200 -9.417500
C -7.712000 -9.435600 -6.344800
N -7.700400 -5.537200 -10.168400
C -7.277100 -8.189300 -6.030300
C -7.258400 -7.086500 -7.048400
O -6.873500 -5.973500 -6.761100
C -6.801600 -7.841600 -4.687400
N -6.435700 -7.598800 -3.701800
18
Fragment
H -5.981400 -3.810300 -8.339700
H -5.752100 -1.875100 -9.598400
C -5.653900 -3.018100 -7.929200
C -5.522900 -1.868400 -8.676300
H -5.398800 -3.836000 -6.058400
C -5.306000 -3.034800 -6.559700
H -5.139800 0.571300 -9.732100
C -5.048200 -0.672400 -8.077600
C -4.905700 0.548400 -8.811400
C -4.837600 -1.902900 -5.954300
C -4.695100 -0.682200 -6.688100
H -4.603500 -1.925900 -5.033600
C -4.437300 1.680300 -8.206000
H -4.344500 2.481500 -8.707300
C -4.220300 0.513900 -6.089400
C -4.089300 1.663600 -6.836500
H -3.991100 0.520500 -5.167200
H -3.761800 2.455800 -6.426000
34
Fragment
N -9.014300 -9.265200 -11.063900
C -8.648300 -9.022400 -10.078300
O -8.576500 -10.890500 -8.004500
C -8.191600 -9.777500 -7.717300
C -8.172900 -8.674700 -8.735400
N -7.749600 -11.326800 -4.597300
C -7.738000 -7.428400 -8.420900
C -7.734800 -10.526800 -5.348100
C -7.715200 -6.337200 -9.417500
C -7.712000 -9.435600 -6.344800
N -7.700400 -5.537200 -10.168400
C -7.277100 -8.189300 -6.030300
C -7.258400 -7.086500 -7.048400
O -6.873500 -5.973500 -6.761100
C -6.801600 -7.841600 -4.687400
N -6.435700 -7.598800 -3.701800
H -5.981400 -3.810300 -8.339700
H -5.752100 -1.875100 -9.598400
C -5.653900 -3.018100 -7.929200
C -5.522900 -1.868400 -8.676300
H -5.398800 -3.836000 -6.058400
C -5.306000 -3.034800 -6.559700
H -5.139800 0.571300 -9.732100
C -5.048200 -0.672400 -8.077600
C -4.905700 0.548400 -8.811400
C -4.837600 -1.902900 -5.954300
C -4.695100 -0.682200 -6.688100
H -4.603500 -1.925900 -5.033600
C -4.437300 1.680300 -8.206000
H -4.344500 2.481500 -8.707300
C -4.220300 0.513900 -6.089400
C -4.089300 1.663600 -6.836500
H -3.991100 0.520500 -5.167200
H -3.761800 2.455800 -6.426000
