16
Fragment
N -9.014300 -9.265200 -11.063900
C -8.648300 -9.022400 -10.078300
O -8.576500 -10.890500 -8.004500
C -8.191600 -9.777500 -7.717300
C -8.172900 -8.674700 -8.735400
N -7.749600 -11.326800 -4.597300
C -7.738000 -7.428400 -8.420900
C -7.734800 -10.526800 -5.348100
C -7.715200 -6.337200 -9.417500
C -7.712000 -9.435600 -6.344800
N -7.700400 -5.537200 -10.168400
C -7.277100 -8.189300 -6.030300
C -7.258400 -7.086500 -7.048400
O -6.873500 -5.973500 -6.761100
C -6.801600 -7.841600 -4.687400
N -6.435700 -7.598800 -3.701800
18
Fragment
H -7.756500 -7.010400 -0.956800
H -7.527200 -5.075200 -2.215600
C -7.429000 -6.218200 -0.546300
C -7.298000 -5.068500 -1.293500
H -7.173900 -7.036100 1.324500
C -7.081000 -6.234900 0.823200
H -6.914800 -2.628800 -2.349200
C -6.823200 -3.872500 -0.694700
C -6.680700 -2.651700 -1.428600
C -6.612600 -5.103000 1.428600
C -6.470200 -3.882300 0.694700
H -6.378600 -5.125900 2.349200
C -6.212300 -1.519800 -0.823200
H -6.119500 -0.718600 -1.324500
C -5.995400 -2.686200 1.293500
C -5.864400 -1.536500 0.546300
H -5.766200 -2.679600 2.215600
H -5.536900 -0.744300 0.956800
34
Fragment
N -9.014300 -9.265200 -11.063900
C -8.648300 -9.022400 -10.078300
O -8.576500 -10.890500 -8.004500
C -8.191600 -9.777500 -7.717300
C -8.172900 -8.674700 -8.735400
N -7.749600 -11.326800 -4.597300
C -7.738000 -7.428400 -8.420900
C -7.734800 -10.526800 -5.348100
C -7.715200 -6.337200 -9.417500
C -7.712000 -9.435600 -6.344800
N -7.700400 -5.537200 -10.168400
C -7.277100 -8.189300 -6.030300
C -7.258400 -7.086500 -7.048400
O -6.873500 -5.973500 -6.761100
C -6.801600 -7.841600 -4.687400
N -6.435700 -7.598800 -3.701800
H -7.756500 -7.010400 -0.956800
H -7.527200 -5.075200 -2.215600
C -7.429000 -6.218200 -0.546300
C -7.298000 -5.068500 -1.293500
H -7.173900 -7.036100 1.324500
C -7.081000 -6.234900 0.823200
H -6.914800 -2.628800 -2.349200
C -6.823200 -3.872500 -0.694700
C -6.680700 -2.651700 -1.428600
C -6.612600 -5.103000 1.428600
C -6.470200 -3.882300 0.694700
H -6.378600 -5.125900 2.349200
C -6.212300 -1.519800 -0.823200
H -6.119500 -0.718600 -1.324500
C -5.995400 -2.686200 1.293500
C -5.864400 -1.536500 0.546300
H -5.766200 -2.679600 2.215600
H -5.536900 -0.744300 0.956800
