16
Fragment
N -9.014300 -9.265200 -11.063900
C -8.648300 -9.022400 -10.078300
O -8.576500 -10.890500 -8.004500
C -8.191600 -9.777500 -7.717300
C -8.172900 -8.674700 -8.735400
N -7.749600 -11.326800 -4.597300
C -7.738000 -7.428400 -8.420900
C -7.734800 -10.526800 -5.348100
C -7.715200 -6.337200 -9.417500
C -7.712000 -9.435600 -6.344800
N -7.700400 -5.537200 -10.168400
C -7.277100 -8.189300 -6.030300
C -7.258400 -7.086500 -7.048400
O -6.873500 -5.973500 -6.761100
C -6.801600 -7.841600 -4.687400
N -6.435700 -7.598800 -3.701800
18
Fragment
H -7.129800 -14.765100 -0.956800
H -6.900500 -12.829900 -2.215600
C -6.802300 -13.972900 -0.546300
C -6.671300 -12.823200 -1.293500
H -6.547200 -14.790800 1.324500
C -6.454400 -13.989600 0.823200
H -6.288100 -10.383500 -2.349200
C -6.196500 -11.627200 -0.694700
C -6.054100 -10.406400 -1.428600
C -5.986000 -12.857700 1.428600
C -5.843500 -11.637000 0.694700
H -5.751900 -12.880700 2.349200
C -5.585700 -9.274600 -0.823200
H -5.492800 -8.473300 -1.324500
C -5.368700 -10.440900 1.293500
C -5.237700 -9.291200 0.546300
H -5.139500 -10.434300 2.215600
H -4.910200 -8.499000 0.956800
34
Fragment
N -9.014300 -9.265200 -11.063900
C -8.648300 -9.022400 -10.078300
O -8.576500 -10.890500 -8.004500
C -8.191600 -9.777500 -7.717300
C -8.172900 -8.674700 -8.735400
N -7.749600 -11.326800 -4.597300
C -7.738000 -7.428400 -8.420900
C -7.734800 -10.526800 -5.348100
C -7.715200 -6.337200 -9.417500
C -7.712000 -9.435600 -6.344800
N -7.700400 -5.537200 -10.168400
C -7.277100 -8.189300 -6.030300
C -7.258400 -7.086500 -7.048400
O -6.873500 -5.973500 -6.761100
C -6.801600 -7.841600 -4.687400
N -6.435700 -7.598800 -3.701800
H -7.129800 -14.765100 -0.956800
H -6.900500 -12.829900 -2.215600
C -6.802300 -13.972900 -0.546300
C -6.671300 -12.823200 -1.293500
H -6.547200 -14.790800 1.324500
C -6.454400 -13.989600 0.823200
H -6.288100 -10.383500 -2.349200
C -6.196500 -11.627200 -0.694700
C -6.054100 -10.406400 -1.428600
C -5.986000 -12.857700 1.428600
C -5.843500 -11.637000 0.694700
H -5.751900 -12.880700 2.349200
C -5.585700 -9.274600 -0.823200
H -5.492800 -8.473300 -1.324500
C -5.368700 -10.440900 1.293500
C -5.237700 -9.291200 0.546300
H -5.139500 -10.434300 2.215600
H -4.910200 -8.499000 0.956800
