20
Fragment
H -19.849700 -19.477700 -6.278400
H -19.611700 -18.106600 -5.487500
C -19.273300 -18.688600 -6.199200
O -19.270500 -17.969500 -7.447100
C -18.414000 -16.919100 -7.551800
H -18.407500 -17.025200 -9.589000
H -18.360300 -18.971500 -5.983200
H -18.165400 -16.435000 -5.580000
C -18.076100 -16.529500 -8.850100
C -17.935000 -16.183500 -6.466500
C -17.267700 -15.437800 -9.072300
C -17.126600 -15.091800 -6.688700
H -17.037300 -15.186300 -9.958800
H -16.842400 -12.649800 -9.555600
H -16.795200 -14.596100 -5.949800
C -16.788700 -14.702200 -7.986900
O -15.932200 -13.651800 -8.091700
C -15.929400 -12.932700 -9.339600
H -15.591000 -13.514700 -10.051200
H -15.353000 -12.143600 -9.260300
20
Fragment
H -21.504600 -26.702600 -6.278400
H -21.266600 -25.331500 -5.487500
C -20.928200 -25.913500 -6.199200
O -20.925400 -25.194400 -7.447100
C -20.068800 -24.144000 -7.551800
H -20.062300 -24.250200 -9.589000
H -20.015200 -26.196400 -5.983200
H -19.820300 -23.659900 -5.580000
C -19.731000 -23.754400 -8.850100
C -19.589900 -23.408400 -6.466500
C -18.922600 -22.662700 -9.072300
C -18.781400 -22.316700 -6.688700
H -18.692100 -22.411200 -9.958800
H -18.497200 -19.874700 -9.555600
H -18.450100 -21.821000 -5.949800
C -18.443600 -21.927100 -7.986900
O -17.587000 -20.876700 -8.091700
C -17.584200 -20.157600 -9.339600
H -17.245800 -20.739600 -10.051200
H -17.007800 -19.368500 -9.260300
40
Fragment
H -19.849700 -19.477700 -6.278400
H -19.611700 -18.106600 -5.487500
C -19.273300 -18.688600 -6.199200
O -19.270500 -17.969500 -7.447100
C -18.414000 -16.919100 -7.551800
H -18.407500 -17.025200 -9.589000
H -18.360300 -18.971500 -5.983200
H -18.165400 -16.435000 -5.580000
C -18.076100 -16.529500 -8.850100
C -17.935000 -16.183500 -6.466500
C -17.267700 -15.437800 -9.072300
C -17.126600 -15.091800 -6.688700
H -17.037300 -15.186300 -9.958800
H -16.842400 -12.649800 -9.555600
H -16.795200 -14.596100 -5.949800
C -16.788700 -14.702200 -7.986900
O -15.932200 -13.651800 -8.091700
C -15.929400 -12.932700 -9.339600
H -15.591000 -13.514700 -10.051200
H -15.353000 -12.143600 -9.260300
H -21.504600 -26.702600 -6.278400
H -21.266600 -25.331500 -5.487500
C -20.928200 -25.913500 -6.199200
O -20.925400 -25.194400 -7.447100
C -20.068800 -24.144000 -7.551800
H -20.062300 -24.250200 -9.589000
H -20.015200 -26.196400 -5.983200
H -19.820300 -23.659900 -5.580000
C -19.731000 -23.754400 -8.850100
C -19.589900 -23.408400 -6.466500
C -18.922600 -22.662700 -9.072300
C -18.781400 -22.316700 -6.688700
H -18.692100 -22.411200 -9.958800
H -18.497200 -19.874700 -9.555600
H -18.450100 -21.821000 -5.949800
C -18.443600 -21.927100 -7.986900
O -17.587000 -20.876700 -8.091700
C -17.584200 -20.157600 -9.339600
H -17.245800 -20.739600 -10.051200
H -17.007800 -19.368500 -9.260300
