16
Fragment
N -11.558700 -9.871200 -65.464700
C -10.715900 -10.233600 -66.147900
H -10.520500 -9.982400 -68.736200
C -9.779100 -10.431300 -68.399900
C -9.667100 -10.684600 -67.031700
N -8.857200 -10.437100 -71.792900
C -8.845400 -10.620200 -70.666700
C -8.764500 -10.859600 -69.249600
C -8.548100 -11.367000 -66.526100
C -8.458500 -11.719200 -65.128000
N -8.383200 -12.053800 -64.039400
C -7.626200 -11.511200 -68.737500
C -7.522300 -11.771100 -67.378300
H -6.775200 -12.210400 -67.037700
C -6.573100 -11.924900 -69.632900
N -5.732100 -12.241900 -70.344700
28
Fragment
H -10.473900 -13.920100 -68.174300
H -9.925300 -13.927400 -70.451900
C -9.653400 -14.258300 -68.452200
C -9.344900 -14.264900 -69.810100
H -8.989100 -14.713700 -66.592600
C -8.754600 -14.751100 -67.492000
C -8.120700 -14.805300 -70.133400
O -7.578300 -14.969400 -71.384900
C -7.526700 -15.290700 -67.848100
C -7.218100 -15.334600 -69.207700
H -6.933900 -15.610700 -67.206300
H -6.848600 -15.421800 -73.680200
H -6.642100 -15.421800 -76.070000
C -6.388300 -15.620200 -71.154600
N -6.122700 -15.858900 -69.897800
C -5.998900 -15.782000 -73.563000
C -5.792400 -15.797400 -76.026400
C -5.588400 -15.966500 -72.304600
H -5.473300 -15.856700 -78.032100
C -5.238800 -16.091700 -74.777900
C -5.099500 -16.053600 -77.201900
H -4.746800 -16.335500 -72.163200
C -3.959900 -16.663500 -74.729900
C -3.840500 -16.609300 -77.105100
H -3.578000 -16.868500 -73.904900
C -3.258200 -16.926400 -75.895400
F -3.138200 -16.864200 -78.235600
H -2.411600 -17.309300 -75.862600
44
Fragment
N -11.558700 -9.871200 -65.464700
C -10.715900 -10.233600 -66.147900
H -10.520500 -9.982400 -68.736200
C -9.779100 -10.431300 -68.399900
C -9.667100 -10.684600 -67.031700
N -8.857200 -10.437100 -71.792900
C -8.845400 -10.620200 -70.666700
C -8.764500 -10.859600 -69.249600
C -8.548100 -11.367000 -66.526100
C -8.458500 -11.719200 -65.128000
N -8.383200 -12.053800 -64.039400
C -7.626200 -11.511200 -68.737500
C -7.522300 -11.771100 -67.378300
H -6.775200 -12.210400 -67.037700
C -6.573100 -11.924900 -69.632900
N -5.732100 -12.241900 -70.344700
H -10.473900 -13.920100 -68.174300
H -9.925300 -13.927400 -70.451900
C -9.653400 -14.258300 -68.452200
C -9.344900 -14.264900 -69.810100
H -8.989100 -14.713700 -66.592600
C -8.754600 -14.751100 -67.492000
C -8.120700 -14.805300 -70.133400
O -7.578300 -14.969400 -71.384900
C -7.526700 -15.290700 -67.848100
C -7.218100 -15.334600 -69.207700
H -6.933900 -15.610700 -67.206300
H -6.848600 -15.421800 -73.680200
H -6.642100 -15.421800 -76.070000
C -6.388300 -15.620200 -71.154600
N -6.122700 -15.858900 -69.897800
C -5.998900 -15.782000 -73.563000
C -5.792400 -15.797400 -76.026400
C -5.588400 -15.966500 -72.304600
H -5.473300 -15.856700 -78.032100
C -5.238800 -16.091700 -74.777900
C -5.099500 -16.053600 -77.201900
H -4.746800 -16.335500 -72.163200
C -3.959900 -16.663500 -74.729900
C -3.840500 -16.609300 -77.105100
H -3.578000 -16.868500 -73.904900
C -3.258200 -16.926400 -75.895400
F -3.138200 -16.864200 -78.235600
H -2.411600 -17.309300 -75.862600
