16
Fragment
N -11.558700 -9.871200 -65.464700
C -10.715900 -10.233600 -66.147900
H -10.520500 -9.982400 -68.736200
C -9.779100 -10.431300 -68.399900
C -9.667100 -10.684600 -67.031700
N -8.857200 -10.437100 -71.792900
C -8.845400 -10.620200 -70.666700
C -8.764500 -10.859600 -69.249600
C -8.548100 -11.367000 -66.526100
C -8.458500 -11.719200 -65.128000
N -8.383200 -12.053800 -64.039400
C -7.626200 -11.511200 -68.737500
C -7.522300 -11.771100 -67.378300
H -6.775200 -12.210400 -67.037700
C -6.573100 -11.924900 -69.632900
N -5.732100 -12.241900 -70.344700
28
Fragment
H -10.029100 -13.648400 -75.395900
F -9.302600 -13.203300 -73.022800
C -9.182500 -13.265500 -75.363000
H -8.862800 -13.207700 -77.353600
C -8.600300 -12.948500 -74.153400
C -8.480900 -13.002700 -76.528600
H -7.694000 -12.674600 -79.095200
C -7.341300 -12.392800 -74.056600
C -7.202000 -12.430800 -76.480600
H -6.967500 -12.195800 -73.226400
C -6.852400 -12.305600 -78.953900
C -6.648400 -12.136500 -75.232100
C -6.441800 -12.121100 -77.695400
N -6.318100 -12.198000 -81.360600
C -6.052400 -11.959300 -80.103900
H -5.798600 -11.760900 -75.188400
H -5.592100 -11.760900 -77.578300
H -5.506900 -11.949800 -84.052200
C -5.222600 -11.673800 -82.050800
C -4.914100 -11.629800 -83.410400
O -4.862500 -11.308500 -79.873500
C -4.320100 -11.144400 -81.125100
C -3.686200 -11.090200 -83.766500
H -3.451700 -11.052900 -84.665800
C -3.095900 -10.604100 -81.448400
C -2.787400 -10.597500 -82.806200
H -2.515500 -10.266500 -80.806600
H -1.966900 -10.259200 -83.084100
44
Fragment
N -11.558700 -9.871200 -65.464700
C -10.715900 -10.233600 -66.147900
H -10.520500 -9.982400 -68.736200
C -9.779100 -10.431300 -68.399900
C -9.667100 -10.684600 -67.031700
N -8.857200 -10.437100 -71.792900
C -8.845400 -10.620200 -70.666700
C -8.764500 -10.859600 -69.249600
C -8.548100 -11.367000 -66.526100
C -8.458500 -11.719200 -65.128000
N -8.383200 -12.053800 -64.039400
C -7.626200 -11.511200 -68.737500
C -7.522300 -11.771100 -67.378300
H -6.775200 -12.210400 -67.037700
C -6.573100 -11.924900 -69.632900
N -5.732100 -12.241900 -70.344700
H -10.029100 -13.648400 -75.395900
F -9.302600 -13.203300 -73.022800
C -9.182500 -13.265500 -75.363000
H -8.862800 -13.207700 -77.353600
C -8.600300 -12.948500 -74.153400
C -8.480900 -13.002700 -76.528600
H -7.694000 -12.674600 -79.095200
C -7.341300 -12.392800 -74.056600
C -7.202000 -12.430800 -76.480600
H -6.967500 -12.195800 -73.226400
C -6.852400 -12.305600 -78.953900
C -6.648400 -12.136500 -75.232100
C -6.441800 -12.121100 -77.695400
N -6.318100 -12.198000 -81.360600
C -6.052400 -11.959300 -80.103900
H -5.798600 -11.760900 -75.188400
H -5.592100 -11.760900 -77.578300
H -5.506900 -11.949800 -84.052200
C -5.222600 -11.673800 -82.050800
C -4.914100 -11.629800 -83.410400
O -4.862500 -11.308500 -79.873500
C -4.320100 -11.144400 -81.125100
C -3.686200 -11.090200 -83.766500
H -3.451700 -11.052900 -84.665800
C -3.095900 -10.604100 -81.448400
C -2.787400 -10.597500 -82.806200
H -2.515500 -10.266500 -80.806600
H -1.966900 -10.259200 -83.084100
