16
Fragment
N -11.558700 -9.871200 -65.464700
C -10.715900 -10.233600 -66.147900
H -10.520500 -9.982400 -68.736200
C -9.779100 -10.431300 -68.399900
C -9.667100 -10.684600 -67.031700
N -8.857200 -10.437100 -71.792900
C -8.845400 -10.620200 -70.666700
C -8.764500 -10.859600 -69.249600
C -8.548100 -11.367000 -66.526100
C -8.458500 -11.719200 -65.128000
N -8.383200 -12.053800 -64.039400
C -7.626200 -11.511200 -68.737500
C -7.522300 -11.771100 -67.378300
H -6.775200 -12.210400 -67.037700
C -6.573100 -11.924900 -69.632900
N -5.732100 -12.241900 -70.344700
16
Fragment
N -8.448500 -8.433200 -64.185400
C -7.605700 -8.070700 -63.502200
H -7.410400 -8.321900 -60.913900
C -6.668900 -7.873100 -61.250200
C -6.556900 -7.619700 -62.618400
N -5.747000 -7.867200 -57.857200
C -5.735200 -7.684200 -58.983400
C -5.654300 -7.444700 -60.400500
C -5.437900 -6.937300 -63.124000
C -5.348300 -6.585200 -64.522100
N -5.273000 -6.250600 -65.610700
C -4.516000 -6.793100 -60.912600
C -4.412100 -6.533200 -62.271800
H -3.665100 -6.093900 -62.612400
C -3.462900 -6.379400 -60.017200
N -2.621900 -6.062400 -59.305400
32
Fragment
N -11.558700 -9.871200 -65.464700
C -10.715900 -10.233600 -66.147900
H -10.520500 -9.982400 -68.736200
C -9.779100 -10.431300 -68.399900
C -9.667100 -10.684600 -67.031700
N -8.857200 -10.437100 -71.792900
C -8.845400 -10.620200 -70.666700
C -8.764500 -10.859600 -69.249600
C -8.548100 -11.367000 -66.526100
C -8.458500 -11.719200 -65.128000
N -8.383200 -12.053800 -64.039400
C -7.626200 -11.511200 -68.737500
C -7.522300 -11.771100 -67.378300
H -6.775200 -12.210400 -67.037700
C -6.573100 -11.924900 -69.632900
N -5.732100 -12.241900 -70.344700
N -8.448500 -8.433200 -64.185400
C -7.605700 -8.070700 -63.502200
H -7.410400 -8.321900 -60.913900
C -6.668900 -7.873100 -61.250200
C -6.556900 -7.619700 -62.618400
N -5.747000 -7.867200 -57.857200
C -5.735200 -7.684200 -58.983400
C -5.654300 -7.444700 -60.400500
C -5.437900 -6.937300 -63.124000
C -5.348300 -6.585200 -64.522100
N -5.273000 -6.250600 -65.610700
C -4.516000 -6.793100 -60.912600
C -4.412100 -6.533200 -62.271800
H -3.665100 -6.093900 -62.612400
C -3.462900 -6.379400 -60.017200
N -2.621900 -6.062400 -59.305400
