13
Fragment
H -23.287700 -6.430400 -20.177300
H -22.671200 -7.387300 -21.137800
N -22.590100 -6.813800 -20.501800
N -22.290300 -5.149700 -18.541600
O -22.150900 -4.261000 -17.661700
C -21.398600 -6.523200 -20.024400
N -21.182000 -5.576300 -19.039400
H -20.793800 -8.792100 -21.361900
H -20.614900 -7.606700 -22.372400
N -20.307000 -7.083500 -20.488000
C -20.264900 -8.021900 -21.580400
H -19.561200 -6.875900 -20.112000
H -19.357000 -8.291600 -21.735900
3
Fragment
H -24.636800 -4.848700 -15.556500
O -24.113600 -5.378600 -16.008600
H -23.590400 -4.848700 -16.460700
16
Fragment
H -23.287700 -6.430400 -20.177300
H -22.671200 -7.387300 -21.137800
N -22.590100 -6.813800 -20.501800
N -22.290300 -5.149700 -18.541600
O -22.150900 -4.261000 -17.661700
C -21.398600 -6.523200 -20.024400
N -21.182000 -5.576300 -19.039400
H -20.793800 -8.792100 -21.361900
H -20.614900 -7.606700 -22.372400
N -20.307000 -7.083500 -20.488000
C -20.264900 -8.021900 -21.580400
H -19.561200 -6.875900 -20.112000
H -19.357000 -8.291600 -21.735900
H -24.636800 -4.848700 -15.556500
O -24.113600 -5.378600 -16.008600
H -23.590400 -4.848700 -16.460700
