13
Fragment
H -23.287700 -6.430400 -20.177300
H -22.671200 -7.387300 -21.137800
N -22.590100 -6.813800 -20.501800
N -22.290300 -5.149700 -18.541600
O -22.150900 -4.261000 -17.661700
C -21.398600 -6.523200 -20.024400
N -21.182000 -5.576300 -19.039400
H -20.793800 -8.792100 -21.361900
H -20.614900 -7.606700 -22.372400
N -20.307000 -7.083500 -20.488000
C -20.264900 -8.021900 -21.580400
H -19.561200 -6.875900 -20.112000
H -19.357000 -8.291600 -21.735900
13
Fragment
H -23.984400 -7.788700 -13.773800
H -23.368000 -6.831800 -14.734300
N -23.286900 -7.405300 -14.098400
N -22.987000 -9.069400 -12.138100
O -22.847600 -9.958100 -11.258300
C -22.095300 -7.695900 -13.620900
N -21.878800 -8.642800 -12.635900
H -21.490600 -5.427000 -14.958500
H -21.311700 -6.612400 -15.968900
N -21.003800 -7.135600 -14.084500
C -20.961600 -6.197200 -15.177000
H -20.258000 -7.343200 -13.708500
H -20.053700 -5.927500 -15.332400
26
Fragment
H -23.287700 -6.430400 -20.177300
H -22.671200 -7.387300 -21.137800
N -22.590100 -6.813800 -20.501800
N -22.290300 -5.149700 -18.541600
O -22.150900 -4.261000 -17.661700
C -21.398600 -6.523200 -20.024400
N -21.182000 -5.576300 -19.039400
H -20.793800 -8.792100 -21.361900
H -20.614900 -7.606700 -22.372400
N -20.307000 -7.083500 -20.488000
C -20.264900 -8.021900 -21.580400
H -19.561200 -6.875900 -20.112000
H -19.357000 -8.291600 -21.735900
H -23.984400 -7.788700 -13.773800
H -23.368000 -6.831800 -14.734300
N -23.286900 -7.405300 -14.098400
N -22.987000 -9.069400 -12.138100
O -22.847600 -9.958100 -11.258300
C -22.095300 -7.695900 -13.620900
N -21.878800 -8.642800 -12.635900
H -21.490600 -5.427000 -14.958500
H -21.311700 -6.612400 -15.968900
N -21.003800 -7.135600 -14.084500
C -20.961600 -6.197200 -15.177000
H -20.258000 -7.343200 -13.708500
H -20.053700 -5.927500 -15.332400
