13
Fragment
H -23.287700 -6.430400 -20.177300
H -22.671200 -7.387300 -21.137800
N -22.590100 -6.813800 -20.501800
N -22.290300 -5.149700 -18.541600
O -22.150900 -4.261000 -17.661700
C -21.398600 -6.523200 -20.024400
N -21.182000 -5.576300 -19.039400
H -20.793800 -8.792100 -21.361900
H -20.614900 -7.606700 -22.372400
N -20.307000 -7.083500 -20.488000
C -20.264900 -8.021900 -21.580400
H -19.561200 -6.875900 -20.112000
H -19.357000 -8.291600 -21.735900
13
Fragment
H -22.590900 -3.049000 -26.580700
H -21.974400 -2.092100 -27.541300
N -21.893300 -2.665600 -26.905300
N -21.593500 -4.329700 -24.945000
O -21.454100 -5.218400 -24.065200
C -20.701800 -2.956200 -26.427800
N -20.485300 -3.903100 -25.442800
H -20.097100 -0.687300 -27.765400
H -19.918200 -1.872700 -28.775800
N -19.610300 -2.395900 -26.891400
C -19.568100 -1.457500 -27.983900
H -18.864500 -2.603500 -26.515400
H -18.660200 -1.187800 -28.139300
26
Fragment
H -23.287700 -6.430400 -20.177300
H -22.671200 -7.387300 -21.137800
N -22.590100 -6.813800 -20.501800
N -22.290300 -5.149700 -18.541600
O -22.150900 -4.261000 -17.661700
C -21.398600 -6.523200 -20.024400
N -21.182000 -5.576300 -19.039400
H -20.793800 -8.792100 -21.361900
H -20.614900 -7.606700 -22.372400
N -20.307000 -7.083500 -20.488000
C -20.264900 -8.021900 -21.580400
H -19.561200 -6.875900 -20.112000
H -19.357000 -8.291600 -21.735900
H -22.590900 -3.049000 -26.580700
H -21.974400 -2.092100 -27.541300
N -21.893300 -2.665600 -26.905300
N -21.593500 -4.329700 -24.945000
O -21.454100 -5.218400 -24.065200
C -20.701800 -2.956200 -26.427800
N -20.485300 -3.903100 -25.442800
H -20.097100 -0.687300 -27.765400
H -19.918200 -1.872700 -28.775800
N -19.610300 -2.395900 -26.891400
C -19.568100 -1.457500 -27.983900
H -18.864500 -2.603500 -26.515400
H -18.660200 -1.187800 -28.139300
