13
Fragment
H -23.287700 -6.430400 -20.177300
H -22.671200 -7.387300 -21.137800
N -22.590100 -6.813800 -20.501800
N -22.290300 -5.149700 -18.541600
O -22.150900 -4.261000 -17.661700
C -21.398600 -6.523200 -20.024400
N -21.182000 -5.576300 -19.039400
H -20.793800 -8.792100 -21.361900
H -20.614900 -7.606700 -22.372400
N -20.307000 -7.083500 -20.488000
C -20.264900 -8.021900 -21.580400
H -19.561200 -6.875900 -20.112000
H -19.357000 -8.291600 -21.735900
13
Fragment
H -23.984400 -3.049000 -13.773800
H -23.368000 -2.092100 -14.734300
N -23.286900 -2.665600 -14.098400
N -22.987000 -4.329700 -12.138100
O -22.847600 -5.218400 -11.258300
C -22.095300 -2.956200 -13.620900
N -21.878800 -3.903100 -12.635900
H -21.490600 -0.687300 -14.958500
H -21.311700 -1.872700 -15.968900
N -21.003800 -2.395900 -14.084500
C -20.961600 -1.457500 -15.177000
H -20.258000 -2.603500 -13.708500
H -20.053700 -1.187800 -15.332400
26
Fragment
H -23.287700 -6.430400 -20.177300
H -22.671200 -7.387300 -21.137800
N -22.590100 -6.813800 -20.501800
N -22.290300 -5.149700 -18.541600
O -22.150900 -4.261000 -17.661700
C -21.398600 -6.523200 -20.024400
N -21.182000 -5.576300 -19.039400
H -20.793800 -8.792100 -21.361900
H -20.614900 -7.606700 -22.372400
N -20.307000 -7.083500 -20.488000
C -20.264900 -8.021900 -21.580400
H -19.561200 -6.875900 -20.112000
H -19.357000 -8.291600 -21.735900
H -23.984400 -3.049000 -13.773800
H -23.368000 -2.092100 -14.734300
N -23.286900 -2.665600 -14.098400
N -22.987000 -4.329700 -12.138100
O -22.847600 -5.218400 -11.258300
C -22.095300 -2.956200 -13.620900
N -21.878800 -3.903100 -12.635900
H -21.490600 -0.687300 -14.958500
H -21.311700 -1.872700 -15.968900
N -21.003800 -2.395900 -14.084500
C -20.961600 -1.457500 -15.177000
H -20.258000 -2.603500 -13.708500
H -20.053700 -1.187800 -15.332400
