22
Fragment
H -12.079800 -9.315900 -20.141300
H -11.856200 -9.222000 -21.688800
C -11.402600 -9.249700 -20.832200
H -10.823700 -8.208900 -18.629200
H -10.690500 -10.613200 -18.806200
N -10.652700 -7.994100 -20.646700
N -10.539600 -10.469600 -20.781200
C -10.090800 -8.140300 -19.260700
C -9.973500 -10.494800 -19.450400
H -9.894100 -7.901200 -22.453300
H -9.866300 -10.294100 -22.606200
H -9.584800 -7.342900 -19.039800
C -9.547800 -7.989200 -21.551400
C -9.488800 -10.321700 -21.712800
H -9.381300 -11.258700 -19.375300
N -9.235800 -9.293700 -19.113400
H -9.011500 -7.201900 -21.368800
H -8.913100 -11.099700 -21.660400
N -8.687500 -9.137500 -21.511800
C -8.159600 -9.195500 -20.138500
H -7.631400 -8.400400 -19.968600
H -7.573000 -9.964300 -20.057800
22
Fragment
H -4.748300 -9.315900 -20.141300
H -4.524700 -9.222000 -21.688800
C -4.071100 -9.249700 -20.832200
H -3.492200 -8.208900 -18.629200
H -3.359000 -10.613200 -18.806200
N -3.321200 -7.994100 -20.646700
N -3.208100 -10.469600 -20.781200
C -2.759300 -8.140300 -19.260700
C -2.642000 -10.494800 -19.450400
H -2.562600 -7.901200 -22.453300
H -2.534800 -10.294100 -22.606200
H -2.253300 -7.342900 -19.039800
C -2.216300 -7.989200 -21.551400
C -2.157300 -10.321700 -21.712800
H -2.049800 -11.258700 -19.375300
N -1.904300 -9.293700 -19.113400
H -1.680000 -7.201900 -21.368800
H -1.581600 -11.099700 -21.660400
N -1.356000 -9.137500 -21.511800
C -0.828100 -9.195500 -20.138500
H -0.299900 -8.400400 -19.968600
H -0.241500 -9.964300 -20.057800
44
Fragment
H -12.079800 -9.315900 -20.141300
H -11.856200 -9.222000 -21.688800
C -11.402600 -9.249700 -20.832200
H -10.823700 -8.208900 -18.629200
H -10.690500 -10.613200 -18.806200
N -10.652700 -7.994100 -20.646700
N -10.539600 -10.469600 -20.781200
C -10.090800 -8.140300 -19.260700
C -9.973500 -10.494800 -19.450400
H -9.894100 -7.901200 -22.453300
H -9.866300 -10.294100 -22.606200
H -9.584800 -7.342900 -19.039800
C -9.547800 -7.989200 -21.551400
C -9.488800 -10.321700 -21.712800
H -9.381300 -11.258700 -19.375300
N -9.235800 -9.293700 -19.113400
H -9.011500 -7.201900 -21.368800
H -8.913100 -11.099700 -21.660400
N -8.687500 -9.137500 -21.511800
C -8.159600 -9.195500 -20.138500
H -7.631400 -8.400400 -19.968600
H -7.573000 -9.964300 -20.057800
H -4.748300 -9.315900 -20.141300
H -4.524700 -9.222000 -21.688800
C -4.071100 -9.249700 -20.832200
H -3.492200 -8.208900 -18.629200
H -3.359000 -10.613200 -18.806200
N -3.321200 -7.994100 -20.646700
N -3.208100 -10.469600 -20.781200
C -2.759300 -8.140300 -19.260700
C -2.642000 -10.494800 -19.450400
H -2.562600 -7.901200 -22.453300
H -2.534800 -10.294100 -22.606200
H -2.253300 -7.342900 -19.039800
C -2.216300 -7.989200 -21.551400
C -2.157300 -10.321700 -21.712800
H -2.049800 -11.258700 -19.375300
N -1.904300 -9.293700 -19.113400
H -1.680000 -7.201900 -21.368800
H -1.581600 -11.099700 -21.660400
N -1.356000 -9.137500 -21.511800
C -0.828100 -9.195500 -20.138500
H -0.299900 -8.400400 -19.968600
H -0.241500 -9.964300 -20.057800
