22
Fragment
H -12.079800 -9.315900 -20.141300
H -11.856200 -9.222000 -21.688800
C -11.402600 -9.249700 -20.832200
H -10.823700 -8.208900 -18.629200
H -10.690500 -10.613200 -18.806200
N -10.652700 -7.994100 -20.646700
N -10.539600 -10.469600 -20.781200
C -10.090800 -8.140300 -19.260700
C -9.973500 -10.494800 -19.450400
H -9.894100 -7.901200 -22.453300
H -9.866300 -10.294100 -22.606200
H -9.584800 -7.342900 -19.039800
C -9.547800 -7.989200 -21.551400
C -9.488800 -10.321700 -21.712800
H -9.381300 -11.258700 -19.375300
N -9.235800 -9.293700 -19.113400
H -9.011500 -7.201900 -21.368800
H -8.913100 -11.099700 -21.660400
N -8.687500 -9.137500 -21.511800
C -8.159600 -9.195500 -20.138500
H -7.631400 -8.400400 -19.968600
H -7.573000 -9.964300 -20.057800
22
Fragment
H -11.504900 -14.231900 -22.416500
H -11.446500 -15.795800 -22.505700
C -10.918300 -15.000700 -22.335800
N -10.390400 -15.058700 -20.962500
H -10.164800 -13.096600 -20.813800
H -10.066300 -16.994300 -21.105500
N -9.842100 -14.902500 -23.360800
H -9.696600 -12.937600 -23.098900
C -9.589100 -13.874500 -20.761400
C -9.530100 -16.207100 -20.922800
H -9.493000 -16.853400 -23.434500
H -9.211500 -13.902200 -19.868000
H -9.183800 -16.295100 -20.020900
C -9.104300 -13.701400 -23.023900
C -8.987100 -16.055900 -23.213600
N -8.538300 -13.726600 -21.693000
N -8.425200 -16.202100 -21.827500
H -8.387400 -13.583000 -23.668100
H -8.254200 -15.987300 -23.845000
C -7.675300 -14.946500 -21.642000
H -7.221700 -14.974200 -20.785500
H -6.998100 -14.880300 -22.333000
44
Fragment
H -12.079800 -9.315900 -20.141300
H -11.856200 -9.222000 -21.688800
C -11.402600 -9.249700 -20.832200
H -10.823700 -8.208900 -18.629200
H -10.690500 -10.613200 -18.806200
N -10.652700 -7.994100 -20.646700
N -10.539600 -10.469600 -20.781200
C -10.090800 -8.140300 -19.260700
C -9.973500 -10.494800 -19.450400
H -9.894100 -7.901200 -22.453300
H -9.866300 -10.294100 -22.606200
H -9.584800 -7.342900 -19.039800
C -9.547800 -7.989200 -21.551400
C -9.488800 -10.321700 -21.712800
H -9.381300 -11.258700 -19.375300
N -9.235800 -9.293700 -19.113400
H -9.011500 -7.201900 -21.368800
H -8.913100 -11.099700 -21.660400
N -8.687500 -9.137500 -21.511800
C -8.159600 -9.195500 -20.138500
H -7.631400 -8.400400 -19.968600
H -7.573000 -9.964300 -20.057800
H -11.504900 -14.231900 -22.416500
H -11.446500 -15.795800 -22.505700
C -10.918300 -15.000700 -22.335800
N -10.390400 -15.058700 -20.962500
H -10.164800 -13.096600 -20.813800
H -10.066300 -16.994300 -21.105500
N -9.842100 -14.902500 -23.360800
H -9.696600 -12.937600 -23.098900
C -9.589100 -13.874500 -20.761400
C -9.530100 -16.207100 -20.922800
H -9.493000 -16.853400 -23.434500
H -9.211500 -13.902200 -19.868000
H -9.183800 -16.295100 -20.020900
C -9.104300 -13.701400 -23.023900
C -8.987100 -16.055900 -23.213600
N -8.538300 -13.726600 -21.693000
N -8.425200 -16.202100 -21.827500
H -8.387400 -13.583000 -23.668100
H -8.254200 -15.987300 -23.845000
C -7.675300 -14.946500 -21.642000
H -7.221700 -14.974200 -20.785500
H -6.998100 -14.880300 -22.333000
