27
Fragment
Br -8.190700 -9.606100 -18.684600
H -8.128500 -11.312600 -16.479300
Br -7.538800 -15.676700 -22.786600
O -7.537200 -11.701500 -16.414200
C -6.803700 -10.892100 -18.594100
C -6.713700 -11.730000 -17.481600
H -6.243900 -13.614500 -21.243100
H -6.053500 -10.413600 -20.386500
C -5.953500 -10.990900 -19.665000
C -5.862300 -14.784600 -22.822300
H -5.700300 -16.413500 -24.843400
C -5.679800 -12.667300 -17.508900
C -5.597700 -13.826600 -21.878100
Br -5.432400 -13.807300 -16.014700
O -5.092000 -16.126400 -24.722600
C -4.943500 -15.154500 -23.793800
C -4.927400 -11.959900 -19.684000
C -4.812800 -12.781400 -18.575100
C -4.379900 -13.175300 -21.861500
H -4.139700 -13.422300 -18.547900
C -4.021000 -12.086800 -20.859200
H -4.006200 -11.236400 -21.326000
C -3.733700 -14.458100 -23.784300
C -3.443400 -13.500200 -22.846000
H -3.122700 -12.255100 -20.534600
H -2.621500 -13.066500 -22.864900
Br -2.465600 -14.821400 -25.135300
27
Fragment
Br -3.613700 -12.776500 -10.406000
H -3.457900 -14.531500 -12.676400
H -2.956600 -15.342900 -15.006800
C -2.635900 -14.097700 -12.695400
C -2.345600 -13.139900 -11.757100
H -2.073100 -16.361600 -14.215400
C -2.058400 -15.511200 -14.682100
H -1.939600 -14.175600 -16.993500
C -1.699500 -14.422700 -13.679900
C -1.266500 -14.816500 -16.966300
C -1.151900 -15.638100 -15.857400
C -1.135800 -12.443500 -11.747600
O -0.987300 -11.471600 -10.818800
Br -0.646900 -13.790700 -19.526700
C -0.481600 -13.771400 -13.663300
C -0.399500 -14.930700 -18.032500
H -0.379000 -11.184400 -10.698000
C -0.217000 -12.813400 -12.719100
C -0.125900 -16.607100 -15.876300
H -0.025800 -17.184400 -15.154800
H 0.164600 -13.983500 -14.298300
C 0.634400 -15.867900 -18.059800
C 0.724300 -16.705900 -16.947300
O 1.457900 -15.896500 -19.127200
Br 1.459500 -11.921200 -12.754700
H 2.049100 -16.285400 -19.062000
Br 2.111400 -17.991900 -16.856800
54
Fragment
Br -8.190700 -9.606100 -18.684600
H -8.128500 -11.312600 -16.479300
Br -7.538800 -15.676700 -22.786600
O -7.537200 -11.701500 -16.414200
C -6.803700 -10.892100 -18.594100
C -6.713700 -11.730000 -17.481600
H -6.243900 -13.614500 -21.243100
H -6.053500 -10.413600 -20.386500
C -5.953500 -10.990900 -19.665000
C -5.862300 -14.784600 -22.822300
H -5.700300 -16.413500 -24.843400
C -5.679800 -12.667300 -17.508900
C -5.597700 -13.826600 -21.878100
Br -5.432400 -13.807300 -16.014700
O -5.092000 -16.126400 -24.722600
C -4.943500 -15.154500 -23.793800
C -4.927400 -11.959900 -19.684000
C -4.812800 -12.781400 -18.575100
C -4.379900 -13.175300 -21.861500
H -4.139700 -13.422300 -18.547900
C -4.021000 -12.086800 -20.859200
H -4.006200 -11.236400 -21.326000
C -3.733700 -14.458100 -23.784300
C -3.443400 -13.500200 -22.846000
H -3.122700 -12.255100 -20.534600
H -2.621500 -13.066500 -22.864900
Br -2.465600 -14.821400 -25.135300
Br -3.613700 -12.776500 -10.406000
H -3.457900 -14.531500 -12.676400
H -2.956600 -15.342900 -15.006800
C -2.635900 -14.097700 -12.695400
C -2.345600 -13.139900 -11.757100
H -2.073100 -16.361600 -14.215400
C -2.058400 -15.511200 -14.682100
H -1.939600 -14.175600 -16.993500
C -1.699500 -14.422700 -13.679900
C -1.266500 -14.816500 -16.966300
C -1.151900 -15.638100 -15.857400
C -1.135800 -12.443500 -11.747600
O -0.987300 -11.471600 -10.818800
Br -0.646900 -13.790700 -19.526700
C -0.481600 -13.771400 -13.663300
C -0.399500 -14.930700 -18.032500
H -0.379000 -11.184400 -10.698000
C -0.217000 -12.813400 -12.719100
C -0.125900 -16.607100 -15.876300
H -0.025800 -17.184400 -15.154800
H 0.164600 -13.983500 -14.298300
C 0.634400 -15.867900 -18.059800
C 0.724300 -16.705900 -16.947300
O 1.457900 -15.896500 -19.127200
Br 1.459500 -11.921200 -12.754700
H 2.049100 -16.285400 -19.062000
Br 2.111400 -17.991900 -16.856800
