27
Fragment
Br -8.190700 -9.606100 -18.684600
H -8.128500 -11.312600 -16.479300
Br -7.538800 -15.676700 -22.786600
O -7.537200 -11.701500 -16.414200
C -6.803700 -10.892100 -18.594100
C -6.713700 -11.730000 -17.481600
H -6.243900 -13.614500 -21.243100
H -6.053500 -10.413600 -20.386500
C -5.953500 -10.990900 -19.665000
C -5.862300 -14.784600 -22.822300
H -5.700300 -16.413500 -24.843400
C -5.679800 -12.667300 -17.508900
C -5.597700 -13.826600 -21.878100
Br -5.432400 -13.807300 -16.014700
O -5.092000 -16.126400 -24.722600
C -4.943500 -15.154500 -23.793800
C -4.927400 -11.959900 -19.684000
C -4.812800 -12.781400 -18.575100
C -4.379900 -13.175300 -21.861500
H -4.139700 -13.422300 -18.547900
C -4.021000 -12.086800 -20.859200
H -4.006200 -11.236400 -21.326000
C -3.733700 -14.458100 -23.784300
C -3.443400 -13.500200 -22.846000
H -3.122700 -12.255100 -20.534600
H -2.621500 -13.066500 -22.864900
Br -2.465600 -14.821400 -25.135300
27
Fragment
Br -5.115500 -7.565300 -30.531700
H -5.053200 -9.271800 -28.326500
Br -4.463600 -13.636000 -34.633800
O -4.462000 -9.660700 -28.261300
C -3.728400 -8.851400 -30.441200
C -3.638500 -9.689300 -29.328700
H -3.168700 -11.573800 -33.090200
H -2.978300 -8.372900 -32.233700
C -2.878200 -8.950100 -31.512200
C -2.787100 -12.743800 -34.669400
H -2.625100 -14.372800 -36.690500
C -2.604600 -10.626500 -29.356000
C -2.522500 -11.785800 -33.725200
Br -2.357200 -11.766600 -27.861800
O -2.016800 -14.085600 -36.569700
C -1.868300 -13.113800 -35.640900
C -1.852200 -9.919100 -31.531100
C -1.737600 -10.740700 -30.422200
C -1.304600 -11.134500 -33.708600
H -1.064500 -11.381600 -30.395000
C -0.945700 -10.046000 -32.706400
H -0.931000 -9.195700 -33.173100
C -0.658500 -12.417400 -35.631400
C -0.368200 -11.459500 -34.693100
H -0.047500 -10.214400 -32.381700
H 0.453800 -11.025700 -34.712100
Br 0.609600 -12.780700 -36.982500
54
Fragment
Br -8.190700 -9.606100 -18.684600
H -8.128500 -11.312600 -16.479300
Br -7.538800 -15.676700 -22.786600
O -7.537200 -11.701500 -16.414200
C -6.803700 -10.892100 -18.594100
C -6.713700 -11.730000 -17.481600
H -6.243900 -13.614500 -21.243100
H -6.053500 -10.413600 -20.386500
C -5.953500 -10.990900 -19.665000
C -5.862300 -14.784600 -22.822300
H -5.700300 -16.413500 -24.843400
C -5.679800 -12.667300 -17.508900
C -5.597700 -13.826600 -21.878100
Br -5.432400 -13.807300 -16.014700
O -5.092000 -16.126400 -24.722600
C -4.943500 -15.154500 -23.793800
C -4.927400 -11.959900 -19.684000
C -4.812800 -12.781400 -18.575100
C -4.379900 -13.175300 -21.861500
H -4.139700 -13.422300 -18.547900
C -4.021000 -12.086800 -20.859200
H -4.006200 -11.236400 -21.326000
C -3.733700 -14.458100 -23.784300
C -3.443400 -13.500200 -22.846000
H -3.122700 -12.255100 -20.534600
H -2.621500 -13.066500 -22.864900
Br -2.465600 -14.821400 -25.135300
Br -5.115500 -7.565300 -30.531700
H -5.053200 -9.271800 -28.326500
Br -4.463600 -13.636000 -34.633800
O -4.462000 -9.660700 -28.261300
C -3.728400 -8.851400 -30.441200
C -3.638500 -9.689300 -29.328700
H -3.168700 -11.573800 -33.090200
H -2.978300 -8.372900 -32.233700
C -2.878200 -8.950100 -31.512200
C -2.787100 -12.743800 -34.669400
H -2.625100 -14.372800 -36.690500
C -2.604600 -10.626500 -29.356000
C -2.522500 -11.785800 -33.725200
Br -2.357200 -11.766600 -27.861800
O -2.016800 -14.085600 -36.569700
C -1.868300 -13.113800 -35.640900
C -1.852200 -9.919100 -31.531100
C -1.737600 -10.740700 -30.422200
C -1.304600 -11.134500 -33.708600
H -1.064500 -11.381600 -30.395000
C -0.945700 -10.046000 -32.706400
H -0.931000 -9.195700 -33.173100
C -0.658500 -12.417400 -35.631400
C -0.368200 -11.459500 -34.693100
H -0.047500 -10.214400 -32.381700
H 0.453800 -11.025700 -34.712100
Br 0.609600 -12.780700 -36.982500
