27
Fragment
Br -8.190700 -9.606100 -18.684600
H -8.128500 -11.312600 -16.479300
Br -7.538800 -15.676700 -22.786600
O -7.537200 -11.701500 -16.414200
C -6.803700 -10.892100 -18.594100
C -6.713700 -11.730000 -17.481600
H -6.243900 -13.614500 -21.243100
H -6.053500 -10.413600 -20.386500
C -5.953500 -10.990900 -19.665000
C -5.862300 -14.784600 -22.822300
H -5.700300 -16.413500 -24.843400
C -5.679800 -12.667300 -17.508900
C -5.597700 -13.826600 -21.878100
Br -5.432400 -13.807300 -16.014700
O -5.092000 -16.126400 -24.722600
C -4.943500 -15.154500 -23.793800
C -4.927400 -11.959900 -19.684000
C -4.812800 -12.781400 -18.575100
C -4.379900 -13.175300 -21.861500
H -4.139700 -13.422300 -18.547900
C -4.021000 -12.086800 -20.859200
H -4.006200 -11.236400 -21.326000
C -3.733700 -14.458100 -23.784300
C -3.443400 -13.500200 -22.846000
H -3.122700 -12.255100 -20.534600
H -2.621500 -13.066500 -22.864900
Br -2.465600 -14.821400 -25.135300
22
Fragment
H -2.002100 -18.426900 -26.349200
H -1.781000 -19.560700 -27.408300
C -1.326700 -18.913100 -26.847900
N -0.590700 -17.973900 -27.699800
H -0.547300 -16.507700 -26.345600
N -0.450900 -19.622900 -25.904900
H -0.435500 -18.152100 -24.557900
H -0.014900 -19.382100 -28.999400
C 0.107200 -17.027500 -26.838500
H 0.114900 -20.999200 -27.246000
C 0.224800 -18.639500 -25.075600
C 0.425300 -18.734200 -28.428400
C 0.556300 -20.344200 -26.683300
H 0.616600 -16.414300 -27.390500
H 0.811700 -19.097400 -24.453600
H 0.924200 -18.126800 -28.998200
N 1.019900 -17.679500 -25.878900
H 1.144800 -20.820500 -26.077900
N 1.369400 -19.440600 -27.537500
C 1.999400 -18.456000 -26.663100
H 2.528000 -17.847200 -27.202200
H 2.601300 -18.912500 -26.055400
49
Fragment
Br -8.190700 -9.606100 -18.684600
H -8.128500 -11.312600 -16.479300
Br -7.538800 -15.676700 -22.786600
O -7.537200 -11.701500 -16.414200
C -6.803700 -10.892100 -18.594100
C -6.713700 -11.730000 -17.481600
H -6.243900 -13.614500 -21.243100
H -6.053500 -10.413600 -20.386500
C -5.953500 -10.990900 -19.665000
C -5.862300 -14.784600 -22.822300
H -5.700300 -16.413500 -24.843400
C -5.679800 -12.667300 -17.508900
C -5.597700 -13.826600 -21.878100
Br -5.432400 -13.807300 -16.014700
O -5.092000 -16.126400 -24.722600
C -4.943500 -15.154500 -23.793800
C -4.927400 -11.959900 -19.684000
C -4.812800 -12.781400 -18.575100
C -4.379900 -13.175300 -21.861500
H -4.139700 -13.422300 -18.547900
C -4.021000 -12.086800 -20.859200
H -4.006200 -11.236400 -21.326000
C -3.733700 -14.458100 -23.784300
C -3.443400 -13.500200 -22.846000
H -3.122700 -12.255100 -20.534600
H -2.621500 -13.066500 -22.864900
Br -2.465600 -14.821400 -25.135300
H -2.002100 -18.426900 -26.349200
H -1.781000 -19.560700 -27.408300
C -1.326700 -18.913100 -26.847900
N -0.590700 -17.973900 -27.699800
H -0.547300 -16.507700 -26.345600
N -0.450900 -19.622900 -25.904900
H -0.435500 -18.152100 -24.557900
H -0.014900 -19.382100 -28.999400
C 0.107200 -17.027500 -26.838500
H 0.114900 -20.999200 -27.246000
C 0.224800 -18.639500 -25.075600
C 0.425300 -18.734200 -28.428400
C 0.556300 -20.344200 -26.683300
H 0.616600 -16.414300 -27.390500
H 0.811700 -19.097400 -24.453600
H 0.924200 -18.126800 -28.998200
N 1.019900 -17.679500 -25.878900
H 1.144800 -20.820500 -26.077900
N 1.369400 -19.440600 -27.537500
C 1.999400 -18.456000 -26.663100
H 2.528000 -17.847200 -27.202200
H 2.601300 -18.912500 -26.055400
