22
Fragment
H -12.079800 -9.315900 -20.141300
H -11.856200 -9.222000 -21.688800
C -11.402600 -9.249700 -20.832200
H -10.823700 -8.208900 -18.629200
H -10.690500 -10.613200 -18.806200
N -10.652700 -7.994100 -20.646700
N -10.539600 -10.469600 -20.781200
C -10.090800 -8.140300 -19.260700
C -9.973500 -10.494800 -19.450400
H -9.894100 -7.901200 -22.453300
H -9.866300 -10.294100 -22.606200
H -9.584800 -7.342900 -19.039800
C -9.547800 -7.989200 -21.551400
C -9.488800 -10.321700 -21.712800
H -9.381300 -11.258700 -19.375300
N -9.235800 -9.293700 -19.113400
H -9.011500 -7.201900 -21.368800
H -8.913100 -11.099700 -21.660400
N -8.687500 -9.137500 -21.511800
C -8.159600 -9.195500 -20.138500
H -7.631400 -8.400400 -19.968600
H -7.573000 -9.964300 -20.057800
33
Fragment
H -7.166000 -9.424500 -22.837000
O -6.867700 -9.981200 -23.283000
Br -6.784800 -7.211500 -30.047100
Br -6.381600 -6.892700 -23.118000
C -5.884800 -9.515700 -24.075800
Br -5.654500 -12.269200 -24.763500
C -5.520200 -8.186800 -24.180600
C -5.184600 -10.429500 -24.854500
C -5.051900 -6.802300 -29.383700
H -5.014800 -8.281200 -28.103800
H -5.002000 -5.217300 -31.572500
O -4.791000 -4.967900 -30.946700
C -4.548000 -7.554600 -28.362900
C -4.499200 -7.795100 -25.054100
H -4.364600 -6.964400 -25.158900
C -4.342900 -5.749000 -29.945800
C -4.166200 -10.055300 -25.709700
C -3.801200 -8.729800 -25.828600
H -3.740800 -10.704800 -26.249100
C -3.300400 -7.293100 -27.822000
C -3.110400 -5.495400 -29.396400
H -2.856300 -9.838200 -28.160400
C -2.704200 -8.243900 -26.771500
C -2.595300 -6.222300 -28.343100
C -2.083900 -9.410900 -27.543100
Br -2.062900 -4.105200 -30.141000
H -1.923700 -6.798100 -25.541200
H -1.689400 -9.826800 -26.914500
H -1.684000 -5.955900 -28.047200
C -1.621900 -7.544700 -25.926300
H -1.530300 -9.093200 -27.976400
H -1.386900 -8.142600 -25.102300
H -0.929500 -7.457500 -26.433100
55
Fragment
H -12.079800 -9.315900 -20.141300
H -11.856200 -9.222000 -21.688800
C -11.402600 -9.249700 -20.832200
H -10.823700 -8.208900 -18.629200
H -10.690500 -10.613200 -18.806200
N -10.652700 -7.994100 -20.646700
N -10.539600 -10.469600 -20.781200
C -10.090800 -8.140300 -19.260700
C -9.973500 -10.494800 -19.450400
H -9.894100 -7.901200 -22.453300
H -9.866300 -10.294100 -22.606200
H -9.584800 -7.342900 -19.039800
C -9.547800 -7.989200 -21.551400
C -9.488800 -10.321700 -21.712800
H -9.381300 -11.258700 -19.375300
N -9.235800 -9.293700 -19.113400
H -9.011500 -7.201900 -21.368800
H -8.913100 -11.099700 -21.660400
N -8.687500 -9.137500 -21.511800
C -8.159600 -9.195500 -20.138500
H -7.631400 -8.400400 -19.968600
H -7.573000 -9.964300 -20.057800
H -7.166000 -9.424500 -22.837000
O -6.867700 -9.981200 -23.283000
Br -6.784800 -7.211500 -30.047100
Br -6.381600 -6.892700 -23.118000
C -5.884800 -9.515700 -24.075800
Br -5.654500 -12.269200 -24.763500
C -5.520200 -8.186800 -24.180600
C -5.184600 -10.429500 -24.854500
C -5.051900 -6.802300 -29.383700
H -5.014800 -8.281200 -28.103800
H -5.002000 -5.217300 -31.572500
O -4.791000 -4.967900 -30.946700
C -4.548000 -7.554600 -28.362900
C -4.499200 -7.795100 -25.054100
H -4.364600 -6.964400 -25.158900
C -4.342900 -5.749000 -29.945800
C -4.166200 -10.055300 -25.709700
C -3.801200 -8.729800 -25.828600
H -3.740800 -10.704800 -26.249100
C -3.300400 -7.293100 -27.822000
C -3.110400 -5.495400 -29.396400
H -2.856300 -9.838200 -28.160400
C -2.704200 -8.243900 -26.771500
C -2.595300 -6.222300 -28.343100
C -2.083900 -9.410900 -27.543100
Br -2.062900 -4.105200 -30.141000
H -1.923700 -6.798100 -25.541200
H -1.689400 -9.826800 -26.914500
H -1.684000 -5.955900 -28.047200
C -1.621900 -7.544700 -25.926300
H -1.530300 -9.093200 -27.976400
H -1.386900 -8.142600 -25.102300
H -0.929500 -7.457500 -26.433100
