27
Fragment
Br -8.190700 -9.606100 -18.684600
H -8.128500 -11.312600 -16.479300
Br -7.538800 -15.676700 -22.786600
O -7.537200 -11.701500 -16.414200
C -6.803700 -10.892100 -18.594100
C -6.713700 -11.730000 -17.481600
H -6.243900 -13.614500 -21.243100
H -6.053500 -10.413600 -20.386500
C -5.953500 -10.990900 -19.665000
C -5.862300 -14.784600 -22.822300
H -5.700300 -16.413500 -24.843400
C -5.679800 -12.667300 -17.508900
C -5.597700 -13.826600 -21.878100
Br -5.432400 -13.807300 -16.014700
O -5.092000 -16.126400 -24.722600
C -4.943500 -15.154500 -23.793800
C -4.927400 -11.959900 -19.684000
C -4.812800 -12.781400 -18.575100
C -4.379900 -13.175300 -21.861500
H -4.139700 -13.422300 -18.547900
C -4.021000 -12.086800 -20.859200
H -4.006200 -11.236400 -21.326000
C -3.733700 -14.458100 -23.784300
C -3.443400 -13.500200 -22.846000
H -3.122700 -12.255100 -20.534600
H -2.621500 -13.066500 -22.864900
Br -2.465600 -14.821400 -25.135300
22
Fragment
H -13.388900 -17.884800 -21.333100
H -13.315500 -18.950100 -20.186300
C -12.787000 -18.341300 -20.725400
N -12.157000 -17.356700 -19.851000
H -11.932400 -15.976700 -21.310600
N -11.807500 -19.117800 -21.509600
H -11.711700 -18.670500 -18.390300
H -11.599200 -17.699900 -22.934800
H -11.404100 -20.383000 -19.997900
C -11.343900 -16.453100 -20.705200
C -11.212800 -18.063100 -18.960100
C -11.012300 -18.157800 -22.312900
H -10.902500 -15.798100 -20.142500
C -10.894800 -19.769800 -20.550000
H -10.772600 -17.415200 -18.389100
H -10.352000 -18.645200 -22.830600
N -10.336700 -17.174400 -21.483600
H -10.240200 -20.289600 -21.042900
N -10.196900 -18.823400 -19.688700
C -9.460800 -17.884200 -20.540500
H -9.006600 -17.236600 -19.980200
H -8.785400 -18.370400 -21.039300
49
Fragment
Br -8.190700 -9.606100 -18.684600
H -8.128500 -11.312600 -16.479300
Br -7.538800 -15.676700 -22.786600
O -7.537200 -11.701500 -16.414200
C -6.803700 -10.892100 -18.594100
C -6.713700 -11.730000 -17.481600
H -6.243900 -13.614500 -21.243100
H -6.053500 -10.413600 -20.386500
C -5.953500 -10.990900 -19.665000
C -5.862300 -14.784600 -22.822300
H -5.700300 -16.413500 -24.843400
C -5.679800 -12.667300 -17.508900
C -5.597700 -13.826600 -21.878100
Br -5.432400 -13.807300 -16.014700
O -5.092000 -16.126400 -24.722600
C -4.943500 -15.154500 -23.793800
C -4.927400 -11.959900 -19.684000
C -4.812800 -12.781400 -18.575100
C -4.379900 -13.175300 -21.861500
H -4.139700 -13.422300 -18.547900
C -4.021000 -12.086800 -20.859200
H -4.006200 -11.236400 -21.326000
C -3.733700 -14.458100 -23.784300
C -3.443400 -13.500200 -22.846000
H -3.122700 -12.255100 -20.534600
H -2.621500 -13.066500 -22.864900
Br -2.465600 -14.821400 -25.135300
H -13.388900 -17.884800 -21.333100
H -13.315500 -18.950100 -20.186300
C -12.787000 -18.341300 -20.725400
N -12.157000 -17.356700 -19.851000
H -11.932400 -15.976700 -21.310600
N -11.807500 -19.117800 -21.509600
H -11.711700 -18.670500 -18.390300
H -11.599200 -17.699900 -22.934800
H -11.404100 -20.383000 -19.997900
C -11.343900 -16.453100 -20.705200
C -11.212800 -18.063100 -18.960100
C -11.012300 -18.157800 -22.312900
H -10.902500 -15.798100 -20.142500
C -10.894800 -19.769800 -20.550000
H -10.772600 -17.415200 -18.389100
H -10.352000 -18.645200 -22.830600
N -10.336700 -17.174400 -21.483600
H -10.240200 -20.289600 -21.042900
N -10.196900 -18.823400 -19.688700
C -9.460800 -17.884200 -20.540500
H -9.006600 -17.236600 -19.980200
H -8.785400 -18.370400 -21.039300
