22
Fragment
H -12.079800 -9.315900 -20.141300
H -11.856200 -9.222000 -21.688800
C -11.402600 -9.249700 -20.832200
H -10.823700 -8.208900 -18.629200
H -10.690500 -10.613200 -18.806200
N -10.652700 -7.994100 -20.646700
N -10.539600 -10.469600 -20.781200
C -10.090800 -8.140300 -19.260700
C -9.973500 -10.494800 -19.450400
H -9.894100 -7.901200 -22.453300
H -9.866300 -10.294100 -22.606200
H -9.584800 -7.342900 -19.039800
C -9.547800 -7.989200 -21.551400
C -9.488800 -10.321700 -21.712800
H -9.381300 -11.258700 -19.375300
N -9.235800 -9.293700 -19.113400
H -9.011500 -7.201900 -21.368800
H -8.913100 -11.099700 -21.660400
N -8.687500 -9.137500 -21.511800
C -8.159600 -9.195500 -20.138500
H -7.631400 -8.400400 -19.968600
H -7.573000 -9.964300 -20.057800
33
Fragment
H -10.959400 -5.099200 -16.041100
H -10.501900 -4.414000 -17.372000
H -10.358500 -3.463500 -14.497900
C -10.266900 -5.012000 -16.548000
H -10.204800 -6.600800 -14.427100
H -10.199400 -2.729800 -15.559700
H -9.965200 -5.758600 -16.933100
Br -9.825900 -8.451500 -12.333200
C -9.804900 -3.145800 -14.931100
C -9.293500 -6.334400 -14.131200
C -9.184600 -4.312800 -15.702700
H -9.032500 -2.718500 -14.313800
C -8.778400 -7.061300 -13.077800
C -8.588400 -5.263600 -14.652200
H -8.148000 -1.851900 -16.225200
C -8.087600 -3.826800 -16.645700
C -7.722600 -2.501300 -16.764600
C -7.545900 -6.807700 -12.528500
H -7.524200 -5.592300 -17.315300
C -7.389600 -4.761500 -17.420100
C -7.340800 -5.002000 -14.111400
O -7.097800 -7.588800 -11.527500
H -6.886800 -7.339400 -10.901700
H -6.874000 -4.275500 -14.370500
C -6.836900 -5.754400 -13.090600
C -6.704200 -2.127200 -17.619700
C -6.368600 -4.369900 -18.293700
Br -6.234300 -0.287500 -17.710800
C -6.004000 -3.041000 -18.398400
Br -5.507200 -5.663900 -19.356200
Br -5.104000 -5.345200 -12.427100
O -5.021100 -2.575500 -19.191300
H -4.722800 -3.132200 -19.637300
55
Fragment
H -12.079800 -9.315900 -20.141300
H -11.856200 -9.222000 -21.688800
C -11.402600 -9.249700 -20.832200
H -10.823700 -8.208900 -18.629200
H -10.690500 -10.613200 -18.806200
N -10.652700 -7.994100 -20.646700
N -10.539600 -10.469600 -20.781200
C -10.090800 -8.140300 -19.260700
C -9.973500 -10.494800 -19.450400
H -9.894100 -7.901200 -22.453300
H -9.866300 -10.294100 -22.606200
H -9.584800 -7.342900 -19.039800
C -9.547800 -7.989200 -21.551400
C -9.488800 -10.321700 -21.712800
H -9.381300 -11.258700 -19.375300
N -9.235800 -9.293700 -19.113400
H -9.011500 -7.201900 -21.368800
H -8.913100 -11.099700 -21.660400
N -8.687500 -9.137500 -21.511800
C -8.159600 -9.195500 -20.138500
H -7.631400 -8.400400 -19.968600
H -7.573000 -9.964300 -20.057800
H -10.959400 -5.099200 -16.041100
H -10.501900 -4.414000 -17.372000
H -10.358500 -3.463500 -14.497900
C -10.266900 -5.012000 -16.548000
H -10.204800 -6.600800 -14.427100
H -10.199400 -2.729800 -15.559700
H -9.965200 -5.758600 -16.933100
Br -9.825900 -8.451500 -12.333200
C -9.804900 -3.145800 -14.931100
C -9.293500 -6.334400 -14.131200
C -9.184600 -4.312800 -15.702700
H -9.032500 -2.718500 -14.313800
C -8.778400 -7.061300 -13.077800
C -8.588400 -5.263600 -14.652200
H -8.148000 -1.851900 -16.225200
C -8.087600 -3.826800 -16.645700
C -7.722600 -2.501300 -16.764600
C -7.545900 -6.807700 -12.528500
H -7.524200 -5.592300 -17.315300
C -7.389600 -4.761500 -17.420100
C -7.340800 -5.002000 -14.111400
O -7.097800 -7.588800 -11.527500
H -6.886800 -7.339400 -10.901700
H -6.874000 -4.275500 -14.370500
C -6.836900 -5.754400 -13.090600
C -6.704200 -2.127200 -17.619700
C -6.368600 -4.369900 -18.293700
Br -6.234300 -0.287500 -17.710800
C -6.004000 -3.041000 -18.398400
Br -5.507200 -5.663900 -19.356200
Br -5.104000 -5.345200 -12.427100
O -5.021100 -2.575500 -19.191300
H -4.722800 -3.132200 -19.637300
