27
Fragment
Br -8.190700 -9.606100 -18.684600
H -8.128500 -11.312600 -16.479300
Br -7.538800 -15.676700 -22.786600
O -7.537200 -11.701500 -16.414200
C -6.803700 -10.892100 -18.594100
C -6.713700 -11.730000 -17.481600
H -6.243900 -13.614500 -21.243100
H -6.053500 -10.413600 -20.386500
C -5.953500 -10.990900 -19.665000
C -5.862300 -14.784600 -22.822300
H -5.700300 -16.413500 -24.843400
C -5.679800 -12.667300 -17.508900
C -5.597700 -13.826600 -21.878100
Br -5.432400 -13.807300 -16.014700
O -5.092000 -16.126400 -24.722600
C -4.943500 -15.154500 -23.793800
C -4.927400 -11.959900 -19.684000
C -4.812800 -12.781400 -18.575100
C -4.379900 -13.175300 -21.861500
H -4.139700 -13.422300 -18.547900
C -4.021000 -12.086800 -20.859200
H -4.006200 -11.236400 -21.326000
C -3.733700 -14.458100 -23.784300
C -3.443400 -13.500200 -22.846000
H -3.122700 -12.255100 -20.534600
H -2.621500 -13.066500 -22.864900
Br -2.465600 -14.821400 -25.135300
22
Fragment
H -5.605400 -6.644800 -21.333100
H -5.532100 -7.710000 -20.186300
C -5.003500 -7.101300 -20.725400
N -4.373500 -6.116600 -19.851000
H -4.148900 -4.736700 -21.310600
N -4.024000 -7.877700 -21.509600
H -3.928300 -7.430400 -18.390300
H -3.815800 -6.459900 -22.934800
H -3.620700 -9.143000 -19.997900
C -3.560400 -5.213000 -20.705200
C -3.429400 -6.823100 -18.960100
C -3.228900 -6.917700 -22.312900
H -3.119000 -4.558000 -20.142500
C -3.111300 -8.529700 -20.550000
H -2.989200 -6.175100 -18.389100
H -2.568600 -7.405200 -22.830600
N -2.553200 -5.934300 -21.483600
H -2.456800 -9.049500 -21.042900
N -2.413400 -7.583300 -19.688700
C -1.677400 -6.644200 -20.540500
H -1.223100 -5.996600 -19.980200
H -1.002000 -7.130400 -21.039300
49
Fragment
Br -8.190700 -9.606100 -18.684600
H -8.128500 -11.312600 -16.479300
Br -7.538800 -15.676700 -22.786600
O -7.537200 -11.701500 -16.414200
C -6.803700 -10.892100 -18.594100
C -6.713700 -11.730000 -17.481600
H -6.243900 -13.614500 -21.243100
H -6.053500 -10.413600 -20.386500
C -5.953500 -10.990900 -19.665000
C -5.862300 -14.784600 -22.822300
H -5.700300 -16.413500 -24.843400
C -5.679800 -12.667300 -17.508900
C -5.597700 -13.826600 -21.878100
Br -5.432400 -13.807300 -16.014700
O -5.092000 -16.126400 -24.722600
C -4.943500 -15.154500 -23.793800
C -4.927400 -11.959900 -19.684000
C -4.812800 -12.781400 -18.575100
C -4.379900 -13.175300 -21.861500
H -4.139700 -13.422300 -18.547900
C -4.021000 -12.086800 -20.859200
H -4.006200 -11.236400 -21.326000
C -3.733700 -14.458100 -23.784300
C -3.443400 -13.500200 -22.846000
H -3.122700 -12.255100 -20.534600
H -2.621500 -13.066500 -22.864900
Br -2.465600 -14.821400 -25.135300
H -5.605400 -6.644800 -21.333100
H -5.532100 -7.710000 -20.186300
C -5.003500 -7.101300 -20.725400
N -4.373500 -6.116600 -19.851000
H -4.148900 -4.736700 -21.310600
N -4.024000 -7.877700 -21.509600
H -3.928300 -7.430400 -18.390300
H -3.815800 -6.459900 -22.934800
H -3.620700 -9.143000 -19.997900
C -3.560400 -5.213000 -20.705200
C -3.429400 -6.823100 -18.960100
C -3.228900 -6.917700 -22.312900
H -3.119000 -4.558000 -20.142500
C -3.111300 -8.529700 -20.550000
H -2.989200 -6.175100 -18.389100
H -2.568600 -7.405200 -22.830600
N -2.553200 -5.934300 -21.483600
H -2.456800 -9.049500 -21.042900
N -2.413400 -7.583300 -19.688700
C -1.677400 -6.644200 -20.540500
H -1.223100 -5.996600 -19.980200
H -1.002000 -7.130400 -21.039300
