22
Fragment
H -18.327000 -14.061300 -16.295200
H -18.260400 -15.565900 -15.859500
C -17.772000 -14.844200 -16.262000
N -17.515300 -16.413000 -18.167900
C -17.371600 -15.223900 -17.637600
H -17.213800 -18.080100 -20.343900
C -17.013400 -16.286600 -19.467100
H -16.988100 -14.658400 -15.740800
C -16.927900 -17.204800 -20.473100
N -16.807800 -14.317300 -18.496000
O -16.736100 -18.948400 -22.453400
H -16.599300 -13.436400 -18.261700
C -16.558300 -14.965600 -19.684100
C -16.400300 -16.797100 -21.705000
N -16.348000 -17.802800 -22.718700
C -16.025200 -14.549500 -20.877300
C -15.922600 -15.467900 -21.941000
O -15.921400 -17.521100 -23.858100
H -15.735000 -13.672800 -20.982900
N -15.382600 -15.049300 -23.107900
H -15.300800 -15.586200 -23.764000
H -15.070100 -14.231700 -23.159100
22
Fragment
H -21.920900 -12.545400 -5.972000
H -21.854400 -14.050000 -5.536300
C -21.366000 -13.328300 -5.938800
N -21.109300 -14.897100 -7.844700
C -20.965600 -13.708000 -7.314400
H -20.807800 -16.564200 -10.020700
C -20.607400 -14.770600 -9.143900
H -20.582100 -13.142400 -5.417600
C -20.521900 -15.688800 -10.149900
N -20.401800 -12.801400 -8.172800
O -20.330100 -17.432500 -12.130200
H -20.193300 -11.920500 -7.938500
C -20.152200 -13.449700 -9.360900
C -19.994300 -15.281200 -11.381800
N -19.942000 -16.286900 -12.395500
C -19.619200 -13.033600 -10.554100
C -19.516600 -13.952000 -11.617800
O -19.515400 -16.005100 -13.534900
H -19.329000 -12.156900 -10.659700
N -18.976600 -13.533300 -12.784700
H -18.894800 -14.070300 -13.440800
H -18.664100 -12.715800 -12.835900
44
Fragment
H -18.327000 -14.061300 -16.295200
H -18.260400 -15.565900 -15.859500
C -17.772000 -14.844200 -16.262000
N -17.515300 -16.413000 -18.167900
C -17.371600 -15.223900 -17.637600
H -17.213800 -18.080100 -20.343900
C -17.013400 -16.286600 -19.467100
H -16.988100 -14.658400 -15.740800
C -16.927900 -17.204800 -20.473100
N -16.807800 -14.317300 -18.496000
O -16.736100 -18.948400 -22.453400
H -16.599300 -13.436400 -18.261700
C -16.558300 -14.965600 -19.684100
C -16.400300 -16.797100 -21.705000
N -16.348000 -17.802800 -22.718700
C -16.025200 -14.549500 -20.877300
C -15.922600 -15.467900 -21.941000
O -15.921400 -17.521100 -23.858100
H -15.735000 -13.672800 -20.982900
N -15.382600 -15.049300 -23.107900
H -15.300800 -15.586200 -23.764000
H -15.070100 -14.231700 -23.159100
H -21.920900 -12.545400 -5.972000
H -21.854400 -14.050000 -5.536300
C -21.366000 -13.328300 -5.938800
N -21.109300 -14.897100 -7.844700
C -20.965600 -13.708000 -7.314400
H -20.807800 -16.564200 -10.020700
C -20.607400 -14.770600 -9.143900
H -20.582100 -13.142400 -5.417600
C -20.521900 -15.688800 -10.149900
N -20.401800 -12.801400 -8.172800
O -20.330100 -17.432500 -12.130200
H -20.193300 -11.920500 -7.938500
C -20.152200 -13.449700 -9.360900
C -19.994300 -15.281200 -11.381800
N -19.942000 -16.286900 -12.395500
C -19.619200 -13.033600 -10.554100
C -19.516600 -13.952000 -11.617800
O -19.515400 -16.005100 -13.534900
H -19.329000 -12.156900 -10.659700
N -18.976600 -13.533300 -12.784700
H -18.894800 -14.070300 -13.440800
H -18.664100 -12.715800 -12.835900
