22
Fragment
H -18.327000 -14.061300 -16.295200
H -18.260400 -15.565900 -15.859500
C -17.772000 -14.844200 -16.262000
N -17.515300 -16.413000 -18.167900
C -17.371600 -15.223900 -17.637600
H -17.213800 -18.080100 -20.343900
C -17.013400 -16.286600 -19.467100
H -16.988100 -14.658400 -15.740800
C -16.927900 -17.204800 -20.473100
N -16.807800 -14.317300 -18.496000
O -16.736100 -18.948400 -22.453400
H -16.599300 -13.436400 -18.261700
C -16.558300 -14.965600 -19.684100
C -16.400300 -16.797100 -21.705000
N -16.348000 -17.802800 -22.718700
C -16.025200 -14.549500 -20.877300
C -15.922600 -15.467900 -21.941000
O -15.921400 -17.521100 -23.858100
H -15.735000 -13.672800 -20.982900
N -15.382600 -15.049300 -23.107900
H -15.300800 -15.586200 -23.764000
H -15.070100 -14.231700 -23.159100
22
Fragment
H -14.733000 -15.577200 -26.618400
H -14.666500 -17.081900 -26.182700
C -14.178000 -16.360100 -26.585200
N -13.921300 -17.929000 -28.491100
C -13.777600 -16.739900 -27.960800
H -13.619900 -19.596000 -30.667100
C -13.419400 -17.802500 -29.790300
H -13.394100 -16.174300 -26.064000
C -13.334000 -18.720700 -30.796300
N -13.213800 -15.833300 -28.819200
O -13.142200 -20.464300 -32.776600
H -13.005300 -14.952400 -28.584900
C -12.964300 -16.481600 -30.007300
C -12.806400 -18.313000 -32.028200
N -12.754000 -19.318700 -33.041900
C -12.431300 -16.065400 -31.200500
C -12.328600 -16.983800 -32.264200
O -12.327400 -19.037000 -34.181300
H -12.141000 -15.188800 -31.306100
N -11.788600 -16.565200 -33.431100
H -11.706800 -17.102100 -34.087200
H -11.476100 -15.747600 -33.482300
44
Fragment
H -18.327000 -14.061300 -16.295200
H -18.260400 -15.565900 -15.859500
C -17.772000 -14.844200 -16.262000
N -17.515300 -16.413000 -18.167900
C -17.371600 -15.223900 -17.637600
H -17.213800 -18.080100 -20.343900
C -17.013400 -16.286600 -19.467100
H -16.988100 -14.658400 -15.740800
C -16.927900 -17.204800 -20.473100
N -16.807800 -14.317300 -18.496000
O -16.736100 -18.948400 -22.453400
H -16.599300 -13.436400 -18.261700
C -16.558300 -14.965600 -19.684100
C -16.400300 -16.797100 -21.705000
N -16.348000 -17.802800 -22.718700
C -16.025200 -14.549500 -20.877300
C -15.922600 -15.467900 -21.941000
O -15.921400 -17.521100 -23.858100
H -15.735000 -13.672800 -20.982900
N -15.382600 -15.049300 -23.107900
H -15.300800 -15.586200 -23.764000
H -15.070100 -14.231700 -23.159100
H -14.733000 -15.577200 -26.618400
H -14.666500 -17.081900 -26.182700
C -14.178000 -16.360100 -26.585200
N -13.921300 -17.929000 -28.491100
C -13.777600 -16.739900 -27.960800
H -13.619900 -19.596000 -30.667100
C -13.419400 -17.802500 -29.790300
H -13.394100 -16.174300 -26.064000
C -13.334000 -18.720700 -30.796300
N -13.213800 -15.833300 -28.819200
O -13.142200 -20.464300 -32.776600
H -13.005300 -14.952400 -28.584900
C -12.964300 -16.481600 -30.007300
C -12.806400 -18.313000 -32.028200
N -12.754000 -19.318700 -33.041900
C -12.431300 -16.065400 -31.200500
C -12.328600 -16.983800 -32.264200
O -12.327400 -19.037000 -34.181300
H -12.141000 -15.188800 -31.306100
N -11.788600 -16.565200 -33.431100
H -11.706800 -17.102100 -34.087200
H -11.476100 -15.747600 -33.482300
