22
Fragment
H -18.327000 -14.061300 -16.295200
H -18.260400 -15.565900 -15.859500
C -17.772000 -14.844200 -16.262000
N -17.515300 -16.413000 -18.167900
C -17.371600 -15.223900 -17.637600
H -17.213800 -18.080100 -20.343900
C -17.013400 -16.286600 -19.467100
H -16.988100 -14.658400 -15.740800
C -16.927900 -17.204800 -20.473100
N -16.807800 -14.317300 -18.496000
O -16.736100 -18.948400 -22.453400
H -16.599300 -13.436400 -18.261700
C -16.558300 -14.965600 -19.684100
C -16.400300 -16.797100 -21.705000
N -16.348000 -17.802800 -22.718700
C -16.025200 -14.549500 -20.877300
C -15.922600 -15.467900 -21.941000
O -15.921400 -17.521100 -23.858100
H -15.735000 -13.672800 -20.982900
N -15.382600 -15.049300 -23.107900
H -15.300800 -15.586200 -23.764000
H -15.070100 -14.231700 -23.159100
22
Fragment
H -21.929900 -19.497000 -18.133700
H -21.699300 -18.142500 -17.528800
N -21.617400 -18.679400 -18.184900
H -21.265100 -20.055900 -20.309900
O -21.078700 -16.207700 -17.434800
C -21.077500 -18.260800 -19.351800
C -20.974800 -19.179200 -20.415500
N -20.652100 -15.925900 -18.574100
C -20.599700 -16.931600 -19.587800
C -20.441800 -18.763100 -21.608700
H -20.400800 -20.292300 -23.031100
O -20.263900 -14.780300 -18.839400
N -20.192200 -19.411400 -22.796800
C -20.072100 -16.523900 -20.819700
H -20.012000 -19.070300 -25.552000
C -19.986700 -17.442100 -21.825700
H -19.786200 -15.648600 -20.948900
C -19.628400 -18.504800 -23.655200
N -19.484700 -17.315700 -23.124900
C -19.228000 -18.884500 -25.030800
H -18.739600 -18.162800 -25.433300
H -18.673100 -19.667400 -24.997600
44
Fragment
H -18.327000 -14.061300 -16.295200
H -18.260400 -15.565900 -15.859500
C -17.772000 -14.844200 -16.262000
N -17.515300 -16.413000 -18.167900
C -17.371600 -15.223900 -17.637600
H -17.213800 -18.080100 -20.343900
C -17.013400 -16.286600 -19.467100
H -16.988100 -14.658400 -15.740800
C -16.927900 -17.204800 -20.473100
N -16.807800 -14.317300 -18.496000
O -16.736100 -18.948400 -22.453400
H -16.599300 -13.436400 -18.261700
C -16.558300 -14.965600 -19.684100
C -16.400300 -16.797100 -21.705000
N -16.348000 -17.802800 -22.718700
C -16.025200 -14.549500 -20.877300
C -15.922600 -15.467900 -21.941000
O -15.921400 -17.521100 -23.858100
H -15.735000 -13.672800 -20.982900
N -15.382600 -15.049300 -23.107900
H -15.300800 -15.586200 -23.764000
H -15.070100 -14.231700 -23.159100
H -21.929900 -19.497000 -18.133700
H -21.699300 -18.142500 -17.528800
N -21.617400 -18.679400 -18.184900
H -21.265100 -20.055900 -20.309900
O -21.078700 -16.207700 -17.434800
C -21.077500 -18.260800 -19.351800
C -20.974800 -19.179200 -20.415500
N -20.652100 -15.925900 -18.574100
C -20.599700 -16.931600 -19.587800
C -20.441800 -18.763100 -21.608700
H -20.400800 -20.292300 -23.031100
O -20.263900 -14.780300 -18.839400
N -20.192200 -19.411400 -22.796800
C -20.072100 -16.523900 -20.819700
H -20.012000 -19.070300 -25.552000
C -19.986700 -17.442100 -21.825700
H -19.786200 -15.648600 -20.948900
C -19.628400 -18.504800 -23.655200
N -19.484700 -17.315700 -23.124900
C -19.228000 -18.884500 -25.030800
H -18.739600 -18.162800 -25.433300
H -18.673100 -19.667400 -24.997600
