28
Fragment
H -31.256100 -21.309800 -19.600200
O -30.393800 -22.136300 -21.803300
C -30.363500 -21.071800 -19.710200
H -30.182200 -20.146300 -17.943600
H -29.915800 -22.266300 -22.456400
C -29.724800 -20.375300 -18.720600
C -29.701100 -21.427600 -20.869500
H -28.998600 -17.944900 -14.719700
C -28.389400 -20.008100 -18.877000
C -28.378000 -21.022900 -21.063800
O -28.226500 -21.949100 -23.236300
N -28.226500 -18.997000 -16.878400
C -28.086800 -17.793600 -14.821100
H -27.844300 -16.741900 -13.130300
C -27.741300 -20.324500 -20.049800
C -27.710300 -21.253200 -22.366000
N -27.615500 -19.294800 -17.921700
C -27.420600 -18.282500 -15.926700
C -27.394200 -17.080300 -13.870700
H -26.856500 -20.063200 -20.165800
O -26.584500 -20.641900 -22.516400
H -26.279300 -20.810100 -23.257800
C -26.056200 -18.072200 -16.047600
C -26.044800 -16.864800 -14.002600
H -25.597100 -18.419400 -16.778200
H -25.586000 -16.385200 -13.351500
C -25.374900 -17.351600 -15.092300
H -24.463100 -17.198100 -15.186400
28
Fragment
H -37.449900 -23.971000 -20.454100
O -36.869900 -24.361800 -22.869200
C -36.720500 -23.452700 -20.707000
H -36.498700 -24.326500 -23.599900
H -36.479800 -22.571300 -18.929500
C -36.241700 -23.536800 -22.004400
C -36.137500 -22.623800 -19.793200
C -35.114800 -22.799900 -22.370900
O -35.053900 -23.693100 -24.565600
C -35.035700 -21.854200 -20.148700
H -34.878900 -20.729700 -15.603000
N -34.772300 -20.923100 -18.120800
C -34.548200 -22.948300 -23.729400
C -34.533800 -21.970500 -21.429000
N -34.346800 -20.972800 -19.286200
C -34.292600 -20.091000 -15.936500
C -34.070000 -20.003400 -17.279100
H -33.793600 -19.287800 -14.154100
H -33.783100 -21.477000 -21.664800
C -33.645000 -19.226800 -15.070300
O -33.478500 -22.239700 -23.939200
H -33.213800 -22.364100 -24.705500
C -33.211800 -19.066400 -17.749400
H -33.059200 -18.996900 -18.663200
C -32.794600 -18.291900 -15.555300
C -32.570800 -18.223900 -16.890600
H -32.367700 -17.701900 -14.977500
H -31.971700 -17.595100 -17.224100
56
Fragment
H -31.256100 -21.309800 -19.600200
O -30.393800 -22.136300 -21.803300
C -30.363500 -21.071800 -19.710200
H -30.182200 -20.146300 -17.943600
H -29.915800 -22.266300 -22.456400
C -29.724800 -20.375300 -18.720600
C -29.701100 -21.427600 -20.869500
H -28.998600 -17.944900 -14.719700
C -28.389400 -20.008100 -18.877000
C -28.378000 -21.022900 -21.063800
O -28.226500 -21.949100 -23.236300
N -28.226500 -18.997000 -16.878400
C -28.086800 -17.793600 -14.821100
H -27.844300 -16.741900 -13.130300
C -27.741300 -20.324500 -20.049800
C -27.710300 -21.253200 -22.366000
N -27.615500 -19.294800 -17.921700
C -27.420600 -18.282500 -15.926700
C -27.394200 -17.080300 -13.870700
H -26.856500 -20.063200 -20.165800
O -26.584500 -20.641900 -22.516400
H -26.279300 -20.810100 -23.257800
C -26.056200 -18.072200 -16.047600
C -26.044800 -16.864800 -14.002600
H -25.597100 -18.419400 -16.778200
H -25.586000 -16.385200 -13.351500
C -25.374900 -17.351600 -15.092300
H -24.463100 -17.198100 -15.186400
H -37.449900 -23.971000 -20.454100
O -36.869900 -24.361800 -22.869200
C -36.720500 -23.452700 -20.707000
H -36.498700 -24.326500 -23.599900
H -36.479800 -22.571300 -18.929500
C -36.241700 -23.536800 -22.004400
C -36.137500 -22.623800 -19.793200
C -35.114800 -22.799900 -22.370900
O -35.053900 -23.693100 -24.565600
C -35.035700 -21.854200 -20.148700
H -34.878900 -20.729700 -15.603000
N -34.772300 -20.923100 -18.120800
C -34.548200 -22.948300 -23.729400
C -34.533800 -21.970500 -21.429000
N -34.346800 -20.972800 -19.286200
C -34.292600 -20.091000 -15.936500
C -34.070000 -20.003400 -17.279100
H -33.793600 -19.287800 -14.154100
H -33.783100 -21.477000 -21.664800
C -33.645000 -19.226800 -15.070300
O -33.478500 -22.239700 -23.939200
H -33.213800 -22.364100 -24.705500
C -33.211800 -19.066400 -17.749400
H -33.059200 -18.996900 -18.663200
C -32.794600 -18.291900 -15.555300
C -32.570800 -18.223900 -16.890600
H -32.367700 -17.701900 -14.977500
H -31.971700 -17.595100 -17.224100
