28
Fragment
H -31.256100 -21.309800 -19.600200
O -30.393800 -22.136300 -21.803300
C -30.363500 -21.071800 -19.710200
H -30.182200 -20.146300 -17.943600
H -29.915800 -22.266300 -22.456400
C -29.724800 -20.375300 -18.720600
C -29.701100 -21.427600 -20.869500
H -28.998600 -17.944900 -14.719700
C -28.389400 -20.008100 -18.877000
C -28.378000 -21.022900 -21.063800
O -28.226500 -21.949100 -23.236300
N -28.226500 -18.997000 -16.878400
C -28.086800 -17.793600 -14.821100
H -27.844300 -16.741900 -13.130300
C -27.741300 -20.324500 -20.049800
C -27.710300 -21.253200 -22.366000
N -27.615500 -19.294800 -17.921700
C -27.420600 -18.282500 -15.926700
C -27.394200 -17.080300 -13.870700
H -26.856500 -20.063200 -20.165800
O -26.584500 -20.641900 -22.516400
H -26.279300 -20.810100 -23.257800
C -26.056200 -18.072200 -16.047600
C -26.044800 -16.864800 -14.002600
H -25.597100 -18.419400 -16.778200
H -25.586000 -16.385200 -13.351500
C -25.374900 -17.351600 -15.092300
H -24.463100 -17.198100 -15.186400
28
Fragment
H -33.116700 -18.440900 -21.463200
C -32.204900 -18.287400 -21.557300
H -31.993800 -19.253800 -23.298200
H -31.982700 -17.219700 -19.871400
C -31.535000 -18.774200 -22.647000
C -31.523600 -17.566800 -20.602000
H -31.300400 -14.828900 -13.391800
O -30.995300 -14.997100 -14.133200
H -30.723200 -15.575800 -16.483800
C -30.185600 -18.558800 -22.779000
C -30.159200 -17.356600 -20.722900
N -29.964300 -16.344200 -18.728000
C -29.869500 -14.385800 -14.283600
C -29.838500 -15.314500 -16.599800
H -29.735500 -18.897100 -23.519300
C -29.492900 -17.845400 -21.828500
N -29.353300 -16.642000 -19.771200
O -29.353300 -13.689900 -13.413300
C -29.201800 -14.616100 -15.585900
C -29.190400 -15.630900 -17.772600
H -28.581200 -17.694100 -21.929900
C -27.878600 -14.211400 -15.780100
C -27.855000 -15.263800 -17.929000
H -27.664000 -13.372800 -14.193200
H -27.397600 -15.492700 -18.706000
C -27.216300 -14.567200 -16.939400
O -27.186000 -13.502700 -14.846300
H -26.323700 -14.329200 -17.049400
56
Fragment
H -31.256100 -21.309800 -19.600200
O -30.393800 -22.136300 -21.803300
C -30.363500 -21.071800 -19.710200
H -30.182200 -20.146300 -17.943600
H -29.915800 -22.266300 -22.456400
C -29.724800 -20.375300 -18.720600
C -29.701100 -21.427600 -20.869500
H -28.998600 -17.944900 -14.719700
C -28.389400 -20.008100 -18.877000
C -28.378000 -21.022900 -21.063800
O -28.226500 -21.949100 -23.236300
N -28.226500 -18.997000 -16.878400
C -28.086800 -17.793600 -14.821100
H -27.844300 -16.741900 -13.130300
C -27.741300 -20.324500 -20.049800
C -27.710300 -21.253200 -22.366000
N -27.615500 -19.294800 -17.921700
C -27.420600 -18.282500 -15.926700
C -27.394200 -17.080300 -13.870700
H -26.856500 -20.063200 -20.165800
O -26.584500 -20.641900 -22.516400
H -26.279300 -20.810100 -23.257800
C -26.056200 -18.072200 -16.047600
C -26.044800 -16.864800 -14.002600
H -25.597100 -18.419400 -16.778200
H -25.586000 -16.385200 -13.351500
C -25.374900 -17.351600 -15.092300
H -24.463100 -17.198100 -15.186400
H -33.116700 -18.440900 -21.463200
C -32.204900 -18.287400 -21.557300
H -31.993800 -19.253800 -23.298200
H -31.982700 -17.219700 -19.871400
C -31.535000 -18.774200 -22.647000
C -31.523600 -17.566800 -20.602000
H -31.300400 -14.828900 -13.391800
O -30.995300 -14.997100 -14.133200
H -30.723200 -15.575800 -16.483800
C -30.185600 -18.558800 -22.779000
C -30.159200 -17.356600 -20.722900
N -29.964300 -16.344200 -18.728000
C -29.869500 -14.385800 -14.283600
C -29.838500 -15.314500 -16.599800
H -29.735500 -18.897100 -23.519300
C -29.492900 -17.845400 -21.828500
N -29.353300 -16.642000 -19.771200
O -29.353300 -13.689900 -13.413300
C -29.201800 -14.616100 -15.585900
C -29.190400 -15.630900 -17.772600
H -28.581200 -17.694100 -21.929900
C -27.878600 -14.211400 -15.780100
C -27.855000 -15.263800 -17.929000
H -27.664000 -13.372800 -14.193200
H -27.397600 -15.492700 -18.706000
C -27.216300 -14.567200 -16.939400
O -27.186000 -13.502700 -14.846300
H -26.323700 -14.329200 -17.049400
