28
Fragment
H -31.256100 -21.309800 -19.600200
O -30.393800 -22.136300 -21.803300
C -30.363500 -21.071800 -19.710200
H -30.182200 -20.146300 -17.943600
H -29.915800 -22.266300 -22.456400
C -29.724800 -20.375300 -18.720600
C -29.701100 -21.427600 -20.869500
H -28.998600 -17.944900 -14.719700
C -28.389400 -20.008100 -18.877000
C -28.378000 -21.022900 -21.063800
O -28.226500 -21.949100 -23.236300
N -28.226500 -18.997000 -16.878400
C -28.086800 -17.793600 -14.821100
H -27.844300 -16.741900 -13.130300
C -27.741300 -20.324500 -20.049800
C -27.710300 -21.253200 -22.366000
N -27.615500 -19.294800 -17.921700
C -27.420600 -18.282500 -15.926700
C -27.394200 -17.080300 -13.870700
H -26.856500 -20.063200 -20.165800
O -26.584500 -20.641900 -22.516400
H -26.279300 -20.810100 -23.257800
C -26.056200 -18.072200 -16.047600
C -26.044800 -16.864800 -14.002600
H -25.597100 -18.419400 -16.778200
H -25.586000 -16.385200 -13.351500
C -25.374900 -17.351600 -15.092300
H -24.463100 -17.198100 -15.186400
15
Fragment
H -26.461300 -22.234600 -25.824500
H -25.793100 -21.967900 -28.658800
N -25.792400 -21.694400 -25.833100
N -25.465100 -20.869500 -24.811800
H -25.314800 -23.259300 -27.909900
C -25.091500 -22.350700 -28.126100
C -24.936000 -21.562300 -26.865400
C -24.385900 -20.203400 -25.219800
H -24.268500 -22.332100 -28.619700
H -24.107300 -18.330800 -24.513700
C -24.037600 -20.620800 -26.498900
H -23.915300 -19.430100 -23.413000
C -23.743600 -19.199600 -24.329200
H -23.321200 -20.311800 -27.005900
H -22.797100 -19.192000 -24.486800
43
Fragment
H -31.256100 -21.309800 -19.600200
O -30.393800 -22.136300 -21.803300
C -30.363500 -21.071800 -19.710200
H -30.182200 -20.146300 -17.943600
H -29.915800 -22.266300 -22.456400
C -29.724800 -20.375300 -18.720600
C -29.701100 -21.427600 -20.869500
H -28.998600 -17.944900 -14.719700
C -28.389400 -20.008100 -18.877000
C -28.378000 -21.022900 -21.063800
O -28.226500 -21.949100 -23.236300
N -28.226500 -18.997000 -16.878400
C -28.086800 -17.793600 -14.821100
H -27.844300 -16.741900 -13.130300
C -27.741300 -20.324500 -20.049800
C -27.710300 -21.253200 -22.366000
N -27.615500 -19.294800 -17.921700
C -27.420600 -18.282500 -15.926700
C -27.394200 -17.080300 -13.870700
H -26.856500 -20.063200 -20.165800
O -26.584500 -20.641900 -22.516400
H -26.279300 -20.810100 -23.257800
C -26.056200 -18.072200 -16.047600
C -26.044800 -16.864800 -14.002600
H -25.597100 -18.419400 -16.778200
H -25.586000 -16.385200 -13.351500
C -25.374900 -17.351600 -15.092300
H -24.463100 -17.198100 -15.186400
H -26.461300 -22.234600 -25.824500
H -25.793100 -21.967900 -28.658800
N -25.792400 -21.694400 -25.833100
N -25.465100 -20.869500 -24.811800
H -25.314800 -23.259300 -27.909900
C -25.091500 -22.350700 -28.126100
C -24.936000 -21.562300 -26.865400
C -24.385900 -20.203400 -25.219800
H -24.268500 -22.332100 -28.619700
H -24.107300 -18.330800 -24.513700
C -24.037600 -20.620800 -26.498900
H -23.915300 -19.430100 -23.413000
C -23.743600 -19.199600 -24.329200
H -23.321200 -20.311800 -27.005900
H -22.797100 -19.192000 -24.486800
