28
Fragment
H -31.256100 -21.309800 -19.600200
O -30.393800 -22.136300 -21.803300
C -30.363500 -21.071800 -19.710200
H -30.182200 -20.146300 -17.943600
H -29.915800 -22.266300 -22.456400
C -29.724800 -20.375300 -18.720600
C -29.701100 -21.427600 -20.869500
H -28.998600 -17.944900 -14.719700
C -28.389400 -20.008100 -18.877000
C -28.378000 -21.022900 -21.063800
O -28.226500 -21.949100 -23.236300
N -28.226500 -18.997000 -16.878400
C -28.086800 -17.793600 -14.821100
H -27.844300 -16.741900 -13.130300
C -27.741300 -20.324500 -20.049800
C -27.710300 -21.253200 -22.366000
N -27.615500 -19.294800 -17.921700
C -27.420600 -18.282500 -15.926700
C -27.394200 -17.080300 -13.870700
H -26.856500 -20.063200 -20.165800
O -26.584500 -20.641900 -22.516400
H -26.279300 -20.810100 -23.257800
C -26.056200 -18.072200 -16.047600
C -26.044800 -16.864800 -14.002600
H -25.597100 -18.419400 -16.778200
H -25.586000 -16.385200 -13.351500
C -25.374900 -17.351600 -15.092300
H -24.463100 -17.198100 -15.186400
15
Fragment
H -27.608800 -14.971200 -10.563600
C -26.667400 -15.033700 -10.740800
H -26.528500 -14.450000 -7.847900
H -26.495500 -14.779100 -11.649700
H -26.374400 -15.936800 -10.600300
C -25.985700 -13.973200 -8.434300
C -25.928000 -14.123300 -9.822100
H -25.338200 -11.695700 -6.578600
C -25.099800 -12.999000 -8.109300
N -25.036000 -13.273200 -10.325400
H -24.723100 -13.062700 -6.121700
C -24.713300 -12.389700 -6.804600
N -24.535100 -12.601700 -9.262600
H -23.928800 -11.993300 -9.318800
H -23.831800 -12.016100 -6.874200
43
Fragment
H -31.256100 -21.309800 -19.600200
O -30.393800 -22.136300 -21.803300
C -30.363500 -21.071800 -19.710200
H -30.182200 -20.146300 -17.943600
H -29.915800 -22.266300 -22.456400
C -29.724800 -20.375300 -18.720600
C -29.701100 -21.427600 -20.869500
H -28.998600 -17.944900 -14.719700
C -28.389400 -20.008100 -18.877000
C -28.378000 -21.022900 -21.063800
O -28.226500 -21.949100 -23.236300
N -28.226500 -18.997000 -16.878400
C -28.086800 -17.793600 -14.821100
H -27.844300 -16.741900 -13.130300
C -27.741300 -20.324500 -20.049800
C -27.710300 -21.253200 -22.366000
N -27.615500 -19.294800 -17.921700
C -27.420600 -18.282500 -15.926700
C -27.394200 -17.080300 -13.870700
H -26.856500 -20.063200 -20.165800
O -26.584500 -20.641900 -22.516400
H -26.279300 -20.810100 -23.257800
C -26.056200 -18.072200 -16.047600
C -26.044800 -16.864800 -14.002600
H -25.597100 -18.419400 -16.778200
H -25.586000 -16.385200 -13.351500
C -25.374900 -17.351600 -15.092300
H -24.463100 -17.198100 -15.186400
H -27.608800 -14.971200 -10.563600
C -26.667400 -15.033700 -10.740800
H -26.528500 -14.450000 -7.847900
H -26.495500 -14.779100 -11.649700
H -26.374400 -15.936800 -10.600300
C -25.985700 -13.973200 -8.434300
C -25.928000 -14.123300 -9.822100
H -25.338200 -11.695700 -6.578600
C -25.099800 -12.999000 -8.109300
N -25.036000 -13.273200 -10.325400
H -24.723100 -13.062700 -6.121700
C -24.713300 -12.389700 -6.804600
N -24.535100 -12.601700 -9.262600
H -23.928800 -11.993300 -9.318800
H -23.831800 -12.016100 -6.874200
