28
Fragment
H -31.256100 -21.309800 -19.600200
O -30.393800 -22.136300 -21.803300
C -30.363500 -21.071800 -19.710200
H -30.182200 -20.146300 -17.943600
H -29.915800 -22.266300 -22.456400
C -29.724800 -20.375300 -18.720600
C -29.701100 -21.427600 -20.869500
H -28.998600 -17.944900 -14.719700
C -28.389400 -20.008100 -18.877000
C -28.378000 -21.022900 -21.063800
O -28.226500 -21.949100 -23.236300
N -28.226500 -18.997000 -16.878400
C -28.086800 -17.793600 -14.821100
H -27.844300 -16.741900 -13.130300
C -27.741300 -20.324500 -20.049800
C -27.710300 -21.253200 -22.366000
N -27.615500 -19.294800 -17.921700
C -27.420600 -18.282500 -15.926700
C -27.394200 -17.080300 -13.870700
H -26.856500 -20.063200 -20.165800
O -26.584500 -20.641900 -22.516400
H -26.279300 -20.810100 -23.257800
C -26.056200 -18.072200 -16.047600
C -26.044800 -16.864800 -14.002600
H -25.597100 -18.419400 -16.778200
H -25.586000 -16.385200 -13.351500
C -25.374900 -17.351600 -15.092300
H -24.463100 -17.198100 -15.186400
15
Fragment
H -28.696100 -23.932200 -17.558800
H -28.599100 -23.955000 -15.114300
N -27.992800 -23.346600 -15.170500
C -27.814600 -23.558600 -17.628500
H -27.804800 -22.885600 -18.311400
N -27.491900 -22.675100 -14.107700
C -27.428100 -22.949300 -16.323700
H -27.189700 -24.252600 -17.854500
C -26.599900 -21.825000 -14.611000
C -26.542200 -21.975100 -15.998800
H -26.153500 -20.011400 -13.832800
H -26.032400 -21.169100 -12.783400
H -25.999400 -21.498300 -16.585200
C -25.860500 -20.914500 -13.692300
H -24.919100 -20.977100 -13.869400
43
Fragment
H -31.256100 -21.309800 -19.600200
O -30.393800 -22.136300 -21.803300
C -30.363500 -21.071800 -19.710200
H -30.182200 -20.146300 -17.943600
H -29.915800 -22.266300 -22.456400
C -29.724800 -20.375300 -18.720600
C -29.701100 -21.427600 -20.869500
H -28.998600 -17.944900 -14.719700
C -28.389400 -20.008100 -18.877000
C -28.378000 -21.022900 -21.063800
O -28.226500 -21.949100 -23.236300
N -28.226500 -18.997000 -16.878400
C -28.086800 -17.793600 -14.821100
H -27.844300 -16.741900 -13.130300
C -27.741300 -20.324500 -20.049800
C -27.710300 -21.253200 -22.366000
N -27.615500 -19.294800 -17.921700
C -27.420600 -18.282500 -15.926700
C -27.394200 -17.080300 -13.870700
H -26.856500 -20.063200 -20.165800
O -26.584500 -20.641900 -22.516400
H -26.279300 -20.810100 -23.257800
C -26.056200 -18.072200 -16.047600
C -26.044800 -16.864800 -14.002600
H -25.597100 -18.419400 -16.778200
H -25.586000 -16.385200 -13.351500
C -25.374900 -17.351600 -15.092300
H -24.463100 -17.198100 -15.186400
H -28.696100 -23.932200 -17.558800
H -28.599100 -23.955000 -15.114300
N -27.992800 -23.346600 -15.170500
C -27.814600 -23.558600 -17.628500
H -27.804800 -22.885600 -18.311400
N -27.491900 -22.675100 -14.107700
C -27.428100 -22.949300 -16.323700
H -27.189700 -24.252600 -17.854500
C -26.599900 -21.825000 -14.611000
C -26.542200 -21.975100 -15.998800
H -26.153500 -20.011400 -13.832800
H -26.032400 -21.169100 -12.783400
H -25.999400 -21.498300 -16.585200
C -25.860500 -20.914500 -13.692300
H -24.919100 -20.977100 -13.869400
