28
Fragment
H -31.256100 -21.309800 -19.600200
O -30.393800 -22.136300 -21.803300
C -30.363500 -21.071800 -19.710200
H -30.182200 -20.146300 -17.943600
H -29.915800 -22.266300 -22.456400
C -29.724800 -20.375300 -18.720600
C -29.701100 -21.427600 -20.869500
H -28.998600 -17.944900 -14.719700
C -28.389400 -20.008100 -18.877000
C -28.378000 -21.022900 -21.063800
O -28.226500 -21.949100 -23.236300
N -28.226500 -18.997000 -16.878400
C -28.086800 -17.793600 -14.821100
H -27.844300 -16.741900 -13.130300
C -27.741300 -20.324500 -20.049800
C -27.710300 -21.253200 -22.366000
N -27.615500 -19.294800 -17.921700
C -27.420600 -18.282500 -15.926700
C -27.394200 -17.080300 -13.870700
H -26.856500 -20.063200 -20.165800
O -26.584500 -20.641900 -22.516400
H -26.279300 -20.810100 -23.257800
C -26.056200 -18.072200 -16.047600
C -26.044800 -16.864800 -14.002600
H -25.597100 -18.419400 -16.778200
H -25.586000 -16.385200 -13.351500
C -25.374900 -17.351600 -15.092300
H -24.463100 -17.198100 -15.186400
15
Fragment
H -31.001700 -28.326700 -24.379300
H -30.477700 -27.206900 -21.860300
C -30.055200 -28.319000 -24.536900
H -29.883600 -28.088600 -25.453200
C -29.761300 -26.897900 -22.367300
H -29.691600 -29.187900 -24.352400
H -29.530300 -25.186600 -20.246500
C -29.412900 -27.315300 -23.646300
C -28.862800 -25.956400 -22.000800
C -28.707300 -25.168000 -20.740000
H -28.484000 -24.259300 -20.956200
N -28.333800 -26.649200 -24.054400
N -28.006500 -25.824200 -23.033100
H -28.005800 -25.550800 -20.207400
H -27.337600 -25.284100 -23.041600
43
Fragment
H -31.256100 -21.309800 -19.600200
O -30.393800 -22.136300 -21.803300
C -30.363500 -21.071800 -19.710200
H -30.182200 -20.146300 -17.943600
H -29.915800 -22.266300 -22.456400
C -29.724800 -20.375300 -18.720600
C -29.701100 -21.427600 -20.869500
H -28.998600 -17.944900 -14.719700
C -28.389400 -20.008100 -18.877000
C -28.378000 -21.022900 -21.063800
O -28.226500 -21.949100 -23.236300
N -28.226500 -18.997000 -16.878400
C -28.086800 -17.793600 -14.821100
H -27.844300 -16.741900 -13.130300
C -27.741300 -20.324500 -20.049800
C -27.710300 -21.253200 -22.366000
N -27.615500 -19.294800 -17.921700
C -27.420600 -18.282500 -15.926700
C -27.394200 -17.080300 -13.870700
H -26.856500 -20.063200 -20.165800
O -26.584500 -20.641900 -22.516400
H -26.279300 -20.810100 -23.257800
C -26.056200 -18.072200 -16.047600
C -26.044800 -16.864800 -14.002600
H -25.597100 -18.419400 -16.778200
H -25.586000 -16.385200 -13.351500
C -25.374900 -17.351600 -15.092300
H -24.463100 -17.198100 -15.186400
H -31.001700 -28.326700 -24.379300
H -30.477700 -27.206900 -21.860300
C -30.055200 -28.319000 -24.536900
H -29.883600 -28.088600 -25.453200
C -29.761300 -26.897900 -22.367300
H -29.691600 -29.187900 -24.352400
H -29.530300 -25.186600 -20.246500
C -29.412900 -27.315300 -23.646300
C -28.862800 -25.956400 -22.000800
C -28.707300 -25.168000 -20.740000
H -28.484000 -24.259300 -20.956200
N -28.333800 -26.649200 -24.054400
N -28.006500 -25.824200 -23.033100
H -28.005800 -25.550800 -20.207400
H -27.337600 -25.284100 -23.041600
