24
Fragment
H -20.371400 -16.450600 -12.695900
O -19.496400 -18.970400 -13.091000
C -19.406900 -16.314500 -12.590500
H -19.213300 -15.354300 -12.563100
H -19.106700 -16.732600 -11.756900
H -19.087900 -20.677100 -14.779400
C -18.819800 -18.313900 -13.861500
N -18.698400 -16.924700 -13.728600
C -18.223000 -20.349800 -15.102900
N -18.150800 -18.904300 -14.922300
H -18.127500 -20.565200 -16.054600
C -17.931600 -16.057300 -14.543200
O -17.861300 -14.857900 -14.311600
H -17.501800 -20.779000 -14.597100
C -17.391000 -18.126600 -15.757700
C -17.294700 -16.766400 -15.599800
H -16.871700 -14.411800 -17.077900
N -16.661500 -18.553400 -16.825400
N -16.472300 -16.334400 -16.629300
C -16.123200 -17.430000 -17.316000
C -16.073400 -14.955000 -16.910300
H -15.587100 -14.592700 -16.141000
H -15.550600 -17.412200 -18.073800
H -15.494700 -14.937600 -17.700700
17
Fragment
H -18.950900 -17.802100 -21.860300
H -18.253900 -16.888500 -22.976300
H -18.221300 -15.673300 -20.600900
C -18.099800 -17.624100 -22.332400
O -18.022200 -19.991800 -22.797500
C -17.674600 -18.854500 -23.074300
C -17.255700 -15.794500 -20.782200
H -17.027800 -17.836800 -20.556700
C -17.026600 -17.199200 -21.314400
O -16.994900 -13.493600 -21.244200
O -16.824900 -18.603600 -24.060100
C -16.800000 -14.723400 -21.723300
H -16.773000 -15.694300 -19.923300
H -16.631500 -12.914400 -21.667400
H -16.563200 -19.373200 -24.481300
O -16.263300 -14.921800 -22.798500
H -16.136100 -17.241200 -21.744400
41
Fragment
H -20.371400 -16.450600 -12.695900
O -19.496400 -18.970400 -13.091000
C -19.406900 -16.314500 -12.590500
H -19.213300 -15.354300 -12.563100
H -19.106700 -16.732600 -11.756900
H -19.087900 -20.677100 -14.779400
C -18.819800 -18.313900 -13.861500
N -18.698400 -16.924700 -13.728600
C -18.223000 -20.349800 -15.102900
N -18.150800 -18.904300 -14.922300
H -18.127500 -20.565200 -16.054600
C -17.931600 -16.057300 -14.543200
O -17.861300 -14.857900 -14.311600
H -17.501800 -20.779000 -14.597100
C -17.391000 -18.126600 -15.757700
C -17.294700 -16.766400 -15.599800
H -16.871700 -14.411800 -17.077900
N -16.661500 -18.553400 -16.825400
N -16.472300 -16.334400 -16.629300
C -16.123200 -17.430000 -17.316000
C -16.073400 -14.955000 -16.910300
H -15.587100 -14.592700 -16.141000
H -15.550600 -17.412200 -18.073800
H -15.494700 -14.937600 -17.700700
H -18.950900 -17.802100 -21.860300
H -18.253900 -16.888500 -22.976300
H -18.221300 -15.673300 -20.600900
C -18.099800 -17.624100 -22.332400
O -18.022200 -19.991800 -22.797500
C -17.674600 -18.854500 -23.074300
C -17.255700 -15.794500 -20.782200
H -17.027800 -17.836800 -20.556700
C -17.026600 -17.199200 -21.314400
O -16.994900 -13.493600 -21.244200
O -16.824900 -18.603600 -24.060100
C -16.800000 -14.723400 -21.723300
H -16.773000 -15.694300 -19.923300
H -16.631500 -12.914400 -21.667400
H -16.563200 -19.373200 -24.481300
O -16.263300 -14.921800 -22.798500
H -16.136100 -17.241200 -21.744400
