24
Fragment
H -20.371400 -16.450600 -12.695900
O -19.496400 -18.970400 -13.091000
C -19.406900 -16.314500 -12.590500
H -19.213300 -15.354300 -12.563100
H -19.106700 -16.732600 -11.756900
H -19.087900 -20.677100 -14.779400
C -18.819800 -18.313900 -13.861500
N -18.698400 -16.924700 -13.728600
C -18.223000 -20.349800 -15.102900
N -18.150800 -18.904300 -14.922300
H -18.127500 -20.565200 -16.054600
C -17.931600 -16.057300 -14.543200
O -17.861300 -14.857900 -14.311600
H -17.501800 -20.779000 -14.597100
C -17.391000 -18.126600 -15.757700
C -17.294700 -16.766400 -15.599800
H -16.871700 -14.411800 -17.077900
N -16.661500 -18.553400 -16.825400
N -16.472300 -16.334400 -16.629300
C -16.123200 -17.430000 -17.316000
C -16.073400 -14.955000 -16.910300
H -15.587100 -14.592700 -16.141000
H -15.550600 -17.412200 -18.073800
H -15.494700 -14.937600 -17.700700
17
Fragment
H -19.051300 -22.539000 -11.321700
H -18.354400 -21.625300 -12.437700
H -18.321700 -20.410200 -10.062300
C -18.200200 -22.361000 -11.793800
O -18.122700 -24.728700 -12.258900
C -17.775000 -23.591400 -12.535700
C -17.356200 -20.531400 -10.243600
H -17.128200 -22.573600 -10.018000
C -17.127000 -21.936100 -10.775800
O -17.095400 -18.230500 -10.705600
O -16.925400 -23.340500 -13.521500
C -16.900500 -19.460300 -11.184700
H -16.873500 -20.431200 -9.384700
H -16.731900 -17.651300 -11.128800
H -16.663600 -24.110100 -13.942600
O -16.363700 -19.658700 -12.259900
H -16.236600 -21.978100 -11.205700
41
Fragment
H -20.371400 -16.450600 -12.695900
O -19.496400 -18.970400 -13.091000
C -19.406900 -16.314500 -12.590500
H -19.213300 -15.354300 -12.563100
H -19.106700 -16.732600 -11.756900
H -19.087900 -20.677100 -14.779400
C -18.819800 -18.313900 -13.861500
N -18.698400 -16.924700 -13.728600
C -18.223000 -20.349800 -15.102900
N -18.150800 -18.904300 -14.922300
H -18.127500 -20.565200 -16.054600
C -17.931600 -16.057300 -14.543200
O -17.861300 -14.857900 -14.311600
H -17.501800 -20.779000 -14.597100
C -17.391000 -18.126600 -15.757700
C -17.294700 -16.766400 -15.599800
H -16.871700 -14.411800 -17.077900
N -16.661500 -18.553400 -16.825400
N -16.472300 -16.334400 -16.629300
C -16.123200 -17.430000 -17.316000
C -16.073400 -14.955000 -16.910300
H -15.587100 -14.592700 -16.141000
H -15.550600 -17.412200 -18.073800
H -15.494700 -14.937600 -17.700700
H -19.051300 -22.539000 -11.321700
H -18.354400 -21.625300 -12.437700
H -18.321700 -20.410200 -10.062300
C -18.200200 -22.361000 -11.793800
O -18.122700 -24.728700 -12.258900
C -17.775000 -23.591400 -12.535700
C -17.356200 -20.531400 -10.243600
H -17.128200 -22.573600 -10.018000
C -17.127000 -21.936100 -10.775800
O -17.095400 -18.230500 -10.705600
O -16.925400 -23.340500 -13.521500
C -16.900500 -19.460300 -11.184700
H -16.873500 -20.431200 -9.384700
H -16.731900 -17.651300 -11.128800
H -16.663600 -24.110100 -13.942600
O -16.363700 -19.658700 -12.259900
H -16.236600 -21.978100 -11.205700
