24
Fragment
H -20.371400 -16.450600 -12.695900
O -19.496400 -18.970400 -13.091000
C -19.406900 -16.314500 -12.590500
H -19.213300 -15.354300 -12.563100
H -19.106700 -16.732600 -11.756900
H -19.087900 -20.677100 -14.779400
C -18.819800 -18.313900 -13.861500
N -18.698400 -16.924700 -13.728600
C -18.223000 -20.349800 -15.102900
N -18.150800 -18.904300 -14.922300
H -18.127500 -20.565200 -16.054600
C -17.931600 -16.057300 -14.543200
O -17.861300 -14.857900 -14.311600
H -17.501800 -20.779000 -14.597100
C -17.391000 -18.126600 -15.757700
C -17.294700 -16.766400 -15.599800
H -16.871700 -14.411800 -17.077900
N -16.661500 -18.553400 -16.825400
N -16.472300 -16.334400 -16.629300
C -16.123200 -17.430000 -17.316000
C -16.073400 -14.955000 -16.910300
H -15.587100 -14.592700 -16.141000
H -15.550600 -17.412200 -18.073800
H -15.494700 -14.937600 -17.700700
17
Fragment
H -16.696800 -14.198300 -11.321700
H -15.999800 -13.284600 -12.437700
H -15.967200 -12.069400 -10.062300
C -15.845700 -14.020300 -11.793800
O -15.768100 -16.387900 -12.258900
C -15.420500 -15.250700 -12.535700
C -15.001700 -12.190700 -10.243600
H -14.773700 -14.232900 -10.018000
C -14.772500 -13.595400 -10.775800
O -14.740900 -9.889800 -10.705600
O -14.570800 -14.999800 -13.521500
C -14.546000 -11.119600 -11.184700
H -14.518900 -12.090400 -9.384700
H -14.377400 -9.310600 -11.128800
H -14.309100 -15.769300 -13.942600
O -14.009200 -11.318000 -12.259900
H -13.882000 -13.637300 -11.205700
41
Fragment
H -20.371400 -16.450600 -12.695900
O -19.496400 -18.970400 -13.091000
C -19.406900 -16.314500 -12.590500
H -19.213300 -15.354300 -12.563100
H -19.106700 -16.732600 -11.756900
H -19.087900 -20.677100 -14.779400
C -18.819800 -18.313900 -13.861500
N -18.698400 -16.924700 -13.728600
C -18.223000 -20.349800 -15.102900
N -18.150800 -18.904300 -14.922300
H -18.127500 -20.565200 -16.054600
C -17.931600 -16.057300 -14.543200
O -17.861300 -14.857900 -14.311600
H -17.501800 -20.779000 -14.597100
C -17.391000 -18.126600 -15.757700
C -17.294700 -16.766400 -15.599800
H -16.871700 -14.411800 -17.077900
N -16.661500 -18.553400 -16.825400
N -16.472300 -16.334400 -16.629300
C -16.123200 -17.430000 -17.316000
C -16.073400 -14.955000 -16.910300
H -15.587100 -14.592700 -16.141000
H -15.550600 -17.412200 -18.073800
H -15.494700 -14.937600 -17.700700
H -16.696800 -14.198300 -11.321700
H -15.999800 -13.284600 -12.437700
H -15.967200 -12.069400 -10.062300
C -15.845700 -14.020300 -11.793800
O -15.768100 -16.387900 -12.258900
C -15.420500 -15.250700 -12.535700
C -15.001700 -12.190700 -10.243600
H -14.773700 -14.232900 -10.018000
C -14.772500 -13.595400 -10.775800
O -14.740900 -9.889800 -10.705600
O -14.570800 -14.999800 -13.521500
C -14.546000 -11.119600 -11.184700
H -14.518900 -12.090400 -9.384700
H -14.377400 -9.310600 -11.128800
H -14.309100 -15.769300 -13.942600
O -14.009200 -11.318000 -12.259900
H -13.882000 -13.637300 -11.205700
