24
Fragment
H -20.371400 -16.450600 -12.695900
O -19.496400 -18.970400 -13.091000
C -19.406900 -16.314500 -12.590500
H -19.213300 -15.354300 -12.563100
H -19.106700 -16.732600 -11.756900
H -19.087900 -20.677100 -14.779400
C -18.819800 -18.313900 -13.861500
N -18.698400 -16.924700 -13.728600
C -18.223000 -20.349800 -15.102900
N -18.150800 -18.904300 -14.922300
H -18.127500 -20.565200 -16.054600
C -17.931600 -16.057300 -14.543200
O -17.861300 -14.857900 -14.311600
H -17.501800 -20.779000 -14.597100
C -17.391000 -18.126600 -15.757700
C -17.294700 -16.766400 -15.599800
H -16.871700 -14.411800 -17.077900
N -16.661500 -18.553400 -16.825400
N -16.472300 -16.334400 -16.629300
C -16.123200 -17.430000 -17.316000
C -16.073400 -14.955000 -16.910300
H -15.587100 -14.592700 -16.141000
H -15.550600 -17.412200 -18.073800
H -15.494700 -14.937600 -17.700700
24
Fragment
H -14.973500 -20.896200 -13.915200
H -14.917600 -18.421500 -13.542100
H -14.881100 -21.241000 -15.474900
C -14.394800 -20.878700 -14.705600
C -14.345000 -18.403700 -14.299900
N -13.995900 -19.499300 -14.986600
N -13.806700 -17.280400 -14.790600
H -13.596500 -21.421900 -14.538000
C -13.173500 -19.067300 -16.016100
C -13.077200 -17.707200 -15.858200
H -12.966400 -15.054700 -17.018800
O -12.606900 -20.975800 -17.304300
C -12.536600 -19.776500 -17.072700
H -12.340700 -15.268600 -15.561300
N -12.317500 -16.929400 -16.693600
C -12.245200 -15.483900 -16.513000
N -11.769800 -18.909000 -17.887300
C -11.648400 -17.519900 -17.754400
H -11.380300 -15.156700 -16.836500
H -11.361500 -19.101200 -19.859000
H -11.254900 -20.479500 -19.052800
C -11.061300 -19.519200 -19.025400
O -10.971800 -16.863400 -18.524900
H -10.096800 -19.383100 -18.920000
48
Fragment
H -20.371400 -16.450600 -12.695900
O -19.496400 -18.970400 -13.091000
C -19.406900 -16.314500 -12.590500
H -19.213300 -15.354300 -12.563100
H -19.106700 -16.732600 -11.756900
H -19.087900 -20.677100 -14.779400
C -18.819800 -18.313900 -13.861500
N -18.698400 -16.924700 -13.728600
C -18.223000 -20.349800 -15.102900
N -18.150800 -18.904300 -14.922300
H -18.127500 -20.565200 -16.054600
C -17.931600 -16.057300 -14.543200
O -17.861300 -14.857900 -14.311600
H -17.501800 -20.779000 -14.597100
C -17.391000 -18.126600 -15.757700
C -17.294700 -16.766400 -15.599800
H -16.871700 -14.411800 -17.077900
N -16.661500 -18.553400 -16.825400
N -16.472300 -16.334400 -16.629300
C -16.123200 -17.430000 -17.316000
C -16.073400 -14.955000 -16.910300
H -15.587100 -14.592700 -16.141000
H -15.550600 -17.412200 -18.073800
H -15.494700 -14.937600 -17.700700
H -14.973500 -20.896200 -13.915200
H -14.917600 -18.421500 -13.542100
H -14.881100 -21.241000 -15.474900
C -14.394800 -20.878700 -14.705600
C -14.345000 -18.403700 -14.299900
N -13.995900 -19.499300 -14.986600
N -13.806700 -17.280400 -14.790600
H -13.596500 -21.421900 -14.538000
C -13.173500 -19.067300 -16.016100
C -13.077200 -17.707200 -15.858200
H -12.966400 -15.054700 -17.018800
O -12.606900 -20.975800 -17.304300
C -12.536600 -19.776500 -17.072700
H -12.340700 -15.268600 -15.561300
N -12.317500 -16.929400 -16.693600
C -12.245200 -15.483900 -16.513000
N -11.769800 -18.909000 -17.887300
C -11.648400 -17.519900 -17.754400
H -11.380300 -15.156700 -16.836500
H -11.361500 -19.101200 -19.859000
H -11.254900 -20.479500 -19.052800
C -11.061300 -19.519200 -19.025400
O -10.971800 -16.863400 -18.524900
H -10.096800 -19.383100 -18.920000
