24
Fragment
H -20.371400 -16.450600 -12.695900
O -19.496400 -18.970400 -13.091000
C -19.406900 -16.314500 -12.590500
H -19.213300 -15.354300 -12.563100
H -19.106700 -16.732600 -11.756900
H -19.087900 -20.677100 -14.779400
C -18.819800 -18.313900 -13.861500
N -18.698400 -16.924700 -13.728600
C -18.223000 -20.349800 -15.102900
N -18.150800 -18.904300 -14.922300
H -18.127500 -20.565200 -16.054600
C -17.931600 -16.057300 -14.543200
O -17.861300 -14.857900 -14.311600
H -17.501800 -20.779000 -14.597100
C -17.391000 -18.126600 -15.757700
C -17.294700 -16.766400 -15.599800
H -16.871700 -14.411800 -17.077900
N -16.661500 -18.553400 -16.825400
N -16.472300 -16.334400 -16.629300
C -16.123200 -17.430000 -17.316000
C -16.073400 -14.955000 -16.910300
H -15.587100 -14.592700 -16.141000
H -15.550600 -17.412200 -18.073800
H -15.494700 -14.937600 -17.700700
24
Fragment
H -22.725900 -24.791400 -12.695900
O -21.850900 -27.311100 -13.091000
C -21.761400 -24.655200 -12.590500
H -21.567900 -23.695000 -12.563100
H -21.461300 -25.073300 -11.756900
H -21.442500 -29.017800 -14.779400
C -21.174400 -26.654600 -13.861500
N -21.052900 -25.265500 -13.728600
C -20.577600 -28.690600 -15.102900
N -20.505300 -27.245100 -14.922300
H -20.482100 -28.905900 -16.054600
C -20.286200 -24.398000 -14.543200
O -20.215800 -23.198600 -14.311600
H -19.856300 -29.119800 -14.597100
C -19.745500 -26.467300 -15.757700
C -19.649300 -25.107100 -15.599800
H -19.226300 -22.752500 -17.077900
N -19.016100 -26.894100 -16.825400
N -18.826800 -24.675200 -16.629300
C -18.477800 -25.770800 -17.316000
C -18.428000 -23.295800 -16.910300
H -17.941700 -22.933400 -16.141000
H -17.905100 -25.753000 -18.073800
H -17.849300 -23.278300 -17.700700
48
Fragment
H -20.371400 -16.450600 -12.695900
O -19.496400 -18.970400 -13.091000
C -19.406900 -16.314500 -12.590500
H -19.213300 -15.354300 -12.563100
H -19.106700 -16.732600 -11.756900
H -19.087900 -20.677100 -14.779400
C -18.819800 -18.313900 -13.861500
N -18.698400 -16.924700 -13.728600
C -18.223000 -20.349800 -15.102900
N -18.150800 -18.904300 -14.922300
H -18.127500 -20.565200 -16.054600
C -17.931600 -16.057300 -14.543200
O -17.861300 -14.857900 -14.311600
H -17.501800 -20.779000 -14.597100
C -17.391000 -18.126600 -15.757700
C -17.294700 -16.766400 -15.599800
H -16.871700 -14.411800 -17.077900
N -16.661500 -18.553400 -16.825400
N -16.472300 -16.334400 -16.629300
C -16.123200 -17.430000 -17.316000
C -16.073400 -14.955000 -16.910300
H -15.587100 -14.592700 -16.141000
H -15.550600 -17.412200 -18.073800
H -15.494700 -14.937600 -17.700700
H -22.725900 -24.791400 -12.695900
O -21.850900 -27.311100 -13.091000
C -21.761400 -24.655200 -12.590500
H -21.567900 -23.695000 -12.563100
H -21.461300 -25.073300 -11.756900
H -21.442500 -29.017800 -14.779400
C -21.174400 -26.654600 -13.861500
N -21.052900 -25.265500 -13.728600
C -20.577600 -28.690600 -15.102900
N -20.505300 -27.245100 -14.922300
H -20.482100 -28.905900 -16.054600
C -20.286200 -24.398000 -14.543200
O -20.215800 -23.198600 -14.311600
H -19.856300 -29.119800 -14.597100
C -19.745500 -26.467300 -15.757700
C -19.649300 -25.107100 -15.599800
H -19.226300 -22.752500 -17.077900
N -19.016100 -26.894100 -16.825400
N -18.826800 -24.675200 -16.629300
C -18.477800 -25.770800 -17.316000
C -18.428000 -23.295800 -16.910300
H -17.941700 -22.933400 -16.141000
H -17.905100 -25.753000 -18.073800
H -17.849300 -23.278300 -17.700700
