30
Fragment
H -16.555900 -9.579200 -16.528100
H -15.838100 -7.462400 -15.826700
H -15.706100 -10.256600 -14.484700
C -15.617900 -9.419700 -16.397000
H -15.516700 -7.596000 -17.343300
C -15.300200 -7.930600 -16.470200
N -15.171000 -9.923300 -15.127200
H -15.133400 -9.883100 -17.083900
O -13.955800 -5.764800 -17.420100
N -13.891100 -7.665500 -16.194600
C -13.738100 -9.820400 -15.038700
H -13.607200 -7.960600 -14.222600
H -13.430700 -10.267500 -14.246100
C -13.363800 -6.482400 -16.621200
H -13.347400 -10.257300 -15.798700
C -13.297500 -8.374300 -15.031400
H -12.247700 -5.539900 -15.257400
C -12.065900 -6.085100 -16.026500
C -11.807000 -8.309500 -15.064000
H -11.343200 -4.406600 -16.957400
N -11.260200 -7.219100 -15.596300
H -11.145600 -5.705500 -17.808700
C -11.126900 -5.340900 -16.921200
O -11.115800 -9.239800 -14.608500
C -9.833900 -7.013300 -15.813200
C -9.759600 -5.567200 -16.276800
H -9.640500 -4.978400 -15.528500
H -9.494300 -7.606200 -16.488300
H -9.344100 -7.147600 -14.998900
H -9.041100 -5.432200 -16.898600
30
Fragment
H -7.783900 -9.579200 -16.528100
H -7.066100 -7.462400 -15.826700
H -6.934100 -10.256600 -14.484700
C -6.845900 -9.419700 -16.397000
H -6.744700 -7.596000 -17.343300
C -6.528200 -7.930600 -16.470200
N -6.399000 -9.923300 -15.127200
H -6.361400 -9.883100 -17.083900
O -5.183800 -5.764800 -17.420100
N -5.119100 -7.665500 -16.194600
C -4.966100 -9.820400 -15.038700
H -4.835200 -7.960600 -14.222600
H -4.658700 -10.267500 -14.246100
C -4.591800 -6.482400 -16.621200
H -4.575400 -10.257300 -15.798700
C -4.525500 -8.374300 -15.031400
H -3.475700 -5.539900 -15.257400
C -3.293900 -6.085100 -16.026500
C -3.035000 -8.309500 -15.064000
H -2.571200 -4.406600 -16.957400
N -2.488200 -7.219100 -15.596300
H -2.373600 -5.705500 -17.808700
C -2.354900 -5.340900 -16.921200
O -2.343800 -9.239800 -14.608500
C -1.061900 -7.013300 -15.813200
C -0.987600 -5.567200 -16.276800
H -0.868500 -4.978400 -15.528500
H -0.722300 -7.606200 -16.488300
H -0.572100 -7.147600 -14.998900
H -0.269100 -5.432200 -16.898600
60
Fragment
H -16.555900 -9.579200 -16.528100
H -15.838100 -7.462400 -15.826700
H -15.706100 -10.256600 -14.484700
C -15.617900 -9.419700 -16.397000
H -15.516700 -7.596000 -17.343300
C -15.300200 -7.930600 -16.470200
N -15.171000 -9.923300 -15.127200
H -15.133400 -9.883100 -17.083900
O -13.955800 -5.764800 -17.420100
N -13.891100 -7.665500 -16.194600
C -13.738100 -9.820400 -15.038700
H -13.607200 -7.960600 -14.222600
H -13.430700 -10.267500 -14.246100
C -13.363800 -6.482400 -16.621200
H -13.347400 -10.257300 -15.798700
C -13.297500 -8.374300 -15.031400
H -12.247700 -5.539900 -15.257400
C -12.065900 -6.085100 -16.026500
C -11.807000 -8.309500 -15.064000
H -11.343200 -4.406600 -16.957400
N -11.260200 -7.219100 -15.596300
H -11.145600 -5.705500 -17.808700
C -11.126900 -5.340900 -16.921200
O -11.115800 -9.239800 -14.608500
C -9.833900 -7.013300 -15.813200
C -9.759600 -5.567200 -16.276800
H -9.640500 -4.978400 -15.528500
H -9.494300 -7.606200 -16.488300
H -9.344100 -7.147600 -14.998900
H -9.041100 -5.432200 -16.898600
H -7.783900 -9.579200 -16.528100
H -7.066100 -7.462400 -15.826700
H -6.934100 -10.256600 -14.484700
C -6.845900 -9.419700 -16.397000
H -6.744700 -7.596000 -17.343300
C -6.528200 -7.930600 -16.470200
N -6.399000 -9.923300 -15.127200
H -6.361400 -9.883100 -17.083900
O -5.183800 -5.764800 -17.420100
N -5.119100 -7.665500 -16.194600
C -4.966100 -9.820400 -15.038700
H -4.835200 -7.960600 -14.222600
H -4.658700 -10.267500 -14.246100
C -4.591800 -6.482400 -16.621200
H -4.575400 -10.257300 -15.798700
C -4.525500 -8.374300 -15.031400
H -3.475700 -5.539900 -15.257400
C -3.293900 -6.085100 -16.026500
C -3.035000 -8.309500 -15.064000
H -2.571200 -4.406600 -16.957400
N -2.488200 -7.219100 -15.596300
H -2.373600 -5.705500 -17.808700
C -2.354900 -5.340900 -16.921200
O -2.343800 -9.239800 -14.608500
C -1.061900 -7.013300 -15.813200
C -0.987600 -5.567200 -16.276800
H -0.868500 -4.978400 -15.528500
H -0.722300 -7.606200 -16.488300
H -0.572100 -7.147600 -14.998900
H -0.269100 -5.432200 -16.898600
