30
Fragment
H -16.555900 -9.579200 -16.528100
H -15.838100 -7.462400 -15.826700
H -15.706100 -10.256600 -14.484700
C -15.617900 -9.419700 -16.397000
H -15.516700 -7.596000 -17.343300
C -15.300200 -7.930600 -16.470200
N -15.171000 -9.923300 -15.127200
H -15.133400 -9.883100 -17.083900
O -13.955800 -5.764800 -17.420100
N -13.891100 -7.665500 -16.194600
C -13.738100 -9.820400 -15.038700
H -13.607200 -7.960600 -14.222600
H -13.430700 -10.267500 -14.246100
C -13.363800 -6.482400 -16.621200
H -13.347400 -10.257300 -15.798700
C -13.297500 -8.374300 -15.031400
H -12.247700 -5.539900 -15.257400
C -12.065900 -6.085100 -16.026500
C -11.807000 -8.309500 -15.064000
H -11.343200 -4.406600 -16.957400
N -11.260200 -7.219100 -15.596300
H -11.145600 -5.705500 -17.808700
C -11.126900 -5.340900 -16.921200
O -11.115800 -9.239800 -14.608500
C -9.833900 -7.013300 -15.813200
C -9.759600 -5.567200 -16.276800
H -9.640500 -4.978400 -15.528500
H -9.494300 -7.606200 -16.488300
H -9.344100 -7.147600 -14.998900
H -9.041100 -5.432200 -16.898600
30
Fragment
H -22.985800 -8.839700 -19.252000
H -22.682800 -10.555100 -21.151700
H -22.532600 -11.013700 -19.662300
H -22.386500 -8.385900 -20.622100
C -22.267400 -8.974700 -19.873800
C -22.193000 -10.420800 -20.337400
O -20.911200 -12.647300 -21.542200
C -20.900000 -8.748400 -19.229400
H -20.881300 -9.113000 -18.341900
N -20.766700 -10.626600 -20.554300
H -20.683800 -7.814100 -19.193300
C -20.219900 -11.717000 -21.086700
C -19.961100 -9.492600 -20.124200
H -19.779300 -8.947400 -20.893300
C -18.729400 -11.781800 -21.119200
H -18.679500 -13.664800 -20.351900
C -18.663200 -9.889900 -19.529500
H -18.596300 -13.675000 -21.904600
H -18.419700 -11.368100 -21.928100
C -18.288800 -13.227900 -21.112000
N -18.135800 -11.073000 -19.956100
O -18.071200 -9.172300 -18.730500
H -16.893600 -13.290600 -19.066700
N -16.855900 -13.330800 -21.023400
C -16.726700 -11.338100 -19.680400
H -16.510300 -11.003500 -18.807400
C -16.409100 -12.827200 -19.753600
H -16.320800 -13.664100 -21.666000
H -16.188900 -10.869900 -20.323900
H -15.471000 -12.986700 -19.622600
60
Fragment
H -16.555900 -9.579200 -16.528100
H -15.838100 -7.462400 -15.826700
H -15.706100 -10.256600 -14.484700
C -15.617900 -9.419700 -16.397000
H -15.516700 -7.596000 -17.343300
C -15.300200 -7.930600 -16.470200
N -15.171000 -9.923300 -15.127200
H -15.133400 -9.883100 -17.083900
O -13.955800 -5.764800 -17.420100
N -13.891100 -7.665500 -16.194600
C -13.738100 -9.820400 -15.038700
H -13.607200 -7.960600 -14.222600
H -13.430700 -10.267500 -14.246100
C -13.363800 -6.482400 -16.621200
H -13.347400 -10.257300 -15.798700
C -13.297500 -8.374300 -15.031400
H -12.247700 -5.539900 -15.257400
C -12.065900 -6.085100 -16.026500
C -11.807000 -8.309500 -15.064000
H -11.343200 -4.406600 -16.957400
N -11.260200 -7.219100 -15.596300
H -11.145600 -5.705500 -17.808700
C -11.126900 -5.340900 -16.921200
O -11.115800 -9.239800 -14.608500
C -9.833900 -7.013300 -15.813200
C -9.759600 -5.567200 -16.276800
H -9.640500 -4.978400 -15.528500
H -9.494300 -7.606200 -16.488300
H -9.344100 -7.147600 -14.998900
H -9.041100 -5.432200 -16.898600
H -22.985800 -8.839700 -19.252000
H -22.682800 -10.555100 -21.151700
H -22.532600 -11.013700 -19.662300
H -22.386500 -8.385900 -20.622100
C -22.267400 -8.974700 -19.873800
C -22.193000 -10.420800 -20.337400
O -20.911200 -12.647300 -21.542200
C -20.900000 -8.748400 -19.229400
H -20.881300 -9.113000 -18.341900
N -20.766700 -10.626600 -20.554300
H -20.683800 -7.814100 -19.193300
C -20.219900 -11.717000 -21.086700
C -19.961100 -9.492600 -20.124200
H -19.779300 -8.947400 -20.893300
C -18.729400 -11.781800 -21.119200
H -18.679500 -13.664800 -20.351900
C -18.663200 -9.889900 -19.529500
H -18.596300 -13.675000 -21.904600
H -18.419700 -11.368100 -21.928100
C -18.288800 -13.227900 -21.112000
N -18.135800 -11.073000 -19.956100
O -18.071200 -9.172300 -18.730500
H -16.893600 -13.290600 -19.066700
N -16.855900 -13.330800 -21.023400
C -16.726700 -11.338100 -19.680400
H -16.510300 -11.003500 -18.807400
C -16.409100 -12.827200 -19.753600
H -16.320800 -13.664100 -21.666000
H -16.188900 -10.869900 -20.323900
H -15.471000 -12.986700 -19.622600
