30
Fragment
H -16.555900 -9.579200 -16.528100
H -15.838100 -7.462400 -15.826700
H -15.706100 -10.256600 -14.484700
C -15.617900 -9.419700 -16.397000
H -15.516700 -7.596000 -17.343300
C -15.300200 -7.930600 -16.470200
N -15.171000 -9.923300 -15.127200
H -15.133400 -9.883100 -17.083900
O -13.955800 -5.764800 -17.420100
N -13.891100 -7.665500 -16.194600
C -13.738100 -9.820400 -15.038700
H -13.607200 -7.960600 -14.222600
H -13.430700 -10.267500 -14.246100
C -13.363800 -6.482400 -16.621200
H -13.347400 -10.257300 -15.798700
C -13.297500 -8.374300 -15.031400
H -12.247700 -5.539900 -15.257400
C -12.065900 -6.085100 -16.026500
C -11.807000 -8.309500 -15.064000
H -11.343200 -4.406600 -16.957400
N -11.260200 -7.219100 -15.596300
H -11.145600 -5.705500 -17.808700
C -11.126900 -5.340900 -16.921200
O -11.115800 -9.239800 -14.608500
C -9.833900 -7.013300 -15.813200
C -9.759600 -5.567200 -16.276800
H -9.640500 -4.978400 -15.528500
H -9.494300 -7.606200 -16.488300
H -9.344100 -7.147600 -14.998900
H -9.041100 -5.432200 -16.898600
30
Fragment
H -14.979100 -2.024700 -10.214400
H -14.676100 -3.740100 -12.114100
H -14.525900 -4.198700 -10.624700
H -14.379700 -1.570900 -11.584500
C -14.260600 -2.159700 -10.836200
C -14.186300 -3.605800 -11.299800
O -12.904400 -5.832300 -12.504500
C -12.893300 -1.933400 -10.191800
H -12.874500 -2.298000 -9.304300
N -12.760000 -3.811600 -11.516700
H -12.677000 -0.999100 -10.155600
C -12.213200 -4.902000 -12.049000
C -11.954300 -2.677600 -11.086500
H -11.772500 -2.132400 -11.855600
C -10.722700 -4.966800 -12.081500
H -10.672800 -6.849800 -11.314200
C -10.656400 -3.074900 -10.491800
H -10.589500 -6.860000 -12.866900
H -10.413000 -4.553100 -12.890400
C -10.282100 -6.412900 -12.074300
N -10.129100 -4.258000 -10.918400
O -10.064400 -2.357300 -9.692900
H -8.886800 -6.475600 -10.029100
N -8.849200 -6.515800 -11.985700
C -8.720000 -4.523100 -10.642700
H -8.503500 -4.188500 -9.769700
C -8.402300 -6.012200 -10.716000
H -8.314100 -6.849100 -12.628300
H -8.182100 -4.054900 -11.286200
H -7.464300 -6.171700 -10.584900
60
Fragment
H -16.555900 -9.579200 -16.528100
H -15.838100 -7.462400 -15.826700
H -15.706100 -10.256600 -14.484700
C -15.617900 -9.419700 -16.397000
H -15.516700 -7.596000 -17.343300
C -15.300200 -7.930600 -16.470200
N -15.171000 -9.923300 -15.127200
H -15.133400 -9.883100 -17.083900
O -13.955800 -5.764800 -17.420100
N -13.891100 -7.665500 -16.194600
C -13.738100 -9.820400 -15.038700
H -13.607200 -7.960600 -14.222600
H -13.430700 -10.267500 -14.246100
C -13.363800 -6.482400 -16.621200
H -13.347400 -10.257300 -15.798700
C -13.297500 -8.374300 -15.031400
H -12.247700 -5.539900 -15.257400
C -12.065900 -6.085100 -16.026500
C -11.807000 -8.309500 -15.064000
H -11.343200 -4.406600 -16.957400
N -11.260200 -7.219100 -15.596300
H -11.145600 -5.705500 -17.808700
C -11.126900 -5.340900 -16.921200
O -11.115800 -9.239800 -14.608500
C -9.833900 -7.013300 -15.813200
C -9.759600 -5.567200 -16.276800
H -9.640500 -4.978400 -15.528500
H -9.494300 -7.606200 -16.488300
H -9.344100 -7.147600 -14.998900
H -9.041100 -5.432200 -16.898600
H -14.979100 -2.024700 -10.214400
H -14.676100 -3.740100 -12.114100
H -14.525900 -4.198700 -10.624700
H -14.379700 -1.570900 -11.584500
C -14.260600 -2.159700 -10.836200
C -14.186300 -3.605800 -11.299800
O -12.904400 -5.832300 -12.504500
C -12.893300 -1.933400 -10.191800
H -12.874500 -2.298000 -9.304300
N -12.760000 -3.811600 -11.516700
H -12.677000 -0.999100 -10.155600
C -12.213200 -4.902000 -12.049000
C -11.954300 -2.677600 -11.086500
H -11.772500 -2.132400 -11.855600
C -10.722700 -4.966800 -12.081500
H -10.672800 -6.849800 -11.314200
C -10.656400 -3.074900 -10.491800
H -10.589500 -6.860000 -12.866900
H -10.413000 -4.553100 -12.890400
C -10.282100 -6.412900 -12.074300
N -10.129100 -4.258000 -10.918400
O -10.064400 -2.357300 -9.692900
H -8.886800 -6.475600 -10.029100
N -8.849200 -6.515800 -11.985700
C -8.720000 -4.523100 -10.642700
H -8.503500 -4.188500 -9.769700
C -8.402300 -6.012200 -10.716000
H -8.314100 -6.849100 -12.628300
H -8.182100 -4.054900 -11.286200
H -7.464300 -6.171700 -10.584900
