15
Fragment
H -5.603800 -30.807600 -30.685000
H -5.559800 -32.915800 -31.632900
C -5.273100 -30.906500 -31.570000
C -5.250000 -32.165400 -32.126700
N -4.849100 -29.812400 -32.222700
C -4.772500 -32.322200 -33.407300
H -4.756500 -33.182500 -33.809700
C -4.379100 -29.979200 -33.468300
C -4.313800 -31.213300 -34.108000
H -4.074000 -29.212800 -33.939500
H -3.771300 -29.520300 -35.993700
C -3.769400 -31.405200 -35.488800
N -3.567800 -30.329000 -36.236900
O -3.505600 -32.546700 -35.891600
H -3.239000 -30.456800 -37.035000
6
Fragment
O -2.584400 -30.754000 -38.962700
H -2.412300 -32.827400 -37.693300
C -2.178200 -31.867800 -39.284200
N -2.154800 -32.916600 -38.519100
H -1.852000 -31.970800 -40.170400
H -1.849800 -33.666400 -38.842200
21
Fragment
H -5.603800 -30.807600 -30.685000
H -5.559800 -32.915800 -31.632900
C -5.273100 -30.906500 -31.570000
C -5.250000 -32.165400 -32.126700
N -4.849100 -29.812400 -32.222700
C -4.772500 -32.322200 -33.407300
H -4.756500 -33.182500 -33.809700
C -4.379100 -29.979200 -33.468300
C -4.313800 -31.213300 -34.108000
H -4.074000 -29.212800 -33.939500
H -3.771300 -29.520300 -35.993700
C -3.769400 -31.405200 -35.488800
N -3.567800 -30.329000 -36.236900
O -3.505600 -32.546700 -35.891600
H -3.239000 -30.456800 -37.035000
O -2.584400 -30.754000 -38.962700
H -2.412300 -32.827400 -37.693300
C -2.178200 -31.867800 -39.284200
N -2.154800 -32.916600 -38.519100
H -1.852000 -31.970800 -40.170400
H -1.849800 -33.666400 -38.842200
