15
Fragment
H -5.603800 -30.807600 -30.685000
H -5.559800 -32.915800 -31.632900
C -5.273100 -30.906500 -31.570000
C -5.250000 -32.165400 -32.126700
N -4.849100 -29.812400 -32.222700
C -4.772500 -32.322200 -33.407300
H -4.756500 -33.182500 -33.809700
C -4.379100 -29.979200 -33.468300
C -4.313800 -31.213300 -34.108000
H -4.074000 -29.212800 -33.939500
H -3.771300 -29.520300 -35.993700
C -3.769400 -31.405200 -35.488800
N -3.567800 -30.329000 -36.236900
O -3.505600 -32.546700 -35.891600
H -3.239000 -30.456800 -37.035000
6
Fragment
O -2.752000 -25.292100 -32.846700
H -2.471400 -27.028600 -33.501700
C -2.356000 -26.465100 -32.745400
N -1.791700 -26.993900 -31.684500
H -1.619500 -26.519900 -30.977700
H -1.547800 -27.826100 -31.743700
21
Fragment
H -5.603800 -30.807600 -30.685000
H -5.559800 -32.915800 -31.632900
C -5.273100 -30.906500 -31.570000
C -5.250000 -32.165400 -32.126700
N -4.849100 -29.812400 -32.222700
C -4.772500 -32.322200 -33.407300
H -4.756500 -33.182500 -33.809700
C -4.379100 -29.979200 -33.468300
C -4.313800 -31.213300 -34.108000
H -4.074000 -29.212800 -33.939500
H -3.771300 -29.520300 -35.993700
C -3.769400 -31.405200 -35.488800
N -3.567800 -30.329000 -36.236900
O -3.505600 -32.546700 -35.891600
H -3.239000 -30.456800 -37.035000
O -2.752000 -25.292100 -32.846700
H -2.471400 -27.028600 -33.501700
C -2.356000 -26.465100 -32.745400
N -1.791700 -26.993900 -31.684500
H -1.619500 -26.519900 -30.977700
H -1.547800 -27.826100 -31.743700
