42
Fragment
H -8.540300 -2.376900 -17.530500
O -8.086100 -2.108200 -16.876600
H -7.127500 -0.895200 -15.159400
N -6.826700 -2.752100 -16.881100
N -6.337100 -1.173500 -15.202500
C -6.047700 -2.214100 -16.003600
H -5.757800 -0.893600 -14.544600
H -4.811600 0.414100 -19.393300
C -4.693700 -2.829300 -15.846700
N -4.525600 -3.526300 -14.712100
N -4.493000 -0.892700 -18.085900
H -4.367400 -4.591400 -11.649400
O -4.266900 -0.220800 -19.317000
H -3.855300 -3.192200 -12.230300
C -3.682200 -1.892600 -18.018700
C -3.652200 -2.716200 -16.775300
C -3.581000 -4.120300 -12.023800
C -3.357900 -4.122400 -14.517900
O -3.263900 -6.736200 -12.232000
N -3.197400 -6.155700 -13.311400
N -3.175000 -4.788500 -13.274700
O -3.122800 -6.707100 -14.411000
N -2.820700 -2.267900 -19.002200
H -2.773000 -1.712200 -19.646600
H -2.745000 -3.484000 -10.250900
C -2.485400 -4.087700 -10.977700
N -2.480400 -3.343000 -16.569800
H -2.347600 -4.989900 -10.619800
C -2.329400 -4.027000 -15.451200
H -2.139700 -2.678400 -18.659200
H -1.653700 -3.767300 -11.386000
H -1.205500 -5.698000 -17.005700
N -1.073400 -4.683200 -15.252900
H -0.741600 -7.326000 -15.320000
O -0.633900 -3.062400 -13.790900
C -0.510600 -5.540100 -16.318300
N -0.180300 -3.968400 -14.490400
C -0.016400 -6.873100 -15.800800
H 0.241300 -5.064200 -16.751500
H 0.273000 -7.428900 -16.554200
H 0.737400 -6.728300 -15.192400
O 0.994000 -4.314700 -14.530200
42
Fragment
H -11.009200 -7.158300 -8.354200
O -10.555000 -6.889500 -7.700300
H -9.596400 -5.676500 -5.983000
N -9.295600 -7.533500 -7.704800
N -8.806000 -5.954800 -6.026100
C -8.516600 -6.995400 -6.827200
H -8.226700 -5.674900 -5.368200
H -7.280500 -4.367300 -10.217000
C -7.162500 -7.610700 -6.670300
N -6.994500 -8.307700 -5.535700
N -6.961900 -5.674000 -8.909500
H -6.836300 -9.372700 -2.473000
O -6.735800 -5.002200 -10.140600
H -6.324200 -7.973600 -3.053900
C -6.151100 -6.674000 -8.842400
C -6.121100 -7.497600 -7.599000
C -6.049900 -8.901700 -2.847400
C -5.826800 -8.903700 -5.341600
O -5.732800 -11.517600 -3.055600
N -5.666300 -10.937000 -4.135100
N -5.643900 -9.569900 -4.098400
O -5.591700 -11.488400 -5.234700
N -5.289600 -7.049200 -9.825800
H -5.241900 -6.493600 -10.470200
H -5.213900 -8.265400 -1.074600
C -4.954300 -8.869100 -1.801300
N -4.949300 -8.124400 -7.393400
H -4.816500 -9.771200 -1.443400
C -4.798300 -8.808400 -6.274800
H -4.608600 -7.459700 -9.482900
H -4.122600 -8.548700 -2.209700
H -3.674400 -10.479300 -7.829300
N -3.542300 -9.464600 -6.076500
H -3.210500 -12.107400 -6.143600
O -3.102800 -7.843800 -4.614500
C -2.979500 -10.321400 -7.142000
N -2.649200 -8.749700 -5.314000
C -2.485300 -11.654500 -6.624400
H -2.227600 -9.845500 -7.575100
H -2.195900 -12.210300 -7.377800
H -1.731500 -11.509700 -6.016000
O -1.474900 -9.096000 -5.353900
84
Fragment
H -8.540300 -2.376900 -17.530500
O -8.086100 -2.108200 -16.876600
H -7.127500 -0.895200 -15.159400
N -6.826700 -2.752100 -16.881100
N -6.337100 -1.173500 -15.202500
C -6.047700 -2.214100 -16.003600
H -5.757800 -0.893600 -14.544600
H -4.811600 0.414100 -19.393300
C -4.693700 -2.829300 -15.846700
N -4.525600 -3.526300 -14.712100
N -4.493000 -0.892700 -18.085900
H -4.367400 -4.591400 -11.649400
O -4.266900 -0.220800 -19.317000
H -3.855300 -3.192200 -12.230300
C -3.682200 -1.892600 -18.018700
C -3.652200 -2.716200 -16.775300
C -3.581000 -4.120300 -12.023800
C -3.357900 -4.122400 -14.517900
O -3.263900 -6.736200 -12.232000
N -3.197400 -6.155700 -13.311400
N -3.175000 -4.788500 -13.274700
O -3.122800 -6.707100 -14.411000
N -2.820700 -2.267900 -19.002200
H -2.773000 -1.712200 -19.646600
H -2.745000 -3.484000 -10.250900
C -2.485400 -4.087700 -10.977700
N -2.480400 -3.343000 -16.569800
H -2.347600 -4.989900 -10.619800
C -2.329400 -4.027000 -15.451200
H -2.139700 -2.678400 -18.659200
H -1.653700 -3.767300 -11.386000
H -1.205500 -5.698000 -17.005700
N -1.073400 -4.683200 -15.252900
H -0.741600 -7.326000 -15.320000
O -0.633900 -3.062400 -13.790900
C -0.510600 -5.540100 -16.318300
N -0.180300 -3.968400 -14.490400
C -0.016400 -6.873100 -15.800800
H 0.241300 -5.064200 -16.751500
H 0.273000 -7.428900 -16.554200
H 0.737400 -6.728300 -15.192400
O 0.994000 -4.314700 -14.530200
H -11.009200 -7.158300 -8.354200
O -10.555000 -6.889500 -7.700300
H -9.596400 -5.676500 -5.983000
N -9.295600 -7.533500 -7.704800
N -8.806000 -5.954800 -6.026100
C -8.516600 -6.995400 -6.827200
H -8.226700 -5.674900 -5.368200
H -7.280500 -4.367300 -10.217000
C -7.162500 -7.610700 -6.670300
N -6.994500 -8.307700 -5.535700
N -6.961900 -5.674000 -8.909500
H -6.836300 -9.372700 -2.473000
O -6.735800 -5.002200 -10.140600
H -6.324200 -7.973600 -3.053900
C -6.151100 -6.674000 -8.842400
C -6.121100 -7.497600 -7.599000
C -6.049900 -8.901700 -2.847400
C -5.826800 -8.903700 -5.341600
O -5.732800 -11.517600 -3.055600
N -5.666300 -10.937000 -4.135100
N -5.643900 -9.569900 -4.098400
O -5.591700 -11.488400 -5.234700
N -5.289600 -7.049200 -9.825800
H -5.241900 -6.493600 -10.470200
H -5.213900 -8.265400 -1.074600
C -4.954300 -8.869100 -1.801300
N -4.949300 -8.124400 -7.393400
H -4.816500 -9.771200 -1.443400
C -4.798300 -8.808400 -6.274800
H -4.608600 -7.459700 -9.482900
H -4.122600 -8.548700 -2.209700
H -3.674400 -10.479300 -7.829300
N -3.542300 -9.464600 -6.076500
H -3.210500 -12.107400 -6.143600
O -3.102800 -7.843800 -4.614500
C -2.979500 -10.321400 -7.142000
N -2.649200 -8.749700 -5.314000
C -2.485300 -11.654500 -6.624400
H -2.227600 -9.845500 -7.575100
H -2.195900 -12.210300 -7.377800
H -1.731500 -11.509700 -6.016000
O -1.474900 -9.096000 -5.353900
