42
Fragment
H -8.540300 -2.376900 -17.530500
O -8.086100 -2.108200 -16.876600
H -7.127500 -0.895200 -15.159400
N -6.826700 -2.752100 -16.881100
N -6.337100 -1.173500 -15.202500
C -6.047700 -2.214100 -16.003600
H -5.757800 -0.893600 -14.544600
H -4.811600 0.414100 -19.393300
C -4.693700 -2.829300 -15.846700
N -4.525600 -3.526300 -14.712100
N -4.493000 -0.892700 -18.085900
H -4.367400 -4.591400 -11.649400
O -4.266900 -0.220800 -19.317000
H -3.855300 -3.192200 -12.230300
C -3.682200 -1.892600 -18.018700
C -3.652200 -2.716200 -16.775300
C -3.581000 -4.120300 -12.023800
C -3.357900 -4.122400 -14.517900
O -3.263900 -6.736200 -12.232000
N -3.197400 -6.155700 -13.311400
N -3.175000 -4.788500 -13.274700
O -3.122800 -6.707100 -14.411000
N -2.820700 -2.267900 -19.002200
H -2.773000 -1.712200 -19.646600
H -2.745000 -3.484000 -10.250900
C -2.485400 -4.087700 -10.977700
N -2.480400 -3.343000 -16.569800
H -2.347600 -4.989900 -10.619800
C -2.329400 -4.027000 -15.451200
H -2.139700 -2.678400 -18.659200
H -1.653700 -3.767300 -11.386000
H -1.205500 -5.698000 -17.005700
N -1.073400 -4.683200 -15.252900
H -0.741600 -7.326000 -15.320000
O -0.633900 -3.062400 -13.790900
C -0.510600 -5.540100 -16.318300
N -0.180300 -3.968400 -14.490400
C -0.016400 -6.873100 -15.800800
H 0.241300 -5.064200 -16.751500
H 0.273000 -7.428900 -16.554200
H 0.737400 -6.728300 -15.192400
O 0.994000 -4.314700 -14.530200
42
Fragment
O -7.172200 -4.520000 -3.822500
H -6.915600 -2.106400 -3.160300
H -6.451200 -1.405800 -1.798600
H -6.419500 -3.770500 -1.601300
C -6.161800 -1.961600 -2.551900
N -5.997900 -4.866300 -3.862300
C -5.667600 -3.294600 -2.034400
O -5.544300 -5.772300 -4.561900
H -5.436600 -1.508700 -3.032800
N -5.104800 -4.151500 -3.099900
H -4.972700 -3.136700 -1.347100
H -4.524500 -5.067400 -6.966700
H -4.038400 -6.156300 0.306500
C -3.848800 -4.807700 -2.901600
H -3.830600 -3.844800 -7.732900
N -3.697800 -5.491700 -1.783000
C -3.692800 -4.747000 -7.375100
H -3.433200 -5.350700 -8.101800
H -3.405200 -7.122500 1.293900
N -3.357500 -6.566800 0.649400
O -3.055400 -2.127600 -3.941700
N -3.003200 -4.046200 -5.078000
N -2.980800 -2.679000 -5.041300
O -2.914300 -2.098500 -6.120700
C -2.820300 -4.712300 -3.834800
C -2.597200 -4.714400 -6.328900
C -2.526000 -6.118500 -1.577400
C -2.496000 -6.942100 -0.334000
H -2.322900 -5.642500 -6.122500
O -1.911300 -8.613900 0.964300
H -1.810800 -4.243300 -6.703300
N -1.685200 -7.942000 -0.266800
N -1.652600 -5.308400 -3.640600
C -1.484500 -6.005300 -2.506100
H -1.366600 -9.248800 1.040600
H -0.420400 -7.941100 -3.808200
C -0.130500 -6.620600 -2.349200
N 0.158900 -7.661200 -3.150200
N 0.648500 -6.082600 -1.471600
H 0.949300 -7.939500 -3.193400
O 1.907900 -6.726500 -1.476100
H 2.362100 -6.457700 -0.822200
84
Fragment
H -8.540300 -2.376900 -17.530500
O -8.086100 -2.108200 -16.876600
H -7.127500 -0.895200 -15.159400
N -6.826700 -2.752100 -16.881100
N -6.337100 -1.173500 -15.202500
C -6.047700 -2.214100 -16.003600
H -5.757800 -0.893600 -14.544600
H -4.811600 0.414100 -19.393300
C -4.693700 -2.829300 -15.846700
N -4.525600 -3.526300 -14.712100
N -4.493000 -0.892700 -18.085900
H -4.367400 -4.591400 -11.649400
O -4.266900 -0.220800 -19.317000
H -3.855300 -3.192200 -12.230300
C -3.682200 -1.892600 -18.018700
C -3.652200 -2.716200 -16.775300
C -3.581000 -4.120300 -12.023800
C -3.357900 -4.122400 -14.517900
O -3.263900 -6.736200 -12.232000
N -3.197400 -6.155700 -13.311400
N -3.175000 -4.788500 -13.274700
O -3.122800 -6.707100 -14.411000
N -2.820700 -2.267900 -19.002200
H -2.773000 -1.712200 -19.646600
H -2.745000 -3.484000 -10.250900
C -2.485400 -4.087700 -10.977700
N -2.480400 -3.343000 -16.569800
H -2.347600 -4.989900 -10.619800
C -2.329400 -4.027000 -15.451200
H -2.139700 -2.678400 -18.659200
H -1.653700 -3.767300 -11.386000
H -1.205500 -5.698000 -17.005700
N -1.073400 -4.683200 -15.252900
H -0.741600 -7.326000 -15.320000
O -0.633900 -3.062400 -13.790900
C -0.510600 -5.540100 -16.318300
N -0.180300 -3.968400 -14.490400
C -0.016400 -6.873100 -15.800800
H 0.241300 -5.064200 -16.751500
H 0.273000 -7.428900 -16.554200
H 0.737400 -6.728300 -15.192400
O 0.994000 -4.314700 -14.530200
O -7.172200 -4.520000 -3.822500
H -6.915600 -2.106400 -3.160300
H -6.451200 -1.405800 -1.798600
H -6.419500 -3.770500 -1.601300
C -6.161800 -1.961600 -2.551900
N -5.997900 -4.866300 -3.862300
C -5.667600 -3.294600 -2.034400
O -5.544300 -5.772300 -4.561900
H -5.436600 -1.508700 -3.032800
N -5.104800 -4.151500 -3.099900
H -4.972700 -3.136700 -1.347100
H -4.524500 -5.067400 -6.966700
H -4.038400 -6.156300 0.306500
C -3.848800 -4.807700 -2.901600
H -3.830600 -3.844800 -7.732900
N -3.697800 -5.491700 -1.783000
C -3.692800 -4.747000 -7.375100
H -3.433200 -5.350700 -8.101800
H -3.405200 -7.122500 1.293900
N -3.357500 -6.566800 0.649400
O -3.055400 -2.127600 -3.941700
N -3.003200 -4.046200 -5.078000
N -2.980800 -2.679000 -5.041300
O -2.914300 -2.098500 -6.120700
C -2.820300 -4.712300 -3.834800
C -2.597200 -4.714400 -6.328900
C -2.526000 -6.118500 -1.577400
C -2.496000 -6.942100 -0.334000
H -2.322900 -5.642500 -6.122500
O -1.911300 -8.613900 0.964300
H -1.810800 -4.243300 -6.703300
N -1.685200 -7.942000 -0.266800
N -1.652600 -5.308400 -3.640600
C -1.484500 -6.005300 -2.506100
H -1.366600 -9.248800 1.040600
H -0.420400 -7.941100 -3.808200
C -0.130500 -6.620600 -2.349200
N 0.158900 -7.661200 -3.150200
N 0.648500 -6.082600 -1.471600
H 0.949300 -7.939500 -3.193400
O 1.907900 -6.726500 -1.476100
H 2.362100 -6.457700 -0.822200
