42
Fragment
H -8.540300 -2.376900 -17.530500
O -8.086100 -2.108200 -16.876600
H -7.127500 -0.895200 -15.159400
N -6.826700 -2.752100 -16.881100
N -6.337100 -1.173500 -15.202500
C -6.047700 -2.214100 -16.003600
H -5.757800 -0.893600 -14.544600
H -4.811600 0.414100 -19.393300
C -4.693700 -2.829300 -15.846700
N -4.525600 -3.526300 -14.712100
N -4.493000 -0.892700 -18.085900
H -4.367400 -4.591400 -11.649400
O -4.266900 -0.220800 -19.317000
H -3.855300 -3.192200 -12.230300
C -3.682200 -1.892600 -18.018700
C -3.652200 -2.716200 -16.775300
C -3.581000 -4.120300 -12.023800
C -3.357900 -4.122400 -14.517900
O -3.263900 -6.736200 -12.232000
N -3.197400 -6.155700 -13.311400
N -3.175000 -4.788500 -13.274700
O -3.122800 -6.707100 -14.411000
N -2.820700 -2.267900 -19.002200
H -2.773000 -1.712200 -19.646600
H -2.745000 -3.484000 -10.250900
C -2.485400 -4.087700 -10.977700
N -2.480400 -3.343000 -16.569800
H -2.347600 -4.989900 -10.619800
C -2.329400 -4.027000 -15.451200
H -2.139700 -2.678400 -18.659200
H -1.653700 -3.767300 -11.386000
H -1.205500 -5.698000 -17.005700
N -1.073400 -4.683200 -15.252900
H -0.741600 -7.326000 -15.320000
O -0.633900 -3.062400 -13.790900
C -0.510600 -5.540100 -16.318300
N -0.180300 -3.968400 -14.490400
C -0.016400 -6.873100 -15.800800
H 0.241300 -5.064200 -16.751500
H 0.273000 -7.428900 -16.554200
H 0.737400 -6.728300 -15.192400
O 0.994000 -4.314700 -14.530200
42
Fragment
O -4.703300 0.261300 -12.998900
H -4.446700 2.675000 -12.336700
H -3.982300 3.375600 -10.974900
H -3.950600 1.010800 -10.777700
C -3.692900 2.819800 -11.728300
N -3.529000 -0.085000 -13.038700
C -3.198700 1.486700 -11.210800
O -3.075400 -0.990900 -13.738200
H -2.967700 3.272700 -12.209200
N -2.635900 0.629900 -12.276200
H -2.503800 1.644600 -10.523500
H -2.055600 -0.286000 -16.143100
H -1.569500 -1.375000 -8.869900
C -1.379900 -0.026300 -12.077900
H -1.361700 0.936500 -16.909300
N -1.228900 -0.710300 -10.959300
C -1.223900 0.034400 -16.551400
H -0.964300 -0.569300 -17.278200
H -0.936300 -2.341100 -7.882500
N -0.888600 -1.785500 -8.527000
O -0.586500 2.653700 -13.118100
N -0.534300 0.735200 -14.254400
N -0.511900 2.102300 -14.217700
O -0.445400 2.682900 -15.297100
C -0.351400 0.069000 -13.011200
C -0.128300 0.067000 -15.505300
C -0.057100 -1.337100 -10.753800
C -0.027100 -2.160700 -9.510400
H 0.146000 -0.861100 -15.298900
O 0.557600 -3.832500 -8.212100
H 0.658100 0.538000 -15.879700
N 0.783700 -3.160700 -9.443200
N 0.816300 -0.527000 -12.817000
C 0.984400 -1.224000 -11.682400
H 1.102300 -4.467400 -8.135800
H 2.048500 -3.159800 -12.984600
C 2.338400 -1.839300 -11.525500
N 2.627800 -2.879900 -12.326600
N 3.117400 -1.301200 -10.648000
H 3.418200 -3.158200 -12.369800
O 4.376800 -1.945200 -10.652500
H 4.831000 -1.676400 -9.998600
84
Fragment
H -8.540300 -2.376900 -17.530500
O -8.086100 -2.108200 -16.876600
H -7.127500 -0.895200 -15.159400
N -6.826700 -2.752100 -16.881100
N -6.337100 -1.173500 -15.202500
C -6.047700 -2.214100 -16.003600
H -5.757800 -0.893600 -14.544600
H -4.811600 0.414100 -19.393300
C -4.693700 -2.829300 -15.846700
N -4.525600 -3.526300 -14.712100
N -4.493000 -0.892700 -18.085900
H -4.367400 -4.591400 -11.649400
O -4.266900 -0.220800 -19.317000
H -3.855300 -3.192200 -12.230300
C -3.682200 -1.892600 -18.018700
C -3.652200 -2.716200 -16.775300
C -3.581000 -4.120300 -12.023800
C -3.357900 -4.122400 -14.517900
O -3.263900 -6.736200 -12.232000
N -3.197400 -6.155700 -13.311400
N -3.175000 -4.788500 -13.274700
O -3.122800 -6.707100 -14.411000
N -2.820700 -2.267900 -19.002200
H -2.773000 -1.712200 -19.646600
H -2.745000 -3.484000 -10.250900
C -2.485400 -4.087700 -10.977700
N -2.480400 -3.343000 -16.569800
H -2.347600 -4.989900 -10.619800
C -2.329400 -4.027000 -15.451200
H -2.139700 -2.678400 -18.659200
H -1.653700 -3.767300 -11.386000
H -1.205500 -5.698000 -17.005700
N -1.073400 -4.683200 -15.252900
H -0.741600 -7.326000 -15.320000
O -0.633900 -3.062400 -13.790900
C -0.510600 -5.540100 -16.318300
N -0.180300 -3.968400 -14.490400
C -0.016400 -6.873100 -15.800800
H 0.241300 -5.064200 -16.751500
H 0.273000 -7.428900 -16.554200
H 0.737400 -6.728300 -15.192400
O 0.994000 -4.314700 -14.530200
O -4.703300 0.261300 -12.998900
H -4.446700 2.675000 -12.336700
H -3.982300 3.375600 -10.974900
H -3.950600 1.010800 -10.777700
C -3.692900 2.819800 -11.728300
N -3.529000 -0.085000 -13.038700
C -3.198700 1.486700 -11.210800
O -3.075400 -0.990900 -13.738200
H -2.967700 3.272700 -12.209200
N -2.635900 0.629900 -12.276200
H -2.503800 1.644600 -10.523500
H -2.055600 -0.286000 -16.143100
H -1.569500 -1.375000 -8.869900
C -1.379900 -0.026300 -12.077900
H -1.361700 0.936500 -16.909300
N -1.228900 -0.710300 -10.959300
C -1.223900 0.034400 -16.551400
H -0.964300 -0.569300 -17.278200
H -0.936300 -2.341100 -7.882500
N -0.888600 -1.785500 -8.527000
O -0.586500 2.653700 -13.118100
N -0.534300 0.735200 -14.254400
N -0.511900 2.102300 -14.217700
O -0.445400 2.682900 -15.297100
C -0.351400 0.069000 -13.011200
C -0.128300 0.067000 -15.505300
C -0.057100 -1.337100 -10.753800
C -0.027100 -2.160700 -9.510400
H 0.146000 -0.861100 -15.298900
O 0.557600 -3.832500 -8.212100
H 0.658100 0.538000 -15.879700
N 0.783700 -3.160700 -9.443200
N 0.816300 -0.527000 -12.817000
C 0.984400 -1.224000 -11.682400
H 1.102300 -4.467400 -8.135800
H 2.048500 -3.159800 -12.984600
C 2.338400 -1.839300 -11.525500
N 2.627800 -2.879900 -12.326600
N 3.117400 -1.301200 -10.648000
H 3.418200 -3.158200 -12.369800
O 4.376800 -1.945200 -10.652500
H 4.831000 -1.676400 -9.998600
