42
Fragment
H -8.540300 -2.376900 -17.530500
O -8.086100 -2.108200 -16.876600
H -7.127500 -0.895200 -15.159400
N -6.826700 -2.752100 -16.881100
N -6.337100 -1.173500 -15.202500
C -6.047700 -2.214100 -16.003600
H -5.757800 -0.893600 -14.544600
H -4.811600 0.414100 -19.393300
C -4.693700 -2.829300 -15.846700
N -4.525600 -3.526300 -14.712100
N -4.493000 -0.892700 -18.085900
H -4.367400 -4.591400 -11.649400
O -4.266900 -0.220800 -19.317000
H -3.855300 -3.192200 -12.230300
C -3.682200 -1.892600 -18.018700
C -3.652200 -2.716200 -16.775300
C -3.581000 -4.120300 -12.023800
C -3.357900 -4.122400 -14.517900
O -3.263900 -6.736200 -12.232000
N -3.197400 -6.155700 -13.311400
N -3.175000 -4.788500 -13.274700
O -3.122800 -6.707100 -14.411000
N -2.820700 -2.267900 -19.002200
H -2.773000 -1.712200 -19.646600
H -2.745000 -3.484000 -10.250900
C -2.485400 -4.087700 -10.977700
N -2.480400 -3.343000 -16.569800
H -2.347600 -4.989900 -10.619800
C -2.329400 -4.027000 -15.451200
H -2.139700 -2.678400 -18.659200
H -1.653700 -3.767300 -11.386000
H -1.205500 -5.698000 -17.005700
N -1.073400 -4.683200 -15.252900
H -0.741600 -7.326000 -15.320000
O -0.633900 -3.062400 -13.790900
C -0.510600 -5.540100 -16.318300
N -0.180300 -3.968400 -14.490400
C -0.016400 -6.873100 -15.800800
H 0.241300 -5.064200 -16.751500
H 0.273000 -7.428900 -16.554200
H 0.737400 -6.728300 -15.192400
O 0.994000 -4.314700 -14.530200
42
Fragment
O -10.261300 -8.937400 -12.998900
H -10.004700 -6.523700 -12.336700
H -9.540200 -5.823100 -10.974900
H -9.508600 -8.187900 -10.777700
C -9.250900 -6.379000 -11.728300
N -9.087000 -9.283700 -13.038700
C -8.756700 -7.712000 -11.210800
O -8.633400 -10.189600 -13.738200
H -8.525700 -5.926000 -12.209200
N -8.193900 -8.568800 -12.276200
H -8.061800 -7.554100 -10.523500
H -7.613600 -9.484700 -16.143100
H -7.127500 -10.573700 -8.869900
C -6.937900 -9.225000 -12.077900
H -6.919700 -8.262200 -16.909300
N -6.786900 -9.909000 -10.959300
C -6.781900 -9.164300 -16.551400
H -6.522300 -9.768100 -17.278200
H -6.494300 -11.539800 -7.882500
N -6.446600 -10.984200 -8.527000
O -6.144500 -6.545000 -13.118100
N -6.092300 -8.463500 -14.254400
N -6.069900 -7.096400 -14.217700
O -6.003400 -6.515800 -15.297100
C -5.909400 -9.129700 -13.011200
C -5.686300 -9.131700 -15.505300
C -5.615100 -10.535900 -10.753800
C -5.585100 -11.359400 -9.510400
H -5.412000 -10.059800 -15.298900
O -5.000400 -13.031200 -8.212100
H -4.899900 -8.660700 -15.879700
N -4.774300 -12.359400 -9.443200
N -4.741700 -9.725700 -12.817000
C -4.573600 -10.422700 -11.682400
H -4.455700 -13.666100 -8.135800
H -3.509500 -12.358500 -12.984600
C -3.219600 -11.038000 -11.525500
N -2.930200 -12.078600 -12.326600
N -2.440600 -10.499900 -10.648000
H -2.139800 -12.356900 -12.369800
O -1.181200 -11.143900 -10.652500
H -0.727000 -10.875100 -9.998600
84
Fragment
H -8.540300 -2.376900 -17.530500
O -8.086100 -2.108200 -16.876600
H -7.127500 -0.895200 -15.159400
N -6.826700 -2.752100 -16.881100
N -6.337100 -1.173500 -15.202500
C -6.047700 -2.214100 -16.003600
H -5.757800 -0.893600 -14.544600
H -4.811600 0.414100 -19.393300
C -4.693700 -2.829300 -15.846700
N -4.525600 -3.526300 -14.712100
N -4.493000 -0.892700 -18.085900
H -4.367400 -4.591400 -11.649400
O -4.266900 -0.220800 -19.317000
H -3.855300 -3.192200 -12.230300
C -3.682200 -1.892600 -18.018700
C -3.652200 -2.716200 -16.775300
C -3.581000 -4.120300 -12.023800
C -3.357900 -4.122400 -14.517900
O -3.263900 -6.736200 -12.232000
N -3.197400 -6.155700 -13.311400
N -3.175000 -4.788500 -13.274700
O -3.122800 -6.707100 -14.411000
N -2.820700 -2.267900 -19.002200
H -2.773000 -1.712200 -19.646600
H -2.745000 -3.484000 -10.250900
C -2.485400 -4.087700 -10.977700
N -2.480400 -3.343000 -16.569800
H -2.347600 -4.989900 -10.619800
C -2.329400 -4.027000 -15.451200
H -2.139700 -2.678400 -18.659200
H -1.653700 -3.767300 -11.386000
H -1.205500 -5.698000 -17.005700
N -1.073400 -4.683200 -15.252900
H -0.741600 -7.326000 -15.320000
O -0.633900 -3.062400 -13.790900
C -0.510600 -5.540100 -16.318300
N -0.180300 -3.968400 -14.490400
C -0.016400 -6.873100 -15.800800
H 0.241300 -5.064200 -16.751500
H 0.273000 -7.428900 -16.554200
H 0.737400 -6.728300 -15.192400
O 0.994000 -4.314700 -14.530200
O -10.261300 -8.937400 -12.998900
H -10.004700 -6.523700 -12.336700
H -9.540200 -5.823100 -10.974900
H -9.508600 -8.187900 -10.777700
C -9.250900 -6.379000 -11.728300
N -9.087000 -9.283700 -13.038700
C -8.756700 -7.712000 -11.210800
O -8.633400 -10.189600 -13.738200
H -8.525700 -5.926000 -12.209200
N -8.193900 -8.568800 -12.276200
H -8.061800 -7.554100 -10.523500
H -7.613600 -9.484700 -16.143100
H -7.127500 -10.573700 -8.869900
C -6.937900 -9.225000 -12.077900
H -6.919700 -8.262200 -16.909300
N -6.786900 -9.909000 -10.959300
C -6.781900 -9.164300 -16.551400
H -6.522300 -9.768100 -17.278200
H -6.494300 -11.539800 -7.882500
N -6.446600 -10.984200 -8.527000
O -6.144500 -6.545000 -13.118100
N -6.092300 -8.463500 -14.254400
N -6.069900 -7.096400 -14.217700
O -6.003400 -6.515800 -15.297100
C -5.909400 -9.129700 -13.011200
C -5.686300 -9.131700 -15.505300
C -5.615100 -10.535900 -10.753800
C -5.585100 -11.359400 -9.510400
H -5.412000 -10.059800 -15.298900
O -5.000400 -13.031200 -8.212100
H -4.899900 -8.660700 -15.879700
N -4.774300 -12.359400 -9.443200
N -4.741700 -9.725700 -12.817000
C -4.573600 -10.422700 -11.682400
H -4.455700 -13.666100 -8.135800
H -3.509500 -12.358500 -12.984600
C -3.219600 -11.038000 -11.525500
N -2.930200 -12.078600 -12.326600
N -2.440600 -10.499900 -10.648000
H -2.139800 -12.356900 -12.369800
O -1.181200 -11.143900 -10.652500
H -0.727000 -10.875100 -9.998600
