42
Fragment
H -8.540300 -2.376900 -17.530500
O -8.086100 -2.108200 -16.876600
H -7.127500 -0.895200 -15.159400
N -6.826700 -2.752100 -16.881100
N -6.337100 -1.173500 -15.202500
C -6.047700 -2.214100 -16.003600
H -5.757800 -0.893600 -14.544600
H -4.811600 0.414100 -19.393300
C -4.693700 -2.829300 -15.846700
N -4.525600 -3.526300 -14.712100
N -4.493000 -0.892700 -18.085900
H -4.367400 -4.591400 -11.649400
O -4.266900 -0.220800 -19.317000
H -3.855300 -3.192200 -12.230300
C -3.682200 -1.892600 -18.018700
C -3.652200 -2.716200 -16.775300
C -3.581000 -4.120300 -12.023800
C -3.357900 -4.122400 -14.517900
O -3.263900 -6.736200 -12.232000
N -3.197400 -6.155700 -13.311400
N -3.175000 -4.788500 -13.274700
O -3.122800 -6.707100 -14.411000
N -2.820700 -2.267900 -19.002200
H -2.773000 -1.712200 -19.646600
H -2.745000 -3.484000 -10.250900
C -2.485400 -4.087700 -10.977700
N -2.480400 -3.343000 -16.569800
H -2.347600 -4.989900 -10.619800
C -2.329400 -4.027000 -15.451200
H -2.139700 -2.678400 -18.659200
H -1.653700 -3.767300 -11.386000
H -1.205500 -5.698000 -17.005700
N -1.073400 -4.683200 -15.252900
H -0.741600 -7.326000 -15.320000
O -0.633900 -3.062400 -13.790900
C -0.510600 -5.540100 -16.318300
N -0.180300 -3.968400 -14.490400
C -0.016400 -6.873100 -15.800800
H 0.241300 -5.064200 -16.751500
H 0.273000 -7.428900 -16.554200
H 0.737400 -6.728300 -15.192400
O 0.994000 -4.314700 -14.530200
42
Fragment
O -11.878700 5.042700 -22.175300
H -11.622100 7.456400 -21.513100
H -11.157700 8.157000 -20.151300
H -11.126000 5.792200 -19.954000
C -10.868300 7.601100 -20.904700
N -10.704400 4.696400 -22.215100
C -10.374100 6.268100 -20.387100
O -10.250800 3.790500 -22.914600
H -10.143100 8.054100 -21.385500
N -9.811300 5.411300 -21.452600
H -9.679200 6.426000 -19.699800
H -9.231000 4.495400 -25.319500
H -8.744900 3.406400 -18.046300
C -8.555300 4.755100 -21.254300
H -8.537100 5.717900 -26.085700
N -8.404300 4.071100 -20.135700
C -8.399300 4.815800 -25.727800
H -8.139700 4.212000 -26.454600
H -8.111700 2.440300 -17.058900
N -8.064000 2.995900 -17.703300
O -7.761900 7.435100 -22.294500
N -7.709700 5.516600 -23.430800
N -7.687300 6.883700 -23.394100
O -7.620800 7.464300 -24.473500
C -7.526800 4.850400 -22.187600
C -7.303700 4.848400 -24.681700
C -7.232500 3.444200 -19.930200
C -7.202500 2.620700 -18.686800
H -7.029400 3.920300 -24.475200
O -6.617800 0.948900 -17.388500
H -6.517300 5.319400 -25.056100
N -6.391700 1.620700 -18.619600
N -6.359100 4.254300 -21.993400
C -6.191000 3.557400 -20.858800
H -6.073100 0.313900 -17.312100
H -5.126900 1.621600 -22.160900
C -4.837000 2.942100 -20.701900
N -4.547600 1.901500 -21.503000
N -4.058000 3.480200 -19.824400
H -3.757200 1.623200 -21.546100
O -2.798600 2.836200 -19.828900
H -2.344400 3.105000 -19.175000
84
Fragment
H -8.540300 -2.376900 -17.530500
O -8.086100 -2.108200 -16.876600
H -7.127500 -0.895200 -15.159400
N -6.826700 -2.752100 -16.881100
N -6.337100 -1.173500 -15.202500
C -6.047700 -2.214100 -16.003600
H -5.757800 -0.893600 -14.544600
H -4.811600 0.414100 -19.393300
C -4.693700 -2.829300 -15.846700
N -4.525600 -3.526300 -14.712100
N -4.493000 -0.892700 -18.085900
H -4.367400 -4.591400 -11.649400
O -4.266900 -0.220800 -19.317000
H -3.855300 -3.192200 -12.230300
C -3.682200 -1.892600 -18.018700
C -3.652200 -2.716200 -16.775300
C -3.581000 -4.120300 -12.023800
C -3.357900 -4.122400 -14.517900
O -3.263900 -6.736200 -12.232000
N -3.197400 -6.155700 -13.311400
N -3.175000 -4.788500 -13.274700
O -3.122800 -6.707100 -14.411000
N -2.820700 -2.267900 -19.002200
H -2.773000 -1.712200 -19.646600
H -2.745000 -3.484000 -10.250900
C -2.485400 -4.087700 -10.977700
N -2.480400 -3.343000 -16.569800
H -2.347600 -4.989900 -10.619800
C -2.329400 -4.027000 -15.451200
H -2.139700 -2.678400 -18.659200
H -1.653700 -3.767300 -11.386000
H -1.205500 -5.698000 -17.005700
N -1.073400 -4.683200 -15.252900
H -0.741600 -7.326000 -15.320000
O -0.633900 -3.062400 -13.790900
C -0.510600 -5.540100 -16.318300
N -0.180300 -3.968400 -14.490400
C -0.016400 -6.873100 -15.800800
H 0.241300 -5.064200 -16.751500
H 0.273000 -7.428900 -16.554200
H 0.737400 -6.728300 -15.192400
O 0.994000 -4.314700 -14.530200
O -11.878700 5.042700 -22.175300
H -11.622100 7.456400 -21.513100
H -11.157700 8.157000 -20.151300
H -11.126000 5.792200 -19.954000
C -10.868300 7.601100 -20.904700
N -10.704400 4.696400 -22.215100
C -10.374100 6.268100 -20.387100
O -10.250800 3.790500 -22.914600
H -10.143100 8.054100 -21.385500
N -9.811300 5.411300 -21.452600
H -9.679200 6.426000 -19.699800
H -9.231000 4.495400 -25.319500
H -8.744900 3.406400 -18.046300
C -8.555300 4.755100 -21.254300
H -8.537100 5.717900 -26.085700
N -8.404300 4.071100 -20.135700
C -8.399300 4.815800 -25.727800
H -8.139700 4.212000 -26.454600
H -8.111700 2.440300 -17.058900
N -8.064000 2.995900 -17.703300
O -7.761900 7.435100 -22.294500
N -7.709700 5.516600 -23.430800
N -7.687300 6.883700 -23.394100
O -7.620800 7.464300 -24.473500
C -7.526800 4.850400 -22.187600
C -7.303700 4.848400 -24.681700
C -7.232500 3.444200 -19.930200
C -7.202500 2.620700 -18.686800
H -7.029400 3.920300 -24.475200
O -6.617800 0.948900 -17.388500
H -6.517300 5.319400 -25.056100
N -6.391700 1.620700 -18.619600
N -6.359100 4.254300 -21.993400
C -6.191000 3.557400 -20.858800
H -6.073100 0.313900 -17.312100
H -5.126900 1.621600 -22.160900
C -4.837000 2.942100 -20.701900
N -4.547600 1.901500 -21.503000
N -4.058000 3.480200 -19.824400
H -3.757200 1.623200 -21.546100
O -2.798600 2.836200 -19.828900
H -2.344400 3.105000 -19.175000
