42
Fragment
H -8.540300 -2.376900 -17.530500
O -8.086100 -2.108200 -16.876600
H -7.127500 -0.895200 -15.159400
N -6.826700 -2.752100 -16.881100
N -6.337100 -1.173500 -15.202500
C -6.047700 -2.214100 -16.003600
H -5.757800 -0.893600 -14.544600
H -4.811600 0.414100 -19.393300
C -4.693700 -2.829300 -15.846700
N -4.525600 -3.526300 -14.712100
N -4.493000 -0.892700 -18.085900
H -4.367400 -4.591400 -11.649400
O -4.266900 -0.220800 -19.317000
H -3.855300 -3.192200 -12.230300
C -3.682200 -1.892600 -18.018700
C -3.652200 -2.716200 -16.775300
C -3.581000 -4.120300 -12.023800
C -3.357900 -4.122400 -14.517900
O -3.263900 -6.736200 -12.232000
N -3.197400 -6.155700 -13.311400
N -3.175000 -4.788500 -13.274700
O -3.122800 -6.707100 -14.411000
N -2.820700 -2.267900 -19.002200
H -2.773000 -1.712200 -19.646600
H -2.745000 -3.484000 -10.250900
C -2.485400 -4.087700 -10.977700
N -2.480400 -3.343000 -16.569800
H -2.347600 -4.989900 -10.619800
C -2.329400 -4.027000 -15.451200
H -2.139700 -2.678400 -18.659200
H -1.653700 -3.767300 -11.386000
H -1.205500 -5.698000 -17.005700
N -1.073400 -4.683200 -15.252900
H -0.741600 -7.326000 -15.320000
O -0.633900 -3.062400 -13.790900
C -0.510600 -5.540100 -16.318300
N -0.180300 -3.968400 -14.490400
C -0.016400 -6.873100 -15.800800
H 0.241300 -5.064200 -16.751500
H 0.273000 -7.428900 -16.554200
H 0.737400 -6.728300 -15.192400
O 0.994000 -4.314700 -14.530200
42
Fragment
O -7.792400 -4.156000 -22.175300
H -7.535800 -1.742400 -21.513100
H -7.071300 -1.041700 -20.151300
H -7.039700 -3.406500 -19.954000
C -6.782000 -1.597600 -20.904700
N -6.618100 -4.502300 -22.215100
C -6.287800 -2.930600 -20.387100
O -6.164500 -5.408300 -22.914600
H -6.056800 -1.144700 -21.385500
N -5.725000 -3.787500 -21.452600
H -5.592900 -2.772700 -19.699800
H -5.144700 -4.703400 -25.319500
H -4.658600 -5.792300 -18.046300
C -4.469000 -4.443600 -21.254300
H -4.450800 -3.480800 -26.085700
N -4.318000 -5.127700 -20.135700
C -4.313000 -4.383000 -25.727800
H -4.053400 -4.986700 -26.454600
H -4.025400 -6.758500 -17.058900
N -3.977700 -6.202800 -17.703300
O -3.675600 -1.763600 -22.294500
N -3.623400 -3.682100 -23.430800
N -3.601000 -2.315000 -23.394100
O -3.534500 -1.734500 -24.473500
C -3.440500 -4.348300 -22.187600
C -3.217400 -4.350400 -24.681700
C -3.146200 -5.754500 -19.930200
C -3.116200 -6.578100 -18.686800
H -2.943100 -5.278500 -24.475200
O -2.531500 -8.249800 -17.388500
H -2.431000 -3.879300 -25.056100
N -2.305400 -7.578000 -18.619600
N -2.272800 -4.944400 -21.993400
C -2.104700 -5.641300 -20.858800
H -1.986800 -8.884800 -17.312100
H -1.040600 -7.577100 -22.160900
C -0.750700 -6.256600 -20.701900
N -0.461300 -7.297200 -21.503000
N 0.028300 -5.718600 -19.824400
H 0.329100 -7.575500 -21.546100
O 1.287700 -6.362500 -19.828900
H 1.741900 -6.093700 -19.175000
84
Fragment
H -8.540300 -2.376900 -17.530500
O -8.086100 -2.108200 -16.876600
H -7.127500 -0.895200 -15.159400
N -6.826700 -2.752100 -16.881100
N -6.337100 -1.173500 -15.202500
C -6.047700 -2.214100 -16.003600
H -5.757800 -0.893600 -14.544600
H -4.811600 0.414100 -19.393300
C -4.693700 -2.829300 -15.846700
N -4.525600 -3.526300 -14.712100
N -4.493000 -0.892700 -18.085900
H -4.367400 -4.591400 -11.649400
O -4.266900 -0.220800 -19.317000
H -3.855300 -3.192200 -12.230300
C -3.682200 -1.892600 -18.018700
C -3.652200 -2.716200 -16.775300
C -3.581000 -4.120300 -12.023800
C -3.357900 -4.122400 -14.517900
O -3.263900 -6.736200 -12.232000
N -3.197400 -6.155700 -13.311400
N -3.175000 -4.788500 -13.274700
O -3.122800 -6.707100 -14.411000
N -2.820700 -2.267900 -19.002200
H -2.773000 -1.712200 -19.646600
H -2.745000 -3.484000 -10.250900
C -2.485400 -4.087700 -10.977700
N -2.480400 -3.343000 -16.569800
H -2.347600 -4.989900 -10.619800
C -2.329400 -4.027000 -15.451200
H -2.139700 -2.678400 -18.659200
H -1.653700 -3.767300 -11.386000
H -1.205500 -5.698000 -17.005700
N -1.073400 -4.683200 -15.252900
H -0.741600 -7.326000 -15.320000
O -0.633900 -3.062400 -13.790900
C -0.510600 -5.540100 -16.318300
N -0.180300 -3.968400 -14.490400
C -0.016400 -6.873100 -15.800800
H 0.241300 -5.064200 -16.751500
H 0.273000 -7.428900 -16.554200
H 0.737400 -6.728300 -15.192400
O 0.994000 -4.314700 -14.530200
O -7.792400 -4.156000 -22.175300
H -7.535800 -1.742400 -21.513100
H -7.071300 -1.041700 -20.151300
H -7.039700 -3.406500 -19.954000
C -6.782000 -1.597600 -20.904700
N -6.618100 -4.502300 -22.215100
C -6.287800 -2.930600 -20.387100
O -6.164500 -5.408300 -22.914600
H -6.056800 -1.144700 -21.385500
N -5.725000 -3.787500 -21.452600
H -5.592900 -2.772700 -19.699800
H -5.144700 -4.703400 -25.319500
H -4.658600 -5.792300 -18.046300
C -4.469000 -4.443600 -21.254300
H -4.450800 -3.480800 -26.085700
N -4.318000 -5.127700 -20.135700
C -4.313000 -4.383000 -25.727800
H -4.053400 -4.986700 -26.454600
H -4.025400 -6.758500 -17.058900
N -3.977700 -6.202800 -17.703300
O -3.675600 -1.763600 -22.294500
N -3.623400 -3.682100 -23.430800
N -3.601000 -2.315000 -23.394100
O -3.534500 -1.734500 -24.473500
C -3.440500 -4.348300 -22.187600
C -3.217400 -4.350400 -24.681700
C -3.146200 -5.754500 -19.930200
C -3.116200 -6.578100 -18.686800
H -2.943100 -5.278500 -24.475200
O -2.531500 -8.249800 -17.388500
H -2.431000 -3.879300 -25.056100
N -2.305400 -7.578000 -18.619600
N -2.272800 -4.944400 -21.993400
C -2.104700 -5.641300 -20.858800
H -1.986800 -8.884800 -17.312100
H -1.040600 -7.577100 -22.160900
C -0.750700 -6.256600 -20.701900
N -0.461300 -7.297200 -21.503000
N 0.028300 -5.718600 -19.824400
H 0.329100 -7.575500 -21.546100
O 1.287700 -6.362500 -19.828900
H 1.741900 -6.093700 -19.175000
