42
Fragment
H -8.540300 -2.376900 -17.530500
O -8.086100 -2.108200 -16.876600
H -7.127500 -0.895200 -15.159400
N -6.826700 -2.752100 -16.881100
N -6.337100 -1.173500 -15.202500
C -6.047700 -2.214100 -16.003600
H -5.757800 -0.893600 -14.544600
H -4.811600 0.414100 -19.393300
C -4.693700 -2.829300 -15.846700
N -4.525600 -3.526300 -14.712100
N -4.493000 -0.892700 -18.085900
H -4.367400 -4.591400 -11.649400
O -4.266900 -0.220800 -19.317000
H -3.855300 -3.192200 -12.230300
C -3.682200 -1.892600 -18.018700
C -3.652200 -2.716200 -16.775300
C -3.581000 -4.120300 -12.023800
C -3.357900 -4.122400 -14.517900
O -3.263900 -6.736200 -12.232000
N -3.197400 -6.155700 -13.311400
N -3.175000 -4.788500 -13.274700
O -3.122800 -6.707100 -14.411000
N -2.820700 -2.267900 -19.002200
H -2.773000 -1.712200 -19.646600
H -2.745000 -3.484000 -10.250900
C -2.485400 -4.087700 -10.977700
N -2.480400 -3.343000 -16.569800
H -2.347600 -4.989900 -10.619800
C -2.329400 -4.027000 -15.451200
H -2.139700 -2.678400 -18.659200
H -1.653700 -3.767300 -11.386000
H -1.205500 -5.698000 -17.005700
N -1.073400 -4.683200 -15.252900
H -0.741600 -7.326000 -15.320000
O -0.633900 -3.062400 -13.790900
C -0.510600 -5.540100 -16.318300
N -0.180300 -3.968400 -14.490400
C -0.016400 -6.873100 -15.800800
H 0.241300 -5.064200 -16.751500
H 0.273000 -7.428900 -16.554200
H 0.737400 -6.728300 -15.192400
O 0.994000 -4.314700 -14.530200
3
Fragment
H 0.033200 -4.062600 -19.178600
H 0.093800 -2.715200 -19.628300
O 0.112400 -3.134000 -18.939400
45
Fragment
H -8.540300 -2.376900 -17.530500
O -8.086100 -2.108200 -16.876600
H -7.127500 -0.895200 -15.159400
N -6.826700 -2.752100 -16.881100
N -6.337100 -1.173500 -15.202500
C -6.047700 -2.214100 -16.003600
H -5.757800 -0.893600 -14.544600
H -4.811600 0.414100 -19.393300
C -4.693700 -2.829300 -15.846700
N -4.525600 -3.526300 -14.712100
N -4.493000 -0.892700 -18.085900
H -4.367400 -4.591400 -11.649400
O -4.266900 -0.220800 -19.317000
H -3.855300 -3.192200 -12.230300
C -3.682200 -1.892600 -18.018700
C -3.652200 -2.716200 -16.775300
C -3.581000 -4.120300 -12.023800
C -3.357900 -4.122400 -14.517900
O -3.263900 -6.736200 -12.232000
N -3.197400 -6.155700 -13.311400
N -3.175000 -4.788500 -13.274700
O -3.122800 -6.707100 -14.411000
N -2.820700 -2.267900 -19.002200
H -2.773000 -1.712200 -19.646600
H -2.745000 -3.484000 -10.250900
C -2.485400 -4.087700 -10.977700
N -2.480400 -3.343000 -16.569800
H -2.347600 -4.989900 -10.619800
C -2.329400 -4.027000 -15.451200
H -2.139700 -2.678400 -18.659200
H -1.653700 -3.767300 -11.386000
H -1.205500 -5.698000 -17.005700
N -1.073400 -4.683200 -15.252900
H -0.741600 -7.326000 -15.320000
O -0.633900 -3.062400 -13.790900
C -0.510600 -5.540100 -16.318300
N -0.180300 -3.968400 -14.490400
C -0.016400 -6.873100 -15.800800
H 0.241300 -5.064200 -16.751500
H 0.273000 -7.428900 -16.554200
H 0.737400 -6.728300 -15.192400
O 0.994000 -4.314700 -14.530200
H 0.033200 -4.062600 -19.178600
H 0.093800 -2.715200 -19.628300
O 0.112400 -3.134000 -18.939400
