42
Fragment
H -8.540300 -2.376900 -17.530500
O -8.086100 -2.108200 -16.876600
H -7.127500 -0.895200 -15.159400
N -6.826700 -2.752100 -16.881100
N -6.337100 -1.173500 -15.202500
C -6.047700 -2.214100 -16.003600
H -5.757800 -0.893600 -14.544600
H -4.811600 0.414100 -19.393300
C -4.693700 -2.829300 -15.846700
N -4.525600 -3.526300 -14.712100
N -4.493000 -0.892700 -18.085900
H -4.367400 -4.591400 -11.649400
O -4.266900 -0.220800 -19.317000
H -3.855300 -3.192200 -12.230300
C -3.682200 -1.892600 -18.018700
C -3.652200 -2.716200 -16.775300
C -3.581000 -4.120300 -12.023800
C -3.357900 -4.122400 -14.517900
O -3.263900 -6.736200 -12.232000
N -3.197400 -6.155700 -13.311400
N -3.175000 -4.788500 -13.274700
O -3.122800 -6.707100 -14.411000
N -2.820700 -2.267900 -19.002200
H -2.773000 -1.712200 -19.646600
H -2.745000 -3.484000 -10.250900
C -2.485400 -4.087700 -10.977700
N -2.480400 -3.343000 -16.569800
H -2.347600 -4.989900 -10.619800
C -2.329400 -4.027000 -15.451200
H -2.139700 -2.678400 -18.659200
H -1.653700 -3.767300 -11.386000
H -1.205500 -5.698000 -17.005700
N -1.073400 -4.683200 -15.252900
H -0.741600 -7.326000 -15.320000
O -0.633900 -3.062400 -13.790900
C -0.510600 -5.540100 -16.318300
N -0.180300 -3.968400 -14.490400
C -0.016400 -6.873100 -15.800800
H 0.241300 -5.064200 -16.751500
H 0.273000 -7.428900 -16.554200
H 0.737400 -6.728300 -15.192400
O 0.994000 -4.314700 -14.530200
42
Fragment
H -12.626600 6.821800 -17.530500
O -12.172400 7.090600 -16.876600
H -11.213800 8.303600 -15.159400
N -10.913000 6.446600 -16.881100
N -10.423400 8.025200 -15.202500
C -10.134000 6.984700 -16.003600
H -9.844100 8.305200 -14.544600
H -8.897900 9.612800 -19.393300
C -8.780000 6.369400 -15.846700
N -8.611900 5.672400 -14.712100
N -8.579300 8.306100 -18.085900
H -8.453700 4.607400 -11.649400
O -8.353200 8.977900 -19.317000
H -7.941600 6.006500 -12.230300
C -7.768500 7.306100 -18.018700
C -7.738500 6.482500 -16.775300
C -7.667300 5.078400 -12.023800
C -7.444200 5.076400 -14.517900
O -7.350200 2.462500 -12.232000
N -7.283700 3.043100 -13.311400
N -7.261300 4.410200 -13.274700
O -7.209100 2.491600 -14.411000
N -6.907000 6.930800 -19.002200
H -6.859300 7.486500 -19.646600
H -6.831300 5.714700 -10.250900
C -6.571700 5.111000 -10.977700
N -6.566700 5.855700 -16.569800
H -6.433900 4.208900 -10.619800
C -6.415700 5.171700 -15.451200
H -6.226000 6.520400 -18.659200
H -5.740000 5.431400 -11.386000
H -5.291800 3.500700 -17.005700
N -5.159700 4.515500 -15.252900
H -4.827900 1.872700 -15.320000
O -4.720200 6.136300 -13.790900
C -4.596900 3.658700 -16.318300
N -4.266600 5.230300 -14.490400
C -4.102700 2.325600 -15.800800
H -3.845000 4.134500 -16.751500
H -3.813300 1.769800 -16.554200
H -3.348900 2.470400 -15.192400
O -3.092300 4.884100 -14.530200
84
Fragment
H -8.540300 -2.376900 -17.530500
O -8.086100 -2.108200 -16.876600
H -7.127500 -0.895200 -15.159400
N -6.826700 -2.752100 -16.881100
N -6.337100 -1.173500 -15.202500
C -6.047700 -2.214100 -16.003600
H -5.757800 -0.893600 -14.544600
H -4.811600 0.414100 -19.393300
C -4.693700 -2.829300 -15.846700
N -4.525600 -3.526300 -14.712100
N -4.493000 -0.892700 -18.085900
H -4.367400 -4.591400 -11.649400
O -4.266900 -0.220800 -19.317000
H -3.855300 -3.192200 -12.230300
C -3.682200 -1.892600 -18.018700
C -3.652200 -2.716200 -16.775300
C -3.581000 -4.120300 -12.023800
C -3.357900 -4.122400 -14.517900
O -3.263900 -6.736200 -12.232000
N -3.197400 -6.155700 -13.311400
N -3.175000 -4.788500 -13.274700
O -3.122800 -6.707100 -14.411000
N -2.820700 -2.267900 -19.002200
H -2.773000 -1.712200 -19.646600
H -2.745000 -3.484000 -10.250900
C -2.485400 -4.087700 -10.977700
N -2.480400 -3.343000 -16.569800
H -2.347600 -4.989900 -10.619800
C -2.329400 -4.027000 -15.451200
H -2.139700 -2.678400 -18.659200
H -1.653700 -3.767300 -11.386000
H -1.205500 -5.698000 -17.005700
N -1.073400 -4.683200 -15.252900
H -0.741600 -7.326000 -15.320000
O -0.633900 -3.062400 -13.790900
C -0.510600 -5.540100 -16.318300
N -0.180300 -3.968400 -14.490400
C -0.016400 -6.873100 -15.800800
H 0.241300 -5.064200 -16.751500
H 0.273000 -7.428900 -16.554200
H 0.737400 -6.728300 -15.192400
O 0.994000 -4.314700 -14.530200
H -12.626600 6.821800 -17.530500
O -12.172400 7.090600 -16.876600
H -11.213800 8.303600 -15.159400
N -10.913000 6.446600 -16.881100
N -10.423400 8.025200 -15.202500
C -10.134000 6.984700 -16.003600
H -9.844100 8.305200 -14.544600
H -8.897900 9.612800 -19.393300
C -8.780000 6.369400 -15.846700
N -8.611900 5.672400 -14.712100
N -8.579300 8.306100 -18.085900
H -8.453700 4.607400 -11.649400
O -8.353200 8.977900 -19.317000
H -7.941600 6.006500 -12.230300
C -7.768500 7.306100 -18.018700
C -7.738500 6.482500 -16.775300
C -7.667300 5.078400 -12.023800
C -7.444200 5.076400 -14.517900
O -7.350200 2.462500 -12.232000
N -7.283700 3.043100 -13.311400
N -7.261300 4.410200 -13.274700
O -7.209100 2.491600 -14.411000
N -6.907000 6.930800 -19.002200
H -6.859300 7.486500 -19.646600
H -6.831300 5.714700 -10.250900
C -6.571700 5.111000 -10.977700
N -6.566700 5.855700 -16.569800
H -6.433900 4.208900 -10.619800
C -6.415700 5.171700 -15.451200
H -6.226000 6.520400 -18.659200
H -5.740000 5.431400 -11.386000
H -5.291800 3.500700 -17.005700
N -5.159700 4.515500 -15.252900
H -4.827900 1.872700 -15.320000
O -4.720200 6.136300 -13.790900
C -4.596900 3.658700 -16.318300
N -4.266600 5.230300 -14.490400
C -4.102700 2.325600 -15.800800
H -3.845000 4.134500 -16.751500
H -3.813300 1.769800 -16.554200
H -3.348900 2.470400 -15.192400
O -3.092300 4.884100 -14.530200
