34
Fragment
F -13.254800 -14.434700 -18.834700
H -13.157000 -16.686600 -18.981300
H -12.574400 -15.879800 -16.756600
H -12.501700 -18.026300 -18.496200
H -12.440600 -12.205300 -19.654500
C -12.335800 -17.202900 -18.982300
N -12.062900 -16.586800 -21.344000
N -11.973800 -17.523000 -20.356000
C -11.962400 -14.087200 -19.080600
C -11.740400 -12.798300 -19.503800
H -11.702600 -17.125500 -16.366300
C -11.679500 -16.252400 -16.788000
C -11.607500 -17.247600 -22.386400
H -11.539500 -16.859400 -23.228500
C -11.491300 -18.659800 -20.851400
H -11.347400 -19.434100 -20.356000
N -11.243700 -18.536300 -22.148600
C -11.235300 -16.403100 -18.259300
N -11.047600 -14.058100 -15.924900
C -10.958200 -15.021200 -18.857600
N -10.769700 -15.386500 -16.057400
C -10.429600 -12.433400 -19.691400
F -10.166400 -11.156200 -20.081800
O -10.056800 -17.182200 -18.182200
C -9.964200 -13.598400 -15.343000
H -9.857600 -12.703200 -15.114600
H -9.723100 -17.247100 -18.929000
C -9.660600 -14.580900 -19.076800
C -9.554500 -15.649500 -15.573100
C -9.381000 -13.282900 -19.490000
H -9.150100 -16.487300 -15.567200
N -9.012900 -14.537300 -15.102700
H -8.955500 -15.172600 -18.943100
H -8.504700 -13.002200 -19.624800
34
Fragment
H -11.178800 -23.680600 -22.804200
H -10.727900 -21.510200 -23.485900
N -10.670500 -22.145500 -27.326300
H -10.533400 -20.195500 -26.861800
C -10.302500 -23.399900 -22.939000
C -10.129000 -21.033300 -26.855900
C -10.022900 -22.102000 -23.352200
H -9.960300 -19.435700 -23.500000
H -9.825800 -23.979600 -27.314400
C -9.719300 -23.084400 -27.086000
O -9.626600 -19.500600 -24.246800
F -9.517000 -25.526600 -22.347200
C -9.253900 -24.249400 -22.737600
N -8.913800 -21.296300 -26.371600
C -8.725200 -21.661600 -23.571400
N -8.635800 -22.624700 -26.504100
C -8.448200 -20.279700 -24.169700
N -8.439800 -18.146500 -20.280400
H -8.336000 -17.248700 -22.073000
C -8.192100 -18.023000 -21.577500
H -8.143900 -19.823400 -19.200500
C -8.076000 -19.435200 -20.042600
C -8.004000 -20.430400 -25.641000
H -7.980900 -19.557300 -26.062700
C -7.943000 -23.884500 -22.925200
C -7.721000 -22.595600 -23.348400
N -7.709700 -19.159800 -22.073000
N -7.620600 -20.096000 -21.084900
C -7.347600 -19.479900 -23.446700
H -7.242800 -24.477600 -22.774500
H -7.181800 -18.656500 -23.932800
H -7.109000 -20.803000 -25.672400
H -6.526500 -19.996200 -23.447700
F -6.428700 -22.248100 -23.594300
68
Fragment
F -13.254800 -14.434700 -18.834700
H -13.157000 -16.686600 -18.981300
H -12.574400 -15.879800 -16.756600
H -12.501700 -18.026300 -18.496200
H -12.440600 -12.205300 -19.654500
C -12.335800 -17.202900 -18.982300
N -12.062900 -16.586800 -21.344000
N -11.973800 -17.523000 -20.356000
C -11.962400 -14.087200 -19.080600
C -11.740400 -12.798300 -19.503800
H -11.702600 -17.125500 -16.366300
C -11.679500 -16.252400 -16.788000
C -11.607500 -17.247600 -22.386400
H -11.539500 -16.859400 -23.228500
C -11.491300 -18.659800 -20.851400
H -11.347400 -19.434100 -20.356000
N -11.243700 -18.536300 -22.148600
C -11.235300 -16.403100 -18.259300
N -11.047600 -14.058100 -15.924900
C -10.958200 -15.021200 -18.857600
N -10.769700 -15.386500 -16.057400
C -10.429600 -12.433400 -19.691400
F -10.166400 -11.156200 -20.081800
O -10.056800 -17.182200 -18.182200
C -9.964200 -13.598400 -15.343000
H -9.857600 -12.703200 -15.114600
H -9.723100 -17.247100 -18.929000
C -9.660600 -14.580900 -19.076800
C -9.554500 -15.649500 -15.573100
C -9.381000 -13.282900 -19.490000
H -9.150100 -16.487300 -15.567200
N -9.012900 -14.537300 -15.102700
H -8.955500 -15.172600 -18.943100
H -8.504700 -13.002200 -19.624800
H -11.178800 -23.680600 -22.804200
H -10.727900 -21.510200 -23.485900
N -10.670500 -22.145500 -27.326300
H -10.533400 -20.195500 -26.861800
C -10.302500 -23.399900 -22.939000
C -10.129000 -21.033300 -26.855900
C -10.022900 -22.102000 -23.352200
H -9.960300 -19.435700 -23.500000
H -9.825800 -23.979600 -27.314400
C -9.719300 -23.084400 -27.086000
O -9.626600 -19.500600 -24.246800
F -9.517000 -25.526600 -22.347200
C -9.253900 -24.249400 -22.737600
N -8.913800 -21.296300 -26.371600
C -8.725200 -21.661600 -23.571400
N -8.635800 -22.624700 -26.504100
C -8.448200 -20.279700 -24.169700
N -8.439800 -18.146500 -20.280400
H -8.336000 -17.248700 -22.073000
C -8.192100 -18.023000 -21.577500
H -8.143900 -19.823400 -19.200500
C -8.076000 -19.435200 -20.042600
C -8.004000 -20.430400 -25.641000
H -7.980900 -19.557300 -26.062700
C -7.943000 -23.884500 -22.925200
C -7.721000 -22.595600 -23.348400
N -7.709700 -19.159800 -22.073000
N -7.620600 -20.096000 -21.084900
C -7.347600 -19.479900 -23.446700
H -7.242800 -24.477600 -22.774500
H -7.181800 -18.656500 -23.932800
H -7.109000 -20.803000 -25.672400
H -6.526500 -19.996200 -23.447700
F -6.428700 -22.248100 -23.594300
