34
Fragment
F -13.254800 -14.434700 -18.834700
H -13.157000 -16.686600 -18.981300
H -12.574400 -15.879800 -16.756600
H -12.501700 -18.026300 -18.496200
H -12.440600 -12.205300 -19.654500
C -12.335800 -17.202900 -18.982300
N -12.062900 -16.586800 -21.344000
N -11.973800 -17.523000 -20.356000
C -11.962400 -14.087200 -19.080600
C -11.740400 -12.798300 -19.503800
H -11.702600 -17.125500 -16.366300
C -11.679500 -16.252400 -16.788000
C -11.607500 -17.247600 -22.386400
H -11.539500 -16.859400 -23.228500
C -11.491300 -18.659800 -20.851400
H -11.347400 -19.434100 -20.356000
N -11.243700 -18.536300 -22.148600
C -11.235300 -16.403100 -18.259300
N -11.047600 -14.058100 -15.924900
C -10.958200 -15.021200 -18.857600
N -10.769700 -15.386500 -16.057400
C -10.429600 -12.433400 -19.691400
F -10.166400 -11.156200 -20.081800
O -10.056800 -17.182200 -18.182200
C -9.964200 -13.598400 -15.343000
H -9.857600 -12.703200 -15.114600
H -9.723100 -17.247100 -18.929000
C -9.660600 -14.580900 -19.076800
C -9.554500 -15.649500 -15.573100
C -9.381000 -13.282900 -19.490000
H -9.150100 -16.487300 -15.567200
N -9.012900 -14.537300 -15.102700
H -8.955500 -15.172600 -18.943100
H -8.504700 -13.002200 -19.624800
16
Fragment
H -14.386300 -14.275800 -14.120400
O -13.750500 -13.983400 -13.692800
O -13.120400 -16.123600 -13.772500
C -12.926700 -14.956700 -13.417200
H -12.182400 -12.598400 -12.428900
C -11.723200 -14.560200 -12.647800
H -11.528000 -16.924100 -13.145900
C -11.524700 -13.231900 -12.253100
O -10.829400 -16.810500 -12.732200
C -10.724500 -15.508300 -12.372300
C -10.365600 -12.847600 -11.605900
H -10.247700 -11.964300 -11.338400
C -9.553300 -15.110800 -11.730300
C -9.379400 -13.793100 -11.358700
H -8.887900 -15.734500 -11.552000
H -8.591300 -13.535200 -10.936800
50
Fragment
F -13.254800 -14.434700 -18.834700
H -13.157000 -16.686600 -18.981300
H -12.574400 -15.879800 -16.756600
H -12.501700 -18.026300 -18.496200
H -12.440600 -12.205300 -19.654500
C -12.335800 -17.202900 -18.982300
N -12.062900 -16.586800 -21.344000
N -11.973800 -17.523000 -20.356000
C -11.962400 -14.087200 -19.080600
C -11.740400 -12.798300 -19.503800
H -11.702600 -17.125500 -16.366300
C -11.679500 -16.252400 -16.788000
C -11.607500 -17.247600 -22.386400
H -11.539500 -16.859400 -23.228500
C -11.491300 -18.659800 -20.851400
H -11.347400 -19.434100 -20.356000
N -11.243700 -18.536300 -22.148600
C -11.235300 -16.403100 -18.259300
N -11.047600 -14.058100 -15.924900
C -10.958200 -15.021200 -18.857600
N -10.769700 -15.386500 -16.057400
C -10.429600 -12.433400 -19.691400
F -10.166400 -11.156200 -20.081800
O -10.056800 -17.182200 -18.182200
C -9.964200 -13.598400 -15.343000
H -9.857600 -12.703200 -15.114600
H -9.723100 -17.247100 -18.929000
C -9.660600 -14.580900 -19.076800
C -9.554500 -15.649500 -15.573100
C -9.381000 -13.282900 -19.490000
H -9.150100 -16.487300 -15.567200
N -9.012900 -14.537300 -15.102700
H -8.955500 -15.172600 -18.943100
H -8.504700 -13.002200 -19.624800
H -14.386300 -14.275800 -14.120400
O -13.750500 -13.983400 -13.692800
O -13.120400 -16.123600 -13.772500
C -12.926700 -14.956700 -13.417200
H -12.182400 -12.598400 -12.428900
C -11.723200 -14.560200 -12.647800
H -11.528000 -16.924100 -13.145900
C -11.524700 -13.231900 -12.253100
O -10.829400 -16.810500 -12.732200
C -10.724500 -15.508300 -12.372300
C -10.365600 -12.847600 -11.605900
H -10.247700 -11.964300 -11.338400
C -9.553300 -15.110800 -11.730300
C -9.379400 -13.793100 -11.358700
H -8.887900 -15.734500 -11.552000
H -8.591300 -13.535200 -10.936800
