34
Fragment
F -13.254800 -14.434700 -18.834700
H -13.157000 -16.686600 -18.981300
H -12.574400 -15.879800 -16.756600
H -12.501700 -18.026300 -18.496200
H -12.440600 -12.205300 -19.654500
C -12.335800 -17.202900 -18.982300
N -12.062900 -16.586800 -21.344000
N -11.973800 -17.523000 -20.356000
C -11.962400 -14.087200 -19.080600
C -11.740400 -12.798300 -19.503800
H -11.702600 -17.125500 -16.366300
C -11.679500 -16.252400 -16.788000
C -11.607500 -17.247600 -22.386400
H -11.539500 -16.859400 -23.228500
C -11.491300 -18.659800 -20.851400
H -11.347400 -19.434100 -20.356000
N -11.243700 -18.536300 -22.148600
C -11.235300 -16.403100 -18.259300
N -11.047600 -14.058100 -15.924900
C -10.958200 -15.021200 -18.857600
N -10.769700 -15.386500 -16.057400
C -10.429600 -12.433400 -19.691400
F -10.166400 -11.156200 -20.081800
O -10.056800 -17.182200 -18.182200
C -9.964200 -13.598400 -15.343000
H -9.857600 -12.703200 -15.114600
H -9.723100 -17.247100 -18.929000
C -9.660600 -14.580900 -19.076800
C -9.554500 -15.649500 -15.573100
C -9.381000 -13.282900 -19.490000
H -9.150100 -16.487300 -15.567200
N -9.012900 -14.537300 -15.102700
H -8.955500 -15.172600 -18.943100
H -8.504700 -13.002200 -19.624800
34
Fragment
H -17.311200 -13.147100 -22.804200
H -16.860400 -10.976700 -23.485900
N -16.803000 -11.612100 -27.326300
H -16.665800 -9.662100 -26.861800
C -16.434900 -12.866400 -22.939000
C -16.261400 -10.499800 -26.855900
C -16.155300 -11.568500 -23.352200
H -16.092800 -8.902300 -23.500000
H -15.958300 -13.446200 -27.314400
C -15.851700 -12.551000 -27.086000
O -15.759100 -8.967200 -24.246800
F -15.649400 -14.993200 -22.347200
C -15.386300 -13.716000 -22.737600
N -15.046200 -10.762900 -26.371600
C -14.857700 -11.128100 -23.571400
N -14.768300 -12.091200 -26.504100
C -14.580600 -9.746300 -24.169700
N -14.572200 -7.613100 -20.280400
H -14.468400 -6.715300 -22.073000
C -14.324600 -7.489500 -21.577500
H -14.276400 -9.290000 -19.200500
C -14.208400 -8.901800 -20.042600
C -14.136400 -9.896900 -25.641000
H -14.113300 -9.023900 -26.062700
C -14.075500 -13.351000 -22.925200
C -13.853500 -12.062200 -23.348400
N -13.842100 -8.626300 -22.073000
N -13.753000 -9.562600 -21.084900
C -13.480100 -8.946500 -23.446700
H -13.375300 -13.944100 -22.774500
H -13.314200 -8.123100 -23.932800
H -13.241500 -10.269600 -25.672400
H -12.658900 -9.462700 -23.447700
F -12.561100 -11.714600 -23.594300
68
Fragment
F -13.254800 -14.434700 -18.834700
H -13.157000 -16.686600 -18.981300
H -12.574400 -15.879800 -16.756600
H -12.501700 -18.026300 -18.496200
H -12.440600 -12.205300 -19.654500
C -12.335800 -17.202900 -18.982300
N -12.062900 -16.586800 -21.344000
N -11.973800 -17.523000 -20.356000
C -11.962400 -14.087200 -19.080600
C -11.740400 -12.798300 -19.503800
H -11.702600 -17.125500 -16.366300
C -11.679500 -16.252400 -16.788000
C -11.607500 -17.247600 -22.386400
H -11.539500 -16.859400 -23.228500
C -11.491300 -18.659800 -20.851400
H -11.347400 -19.434100 -20.356000
N -11.243700 -18.536300 -22.148600
C -11.235300 -16.403100 -18.259300
N -11.047600 -14.058100 -15.924900
C -10.958200 -15.021200 -18.857600
N -10.769700 -15.386500 -16.057400
C -10.429600 -12.433400 -19.691400
F -10.166400 -11.156200 -20.081800
O -10.056800 -17.182200 -18.182200
C -9.964200 -13.598400 -15.343000
H -9.857600 -12.703200 -15.114600
H -9.723100 -17.247100 -18.929000
C -9.660600 -14.580900 -19.076800
C -9.554500 -15.649500 -15.573100
C -9.381000 -13.282900 -19.490000
H -9.150100 -16.487300 -15.567200
N -9.012900 -14.537300 -15.102700
H -8.955500 -15.172600 -18.943100
H -8.504700 -13.002200 -19.624800
H -17.311200 -13.147100 -22.804200
H -16.860400 -10.976700 -23.485900
N -16.803000 -11.612100 -27.326300
H -16.665800 -9.662100 -26.861800
C -16.434900 -12.866400 -22.939000
C -16.261400 -10.499800 -26.855900
C -16.155300 -11.568500 -23.352200
H -16.092800 -8.902300 -23.500000
H -15.958300 -13.446200 -27.314400
C -15.851700 -12.551000 -27.086000
O -15.759100 -8.967200 -24.246800
F -15.649400 -14.993200 -22.347200
C -15.386300 -13.716000 -22.737600
N -15.046200 -10.762900 -26.371600
C -14.857700 -11.128100 -23.571400
N -14.768300 -12.091200 -26.504100
C -14.580600 -9.746300 -24.169700
N -14.572200 -7.613100 -20.280400
H -14.468400 -6.715300 -22.073000
C -14.324600 -7.489500 -21.577500
H -14.276400 -9.290000 -19.200500
C -14.208400 -8.901800 -20.042600
C -14.136400 -9.896900 -25.641000
H -14.113300 -9.023900 -26.062700
C -14.075500 -13.351000 -22.925200
C -13.853500 -12.062200 -23.348400
N -13.842100 -8.626300 -22.073000
N -13.753000 -9.562600 -21.084900
C -13.480100 -8.946500 -23.446700
H -13.375300 -13.944100 -22.774500
H -13.314200 -8.123100 -23.932800
H -13.241500 -10.269600 -25.672400
H -12.658900 -9.462700 -23.447700
F -12.561100 -11.714600 -23.594300
