18
Fragment
H -12.577900 -16.123000 -28.648300
H -11.822500 -17.102400 -26.257500
N -11.742100 -15.926300 -28.692900
H -11.504500 -18.268200 -27.254800
N -11.239200 -15.036700 -29.568200
C -11.158100 -17.474100 -26.842700
C -10.810900 -16.477100 -27.896800
H -10.411100 -13.668900 -31.276300
H -10.372700 -17.692500 -26.337800
C -9.927100 -15.035700 -29.310400
C -9.614000 -15.917200 -28.274100
N -9.582200 -13.517800 -31.102500
C -9.027500 -14.138900 -30.064700
N -8.874200 -12.624800 -31.929700
H -8.773400 -16.089000 -27.915000
H -8.522200 -12.034600 -31.395900
H -8.213300 -13.068500 -32.305800
O -7.846900 -13.959600 -29.735900
18
Fragment
O -13.020300 -19.108700 -29.735900
H -12.653900 -18.217700 -32.305800
H -12.345100 -17.183700 -31.395900
H -12.093800 -21.238200 -27.915000
N -11.993100 -17.773900 -31.929700
C -11.839700 -19.288100 -30.064700
N -11.285000 -18.666900 -31.102500
C -11.253300 -21.066300 -28.274100
C -10.940100 -20.184900 -29.310400
H -10.494600 -22.841600 -26.337800
H -10.456200 -18.818100 -31.276300
C -10.056300 -21.626200 -27.896800
C -9.709100 -22.623200 -26.842700
N -9.628100 -20.185800 -29.568200
H -9.362700 -23.417300 -27.254800
N -9.125200 -21.075500 -28.692900
H -9.044700 -22.251500 -26.257500
H -8.289300 -21.272200 -28.648300
36
Fragment
H -12.577900 -16.123000 -28.648300
H -11.822500 -17.102400 -26.257500
N -11.742100 -15.926300 -28.692900
H -11.504500 -18.268200 -27.254800
N -11.239200 -15.036700 -29.568200
C -11.158100 -17.474100 -26.842700
C -10.810900 -16.477100 -27.896800
H -10.411100 -13.668900 -31.276300
H -10.372700 -17.692500 -26.337800
C -9.927100 -15.035700 -29.310400
C -9.614000 -15.917200 -28.274100
N -9.582200 -13.517800 -31.102500
C -9.027500 -14.138900 -30.064700
N -8.874200 -12.624800 -31.929700
H -8.773400 -16.089000 -27.915000
H -8.522200 -12.034600 -31.395900
H -8.213300 -13.068500 -32.305800
O -7.846900 -13.959600 -29.735900
O -13.020300 -19.108700 -29.735900
H -12.653900 -18.217700 -32.305800
H -12.345100 -17.183700 -31.395900
H -12.093800 -21.238200 -27.915000
N -11.993100 -17.773900 -31.929700
C -11.839700 -19.288100 -30.064700
N -11.285000 -18.666900 -31.102500
C -11.253300 -21.066300 -28.274100
C -10.940100 -20.184900 -29.310400
H -10.494600 -22.841600 -26.337800
H -10.456200 -18.818100 -31.276300
C -10.056300 -21.626200 -27.896800
C -9.709100 -22.623200 -26.842700
N -9.628100 -20.185800 -29.568200
H -9.362700 -23.417300 -27.254800
N -9.125200 -21.075500 -28.692900
H -9.044700 -22.251500 -26.257500
H -8.289300 -21.272200 -28.648300
