18
Fragment
H -12.577900 -16.123000 -28.648300
H -11.822500 -17.102400 -26.257500
N -11.742100 -15.926300 -28.692900
H -11.504500 -18.268200 -27.254800
N -11.239200 -15.036700 -29.568200
C -11.158100 -17.474100 -26.842700
C -10.810900 -16.477100 -27.896800
H -10.411100 -13.668900 -31.276300
H -10.372700 -17.692500 -26.337800
C -9.927100 -15.035700 -29.310400
C -9.614000 -15.917200 -28.274100
N -9.582200 -13.517800 -31.102500
C -9.027500 -14.138900 -30.064700
N -8.874200 -12.624800 -31.929700
H -8.773400 -16.089000 -27.915000
H -8.522200 -12.034600 -31.395900
H -8.213300 -13.068500 -32.305800
O -7.846900 -13.959600 -29.735900
18
Fragment
H -16.751400 -16.123000 -33.797300
H -15.996000 -17.102400 -36.188100
N -15.915500 -15.926300 -33.752700
H -15.678000 -18.268200 -35.190800
N -15.412600 -15.036700 -32.877400
C -15.331600 -17.474100 -35.602900
C -14.984400 -16.477100 -34.548800
H -14.584500 -13.668900 -31.169300
H -14.546100 -17.692500 -36.107800
C -14.100600 -15.035700 -33.135200
C -13.787400 -15.917200 -34.171500
N -13.755700 -13.517800 -31.343100
C -13.201000 -14.138900 -32.380900
N -13.047600 -12.624800 -30.515900
H -12.946900 -16.089000 -34.530600
H -12.695600 -12.034600 -31.049700
H -12.386800 -13.068500 -30.139800
O -12.020400 -13.959600 -32.709700
36
Fragment
H -12.577900 -16.123000 -28.648300
H -11.822500 -17.102400 -26.257500
N -11.742100 -15.926300 -28.692900
H -11.504500 -18.268200 -27.254800
N -11.239200 -15.036700 -29.568200
C -11.158100 -17.474100 -26.842700
C -10.810900 -16.477100 -27.896800
H -10.411100 -13.668900 -31.276300
H -10.372700 -17.692500 -26.337800
C -9.927100 -15.035700 -29.310400
C -9.614000 -15.917200 -28.274100
N -9.582200 -13.517800 -31.102500
C -9.027500 -14.138900 -30.064700
N -8.874200 -12.624800 -31.929700
H -8.773400 -16.089000 -27.915000
H -8.522200 -12.034600 -31.395900
H -8.213300 -13.068500 -32.305800
O -7.846900 -13.959600 -29.735900
H -16.751400 -16.123000 -33.797300
H -15.996000 -17.102400 -36.188100
N -15.915500 -15.926300 -33.752700
H -15.678000 -18.268200 -35.190800
N -15.412600 -15.036700 -32.877400
C -15.331600 -17.474100 -35.602900
C -14.984400 -16.477100 -34.548800
H -14.584500 -13.668900 -31.169300
H -14.546100 -17.692500 -36.107800
C -14.100600 -15.035700 -33.135200
C -13.787400 -15.917200 -34.171500
N -13.755700 -13.517800 -31.343100
C -13.201000 -14.138900 -32.380900
N -13.047600 -12.624800 -30.515900
H -12.946900 -16.089000 -34.530600
H -12.695600 -12.034600 -31.049700
H -12.386800 -13.068500 -30.139800
O -12.020400 -13.959600 -32.709700
