18
Fragment
H -12.577900 -16.123000 -28.648300
H -11.822500 -17.102400 -26.257500
N -11.742100 -15.926300 -28.692900
H -11.504500 -18.268200 -27.254800
N -11.239200 -15.036700 -29.568200
C -11.158100 -17.474100 -26.842700
C -10.810900 -16.477100 -27.896800
H -10.411100 -13.668900 -31.276300
H -10.372700 -17.692500 -26.337800
C -9.927100 -15.035700 -29.310400
C -9.614000 -15.917200 -28.274100
N -9.582200 -13.517800 -31.102500
C -9.027500 -14.138900 -30.064700
N -8.874200 -12.624800 -31.929700
H -8.773400 -16.089000 -27.915000
H -8.522200 -12.034600 -31.395900
H -8.213300 -13.068500 -32.305800
O -7.846900 -13.959600 -29.735900
18
Fragment
O -8.846900 -8.810400 -32.709700
H -8.480500 -7.919400 -30.139800
H -8.171600 -6.885400 -31.049700
H -7.920400 -10.939900 -34.530600
N -7.819600 -7.475600 -30.515900
C -7.666300 -8.989800 -32.380900
N -7.111600 -8.368600 -31.343100
C -7.079800 -10.768000 -34.171500
C -6.766700 -9.886600 -33.135200
H -6.321100 -12.543300 -36.107800
H -6.282700 -8.519800 -31.169300
C -5.882900 -11.327900 -34.548800
C -5.535700 -12.324900 -35.602900
N -5.454600 -9.887500 -32.877400
H -5.189300 -13.119000 -35.190800
N -4.951700 -10.777200 -33.752700
H -4.871300 -11.953200 -36.188100
H -4.115900 -10.973900 -33.797300
36
Fragment
H -12.577900 -16.123000 -28.648300
H -11.822500 -17.102400 -26.257500
N -11.742100 -15.926300 -28.692900
H -11.504500 -18.268200 -27.254800
N -11.239200 -15.036700 -29.568200
C -11.158100 -17.474100 -26.842700
C -10.810900 -16.477100 -27.896800
H -10.411100 -13.668900 -31.276300
H -10.372700 -17.692500 -26.337800
C -9.927100 -15.035700 -29.310400
C -9.614000 -15.917200 -28.274100
N -9.582200 -13.517800 -31.102500
C -9.027500 -14.138900 -30.064700
N -8.874200 -12.624800 -31.929700
H -8.773400 -16.089000 -27.915000
H -8.522200 -12.034600 -31.395900
H -8.213300 -13.068500 -32.305800
O -7.846900 -13.959600 -29.735900
O -8.846900 -8.810400 -32.709700
H -8.480500 -7.919400 -30.139800
H -8.171600 -6.885400 -31.049700
H -7.920400 -10.939900 -34.530600
N -7.819600 -7.475600 -30.515900
C -7.666300 -8.989800 -32.380900
N -7.111600 -8.368600 -31.343100
C -7.079800 -10.768000 -34.171500
C -6.766700 -9.886600 -33.135200
H -6.321100 -12.543300 -36.107800
H -6.282700 -8.519800 -31.169300
C -5.882900 -11.327900 -34.548800
C -5.535700 -12.324900 -35.602900
N -5.454600 -9.887500 -32.877400
H -5.189300 -13.119000 -35.190800
N -4.951700 -10.777200 -33.752700
H -4.871300 -11.953200 -36.188100
H -4.115900 -10.973900 -33.797300
