18
Fragment
H -12.577900 -16.123000 -28.648300
H -11.822500 -17.102400 -26.257500
N -11.742100 -15.926300 -28.692900
H -11.504500 -18.268200 -27.254800
N -11.239200 -15.036700 -29.568200
C -11.158100 -17.474100 -26.842700
C -10.810900 -16.477100 -27.896800
H -10.411100 -13.668900 -31.276300
H -10.372700 -17.692500 -26.337800
C -9.927100 -15.035700 -29.310400
C -9.614000 -15.917200 -28.274100
N -9.582200 -13.517800 -31.102500
C -9.027500 -14.138900 -30.064700
N -8.874200 -12.624800 -31.929700
H -8.773400 -16.089000 -27.915000
H -8.522200 -12.034600 -31.395900
H -8.213300 -13.068500 -32.305800
O -7.846900 -13.959600 -29.735900
18
Fragment
H -8.404500 -19.921000 -24.876500
H -7.649100 -18.941700 -27.267300
N -7.568600 -20.117700 -24.831900
H -7.331100 -17.775900 -26.270000
N -7.065700 -21.007400 -23.956600
C -6.984700 -18.570000 -26.682100
C -6.637500 -19.567000 -25.628000
H -6.237600 -22.375100 -22.248500
H -6.199200 -18.351600 -27.187000
C -5.753700 -21.008300 -24.214400
C -5.440500 -20.126900 -25.250700
N -5.408800 -22.526300 -22.422300
C -4.854100 -21.905100 -23.460100
N -4.700700 -23.419300 -21.595100
H -4.600000 -19.955000 -25.609800
H -4.348700 -24.009500 -22.128900
H -4.039900 -22.975500 -21.219000
O -3.673500 -22.084500 -23.788900
36
Fragment
H -12.577900 -16.123000 -28.648300
H -11.822500 -17.102400 -26.257500
N -11.742100 -15.926300 -28.692900
H -11.504500 -18.268200 -27.254800
N -11.239200 -15.036700 -29.568200
C -11.158100 -17.474100 -26.842700
C -10.810900 -16.477100 -27.896800
H -10.411100 -13.668900 -31.276300
H -10.372700 -17.692500 -26.337800
C -9.927100 -15.035700 -29.310400
C -9.614000 -15.917200 -28.274100
N -9.582200 -13.517800 -31.102500
C -9.027500 -14.138900 -30.064700
N -8.874200 -12.624800 -31.929700
H -8.773400 -16.089000 -27.915000
H -8.522200 -12.034600 -31.395900
H -8.213300 -13.068500 -32.305800
O -7.846900 -13.959600 -29.735900
H -8.404500 -19.921000 -24.876500
H -7.649100 -18.941700 -27.267300
N -7.568600 -20.117700 -24.831900
H -7.331100 -17.775900 -26.270000
N -7.065700 -21.007400 -23.956600
C -6.984700 -18.570000 -26.682100
C -6.637500 -19.567000 -25.628000
H -6.237600 -22.375100 -22.248500
H -6.199200 -18.351600 -27.187000
C -5.753700 -21.008300 -24.214400
C -5.440500 -20.126900 -25.250700
N -5.408800 -22.526300 -22.422300
C -4.854100 -21.905100 -23.460100
N -4.700700 -23.419300 -21.595100
H -4.600000 -19.955000 -25.609800
H -4.348700 -24.009500 -22.128900
H -4.039900 -22.975500 -21.219000
O -3.673500 -22.084500 -23.788900
