27
Fragment
H -28.316400 -16.594800 -14.277100
O -27.594100 -17.689600 -16.990500
C -27.415000 -16.590400 -14.505500
C -27.236000 -16.494800 -16.962900
N -27.109300 -15.853700 -15.713000
H -27.089000 -18.568100 -13.788300
H -27.010400 -16.127600 -19.022200
O -26.988500 -13.928900 -14.503400
C -26.933800 -15.722600 -18.089200
C -26.901600 -14.490700 -15.579700
H -26.829800 -16.534600 -12.490900
H -26.687800 -11.894500 -17.270900
H -26.636500 -12.106200 -15.737900
C -26.620500 -17.815500 -14.192200
C -26.581600 -14.394100 -17.974500
N -26.559900 -13.794500 -16.733800
C -26.416100 -16.578800 -13.394100
H -26.286600 -14.069100 -19.876200
N -26.275500 -13.658300 -19.045800
C -26.257000 -12.359300 -16.582900
H -26.010300 -12.791200 -18.984900
H -25.929900 -18.019100 -14.845300
H -25.585700 -16.040700 -13.588800
C -24.778300 -12.063200 -16.588800
H -24.647100 -11.083900 -16.407600
H -24.382300 -12.546800 -15.840600
H -24.378300 -12.245600 -17.422600
27
Fragment
H -31.111300 -17.827200 -8.443500
O -30.389000 -16.732400 -11.156900
C -30.209800 -17.831600 -8.671900
C -30.030900 -17.927200 -11.129300
N -29.904200 -18.568300 -9.879400
H -29.883900 -15.853900 -7.954700
H -29.805300 -18.294400 -13.188600
O -29.783300 -20.493100 -8.669800
C -29.728700 -18.699400 -12.255600
C -29.696500 -19.931300 -9.746100
H -29.624700 -17.887400 -6.657300
H -29.482600 -22.527500 -11.437400
H -29.431400 -22.315800 -9.904300
C -29.415400 -16.606500 -8.358600
C -29.376400 -20.027900 -12.140900
N -29.354700 -20.627500 -10.900200
C -29.211000 -17.843200 -7.560500
H -29.081400 -20.352900 -14.042600
N -29.070400 -20.763700 -13.212200
C -29.051900 -22.062700 -10.749300
H -28.805100 -21.630800 -13.151300
H -28.724800 -16.402900 -9.011700
H -28.380600 -18.381300 -7.755200
C -27.573100 -22.358800 -10.755200
H -27.442000 -23.338100 -10.574000
H -27.177100 -21.875200 -10.007000
H -27.173200 -22.176400 -11.589000
54
Fragment
H -28.316400 -16.594800 -14.277100
O -27.594100 -17.689600 -16.990500
C -27.415000 -16.590400 -14.505500
C -27.236000 -16.494800 -16.962900
N -27.109300 -15.853700 -15.713000
H -27.089000 -18.568100 -13.788300
H -27.010400 -16.127600 -19.022200
O -26.988500 -13.928900 -14.503400
C -26.933800 -15.722600 -18.089200
C -26.901600 -14.490700 -15.579700
H -26.829800 -16.534600 -12.490900
H -26.687800 -11.894500 -17.270900
H -26.636500 -12.106200 -15.737900
C -26.620500 -17.815500 -14.192200
C -26.581600 -14.394100 -17.974500
N -26.559900 -13.794500 -16.733800
C -26.416100 -16.578800 -13.394100
H -26.286600 -14.069100 -19.876200
N -26.275500 -13.658300 -19.045800
C -26.257000 -12.359300 -16.582900
H -26.010300 -12.791200 -18.984900
H -25.929900 -18.019100 -14.845300
H -25.585700 -16.040700 -13.588800
C -24.778300 -12.063200 -16.588800
H -24.647100 -11.083900 -16.407600
H -24.382300 -12.546800 -15.840600
H -24.378300 -12.245600 -17.422600
H -31.111300 -17.827200 -8.443500
O -30.389000 -16.732400 -11.156900
C -30.209800 -17.831600 -8.671900
C -30.030900 -17.927200 -11.129300
N -29.904200 -18.568300 -9.879400
H -29.883900 -15.853900 -7.954700
H -29.805300 -18.294400 -13.188600
O -29.783300 -20.493100 -8.669800
C -29.728700 -18.699400 -12.255600
C -29.696500 -19.931300 -9.746100
H -29.624700 -17.887400 -6.657300
H -29.482600 -22.527500 -11.437400
H -29.431400 -22.315800 -9.904300
C -29.415400 -16.606500 -8.358600
C -29.376400 -20.027900 -12.140900
N -29.354700 -20.627500 -10.900200
C -29.211000 -17.843200 -7.560500
H -29.081400 -20.352900 -14.042600
N -29.070400 -20.763700 -13.212200
C -29.051900 -22.062700 -10.749300
H -28.805100 -21.630800 -13.151300
H -28.724800 -16.402900 -9.011700
H -28.380600 -18.381300 -7.755200
C -27.573100 -22.358800 -10.755200
H -27.442000 -23.338100 -10.574000
H -27.177100 -21.875200 -10.007000
H -27.173200 -22.176400 -11.589000
