27
Fragment
H -28.316400 -16.594800 -14.277100
O -27.594100 -17.689600 -16.990500
C -27.415000 -16.590400 -14.505500
C -27.236000 -16.494800 -16.962900
N -27.109300 -15.853700 -15.713000
H -27.089000 -18.568100 -13.788300
H -27.010400 -16.127600 -19.022200
O -26.988500 -13.928900 -14.503400
C -26.933800 -15.722600 -18.089200
C -26.901600 -14.490700 -15.579700
H -26.829800 -16.534600 -12.490900
H -26.687800 -11.894500 -17.270900
H -26.636500 -12.106200 -15.737900
C -26.620500 -17.815500 -14.192200
C -26.581600 -14.394100 -17.974500
N -26.559900 -13.794500 -16.733800
C -26.416100 -16.578800 -13.394100
H -26.286600 -14.069100 -19.876200
N -26.275500 -13.658300 -19.045800
C -26.257000 -12.359300 -16.582900
H -26.010300 -12.791200 -18.984900
H -25.929900 -18.019100 -14.845300
H -25.585700 -16.040700 -13.588800
C -24.778300 -12.063200 -16.588800
H -24.647100 -11.083900 -16.407600
H -24.382300 -12.546800 -15.840600
H -24.378300 -12.245600 -17.422600
27
Fragment
H -32.777400 -17.873600 -17.579000
H -32.773400 -17.572400 -19.161000
H -32.508600 -19.035400 -18.594000
C -32.377400 -18.056100 -18.412800
H -31.570000 -14.078600 -21.412800
H -31.225800 -12.100200 -20.156200
H -31.145400 -17.328000 -16.016700
C -30.898700 -17.759900 -18.418700
N -30.880200 -16.460900 -15.955800
H -30.869100 -16.050100 -15.125400
C -30.739600 -13.540500 -21.607500
N -30.595800 -16.324700 -18.267800
C -30.574100 -15.725200 -17.027100
C -30.535200 -12.303800 -20.809400
H -30.519200 -18.013000 -19.263700
H -30.467900 -18.224700 -17.730600
H -30.325900 -13.584600 -22.510700
C -30.254100 -15.628500 -19.421900
C -30.221900 -14.396700 -16.912400
O -30.167200 -16.190400 -20.498200
H -30.145300 -13.991700 -15.979400
H -30.066700 -11.551200 -21.213300
N -30.046400 -14.265500 -19.288600
C -29.919700 -13.624500 -18.038700
C -29.740700 -13.528900 -20.496100
O -29.561600 -12.429600 -18.011100
H -28.839300 -13.524400 -20.724400
54
Fragment
H -28.316400 -16.594800 -14.277100
O -27.594100 -17.689600 -16.990500
C -27.415000 -16.590400 -14.505500
C -27.236000 -16.494800 -16.962900
N -27.109300 -15.853700 -15.713000
H -27.089000 -18.568100 -13.788300
H -27.010400 -16.127600 -19.022200
O -26.988500 -13.928900 -14.503400
C -26.933800 -15.722600 -18.089200
C -26.901600 -14.490700 -15.579700
H -26.829800 -16.534600 -12.490900
H -26.687800 -11.894500 -17.270900
H -26.636500 -12.106200 -15.737900
C -26.620500 -17.815500 -14.192200
C -26.581600 -14.394100 -17.974500
N -26.559900 -13.794500 -16.733800
C -26.416100 -16.578800 -13.394100
H -26.286600 -14.069100 -19.876200
N -26.275500 -13.658300 -19.045800
C -26.257000 -12.359300 -16.582900
H -26.010300 -12.791200 -18.984900
H -25.929900 -18.019100 -14.845300
H -25.585700 -16.040700 -13.588800
C -24.778300 -12.063200 -16.588800
H -24.647100 -11.083900 -16.407600
H -24.382300 -12.546800 -15.840600
H -24.378300 -12.245600 -17.422600
H -32.777400 -17.873600 -17.579000
H -32.773400 -17.572400 -19.161000
H -32.508600 -19.035400 -18.594000
C -32.377400 -18.056100 -18.412800
H -31.570000 -14.078600 -21.412800
H -31.225800 -12.100200 -20.156200
H -31.145400 -17.328000 -16.016700
C -30.898700 -17.759900 -18.418700
N -30.880200 -16.460900 -15.955800
H -30.869100 -16.050100 -15.125400
C -30.739600 -13.540500 -21.607500
N -30.595800 -16.324700 -18.267800
C -30.574100 -15.725200 -17.027100
C -30.535200 -12.303800 -20.809400
H -30.519200 -18.013000 -19.263700
H -30.467900 -18.224700 -17.730600
H -30.325900 -13.584600 -22.510700
C -30.254100 -15.628500 -19.421900
C -30.221900 -14.396700 -16.912400
O -30.167200 -16.190400 -20.498200
H -30.145300 -13.991700 -15.979400
H -30.066700 -11.551200 -21.213300
N -30.046400 -14.265500 -19.288600
C -29.919700 -13.624500 -18.038700
C -29.740700 -13.528900 -20.496100
O -29.561600 -12.429600 -18.011100
H -28.839300 -13.524400 -20.724400
