27
Fragment
H -28.316400 -16.594800 -14.277100
O -27.594100 -17.689600 -16.990500
C -27.415000 -16.590400 -14.505500
C -27.236000 -16.494800 -16.962900
N -27.109300 -15.853700 -15.713000
H -27.089000 -18.568100 -13.788300
H -27.010400 -16.127600 -19.022200
O -26.988500 -13.928900 -14.503400
C -26.933800 -15.722600 -18.089200
C -26.901600 -14.490700 -15.579700
H -26.829800 -16.534600 -12.490900
H -26.687800 -11.894500 -17.270900
H -26.636500 -12.106200 -15.737900
C -26.620500 -17.815500 -14.192200
C -26.581600 -14.394100 -17.974500
N -26.559900 -13.794500 -16.733800
C -26.416100 -16.578800 -13.394100
H -26.286600 -14.069100 -19.876200
N -26.275500 -13.658300 -19.045800
C -26.257000 -12.359300 -16.582900
H -26.010300 -12.791200 -18.984900
H -25.929900 -18.019100 -14.845300
H -25.585700 -16.040700 -13.588800
C -24.778300 -12.063200 -16.588800
H -24.647100 -11.083900 -16.407600
H -24.382300 -12.546800 -15.840600
H -24.378300 -12.245600 -17.422600
27
Fragment
H -25.011500 -3.640100 -11.745400
H -25.007600 -3.941300 -13.327400
H -24.742800 -2.478400 -12.760400
C -24.611600 -3.457700 -12.579200
H -23.804200 -7.435200 -15.579200
H -23.459900 -9.413600 -14.322600
H -23.379600 -4.185700 -10.183100
C -23.132800 -3.753800 -12.585100
N -23.114300 -5.052800 -10.122200
H -23.103300 -5.463600 -9.291800
C -22.973700 -7.973300 -15.773900
N -22.830000 -5.189000 -12.434200
C -22.808300 -5.788600 -11.193500
C -22.769400 -9.210000 -14.975800
H -22.753300 -3.500700 -13.430100
H -22.702100 -3.289000 -11.897000
H -22.560000 -7.929100 -16.677100
C -22.488300 -5.885200 -13.588300
C -22.456000 -7.117100 -11.078800
O -22.401400 -5.323400 -14.664600
H -22.379400 -7.522100 -10.145800
H -22.300800 -9.962600 -15.379700
N -22.280500 -7.248200 -13.455000
C -22.153900 -7.889300 -12.205100
C -21.974900 -7.984900 -14.662500
O -21.795700 -9.084100 -12.177500
H -21.073500 -7.989300 -14.890800
54
Fragment
H -28.316400 -16.594800 -14.277100
O -27.594100 -17.689600 -16.990500
C -27.415000 -16.590400 -14.505500
C -27.236000 -16.494800 -16.962900
N -27.109300 -15.853700 -15.713000
H -27.089000 -18.568100 -13.788300
H -27.010400 -16.127600 -19.022200
O -26.988500 -13.928900 -14.503400
C -26.933800 -15.722600 -18.089200
C -26.901600 -14.490700 -15.579700
H -26.829800 -16.534600 -12.490900
H -26.687800 -11.894500 -17.270900
H -26.636500 -12.106200 -15.737900
C -26.620500 -17.815500 -14.192200
C -26.581600 -14.394100 -17.974500
N -26.559900 -13.794500 -16.733800
C -26.416100 -16.578800 -13.394100
H -26.286600 -14.069100 -19.876200
N -26.275500 -13.658300 -19.045800
C -26.257000 -12.359300 -16.582900
H -26.010300 -12.791200 -18.984900
H -25.929900 -18.019100 -14.845300
H -25.585700 -16.040700 -13.588800
C -24.778300 -12.063200 -16.588800
H -24.647100 -11.083900 -16.407600
H -24.382300 -12.546800 -15.840600
H -24.378300 -12.245600 -17.422600
H -25.011500 -3.640100 -11.745400
H -25.007600 -3.941300 -13.327400
H -24.742800 -2.478400 -12.760400
C -24.611600 -3.457700 -12.579200
H -23.804200 -7.435200 -15.579200
H -23.459900 -9.413600 -14.322600
H -23.379600 -4.185700 -10.183100
C -23.132800 -3.753800 -12.585100
N -23.114300 -5.052800 -10.122200
H -23.103300 -5.463600 -9.291800
C -22.973700 -7.973300 -15.773900
N -22.830000 -5.189000 -12.434200
C -22.808300 -5.788600 -11.193500
C -22.769400 -9.210000 -14.975800
H -22.753300 -3.500700 -13.430100
H -22.702100 -3.289000 -11.897000
H -22.560000 -7.929100 -16.677100
C -22.488300 -5.885200 -13.588300
C -22.456000 -7.117100 -11.078800
O -22.401400 -5.323400 -14.664600
H -22.379400 -7.522100 -10.145800
H -22.300800 -9.962600 -15.379700
N -22.280500 -7.248200 -13.455000
C -22.153900 -7.889300 -12.205100
C -21.974900 -7.984900 -14.662500
O -21.795700 -9.084100 -12.177500
H -21.073500 -7.989300 -14.890800
