27
Fragment
H -28.316400 -16.594800 -14.277100
O -27.594100 -17.689600 -16.990500
C -27.415000 -16.590400 -14.505500
C -27.236000 -16.494800 -16.962900
N -27.109300 -15.853700 -15.713000
H -27.089000 -18.568100 -13.788300
H -27.010400 -16.127600 -19.022200
O -26.988500 -13.928900 -14.503400
C -26.933800 -15.722600 -18.089200
C -26.901600 -14.490700 -15.579700
H -26.829800 -16.534600 -12.490900
H -26.687800 -11.894500 -17.270900
H -26.636500 -12.106200 -15.737900
C -26.620500 -17.815500 -14.192200
C -26.581600 -14.394100 -17.974500
N -26.559900 -13.794500 -16.733800
C -26.416100 -16.578800 -13.394100
H -26.286600 -14.069100 -19.876200
N -26.275500 -13.658300 -19.045800
C -26.257000 -12.359300 -16.582900
H -26.010300 -12.791200 -18.984900
H -25.929900 -18.019100 -14.845300
H -25.585700 -16.040700 -13.588800
C -24.778300 -12.063200 -16.588800
H -24.647100 -11.083900 -16.407600
H -24.382300 -12.546800 -15.840600
H -24.378300 -12.245600 -17.422600
27
Fragment
H -27.806400 -22.176400 -5.911800
H -27.802500 -21.875200 -7.493800
H -27.537600 -23.338100 -6.926800
C -27.406500 -22.358800 -6.745600
H -26.599000 -18.381300 -9.745600
H -26.254800 -16.402900 -8.489100
H -26.174500 -21.630800 -4.349500
C -25.927700 -22.062700 -6.751500
N -25.909200 -20.763700 -4.288600
H -25.898200 -20.352900 -3.458200
C -25.768600 -17.843200 -9.940300
N -25.624900 -20.627500 -6.600600
C -25.603200 -20.027900 -5.359900
C -25.564200 -16.606500 -9.142200
H -25.548200 -22.315800 -7.596500
H -25.497000 -22.527500 -6.063400
H -25.354900 -17.887400 -10.843500
C -25.283100 -19.931300 -7.754700
C -25.250900 -18.699400 -5.245200
O -25.196300 -20.493100 -8.831000
H -25.174300 -18.294400 -4.312200
H -25.095700 -15.853900 -9.546100
N -25.075400 -18.568300 -7.621400
C -24.948700 -17.927200 -6.371500
C -24.769800 -17.831600 -8.828900
O -24.590600 -16.732400 -6.343900
H -23.868300 -17.827200 -9.057200
54
Fragment
H -28.316400 -16.594800 -14.277100
O -27.594100 -17.689600 -16.990500
C -27.415000 -16.590400 -14.505500
C -27.236000 -16.494800 -16.962900
N -27.109300 -15.853700 -15.713000
H -27.089000 -18.568100 -13.788300
H -27.010400 -16.127600 -19.022200
O -26.988500 -13.928900 -14.503400
C -26.933800 -15.722600 -18.089200
C -26.901600 -14.490700 -15.579700
H -26.829800 -16.534600 -12.490900
H -26.687800 -11.894500 -17.270900
H -26.636500 -12.106200 -15.737900
C -26.620500 -17.815500 -14.192200
C -26.581600 -14.394100 -17.974500
N -26.559900 -13.794500 -16.733800
C -26.416100 -16.578800 -13.394100
H -26.286600 -14.069100 -19.876200
N -26.275500 -13.658300 -19.045800
C -26.257000 -12.359300 -16.582900
H -26.010300 -12.791200 -18.984900
H -25.929900 -18.019100 -14.845300
H -25.585700 -16.040700 -13.588800
C -24.778300 -12.063200 -16.588800
H -24.647100 -11.083900 -16.407600
H -24.382300 -12.546800 -15.840600
H -24.378300 -12.245600 -17.422600
H -27.806400 -22.176400 -5.911800
H -27.802500 -21.875200 -7.493800
H -27.537600 -23.338100 -6.926800
C -27.406500 -22.358800 -6.745600
H -26.599000 -18.381300 -9.745600
H -26.254800 -16.402900 -8.489100
H -26.174500 -21.630800 -4.349500
C -25.927700 -22.062700 -6.751500
N -25.909200 -20.763700 -4.288600
H -25.898200 -20.352900 -3.458200
C -25.768600 -17.843200 -9.940300
N -25.624900 -20.627500 -6.600600
C -25.603200 -20.027900 -5.359900
C -25.564200 -16.606500 -9.142200
H -25.548200 -22.315800 -7.596500
H -25.497000 -22.527500 -6.063400
H -25.354900 -17.887400 -10.843500
C -25.283100 -19.931300 -7.754700
C -25.250900 -18.699400 -5.245200
O -25.196300 -20.493100 -8.831000
H -25.174300 -18.294400 -4.312200
H -25.095700 -15.853900 -9.546100
N -25.075400 -18.568300 -7.621400
C -24.948700 -17.927200 -6.371500
C -24.769800 -17.831600 -8.828900
O -24.590600 -16.732400 -6.343900
H -23.868300 -17.827200 -9.057200
