27
Fragment
H -28.316400 -16.594800 -14.277100
O -27.594100 -17.689600 -16.990500
C -27.415000 -16.590400 -14.505500
C -27.236000 -16.494800 -16.962900
N -27.109300 -15.853700 -15.713000
H -27.089000 -18.568100 -13.788300
H -27.010400 -16.127600 -19.022200
O -26.988500 -13.928900 -14.503400
C -26.933800 -15.722600 -18.089200
C -26.901600 -14.490700 -15.579700
H -26.829800 -16.534600 -12.490900
H -26.687800 -11.894500 -17.270900
H -26.636500 -12.106200 -15.737900
C -26.620500 -17.815500 -14.192200
C -26.581600 -14.394100 -17.974500
N -26.559900 -13.794500 -16.733800
C -26.416100 -16.578800 -13.394100
H -26.286600 -14.069100 -19.876200
N -26.275500 -13.658300 -19.045800
C -26.257000 -12.359300 -16.582900
H -26.010300 -12.791200 -18.984900
H -25.929900 -18.019100 -14.845300
H -25.585700 -16.040700 -13.588800
C -24.778300 -12.063200 -16.588800
H -24.647100 -11.083900 -16.407600
H -24.382300 -12.546800 -15.840600
H -24.378300 -12.245600 -17.422600
27
Fragment
H -25.521500 -17.827200 -20.110700
O -24.799300 -16.732400 -22.824100
C -24.620100 -17.831600 -20.339100
C -24.441100 -17.927200 -22.796500
N -24.314500 -18.568300 -21.546600
H -24.294200 -15.853900 -19.621900
H -24.215600 -18.294400 -24.855800
O -24.193600 -20.493100 -20.337000
C -24.139000 -18.699400 -23.922800
C -24.106700 -19.931300 -21.413300
H -24.035000 -17.887400 -18.324500
H -23.892900 -22.527500 -23.104500
H -23.841700 -22.315800 -21.571500
C -23.825600 -16.606500 -20.025800
C -23.786700 -20.027900 -23.808100
N -23.765000 -20.627500 -22.567400
C -23.621300 -17.843200 -19.227700
H -23.491700 -20.352900 -25.709800
N -23.480700 -20.763700 -24.879400
C -23.462200 -22.062700 -22.416500
H -23.215400 -21.630800 -24.818500
H -23.135100 -16.402900 -20.678900
H -22.790900 -18.381300 -19.422400
C -21.983400 -22.358800 -22.422400
H -21.852200 -23.338100 -22.241200
H -21.587400 -21.875200 -21.674100
H -21.583500 -22.176400 -23.256200
54
Fragment
H -28.316400 -16.594800 -14.277100
O -27.594100 -17.689600 -16.990500
C -27.415000 -16.590400 -14.505500
C -27.236000 -16.494800 -16.962900
N -27.109300 -15.853700 -15.713000
H -27.089000 -18.568100 -13.788300
H -27.010400 -16.127600 -19.022200
O -26.988500 -13.928900 -14.503400
C -26.933800 -15.722600 -18.089200
C -26.901600 -14.490700 -15.579700
H -26.829800 -16.534600 -12.490900
H -26.687800 -11.894500 -17.270900
H -26.636500 -12.106200 -15.737900
C -26.620500 -17.815500 -14.192200
C -26.581600 -14.394100 -17.974500
N -26.559900 -13.794500 -16.733800
C -26.416100 -16.578800 -13.394100
H -26.286600 -14.069100 -19.876200
N -26.275500 -13.658300 -19.045800
C -26.257000 -12.359300 -16.582900
H -26.010300 -12.791200 -18.984900
H -25.929900 -18.019100 -14.845300
H -25.585700 -16.040700 -13.588800
C -24.778300 -12.063200 -16.588800
H -24.647100 -11.083900 -16.407600
H -24.382300 -12.546800 -15.840600
H -24.378300 -12.245600 -17.422600
H -25.521500 -17.827200 -20.110700
O -24.799300 -16.732400 -22.824100
C -24.620100 -17.831600 -20.339100
C -24.441100 -17.927200 -22.796500
N -24.314500 -18.568300 -21.546600
H -24.294200 -15.853900 -19.621900
H -24.215600 -18.294400 -24.855800
O -24.193600 -20.493100 -20.337000
C -24.139000 -18.699400 -23.922800
C -24.106700 -19.931300 -21.413300
H -24.035000 -17.887400 -18.324500
H -23.892900 -22.527500 -23.104500
H -23.841700 -22.315800 -21.571500
C -23.825600 -16.606500 -20.025800
C -23.786700 -20.027900 -23.808100
N -23.765000 -20.627500 -22.567400
C -23.621300 -17.843200 -19.227700
H -23.491700 -20.352900 -25.709800
N -23.480700 -20.763700 -24.879400
C -23.462200 -22.062700 -22.416500
H -23.215400 -21.630800 -24.818500
H -23.135100 -16.402900 -20.678900
H -22.790900 -18.381300 -19.422400
C -21.983400 -22.358800 -22.422400
H -21.852200 -23.338100 -22.241200
H -21.587400 -21.875200 -21.674100
H -21.583500 -22.176400 -23.256200
