20
Fragment
H -12.922700 -1.866900 -62.452500
O -12.669600 -2.253100 -61.619600
H -11.512900 -4.069000 -60.173600
C -11.409200 -2.684100 -61.679900
H -11.163900 -2.602900 -59.645600
C -10.968100 -3.263500 -60.357400
O -10.718100 -2.605200 -62.675700
H -9.694800 -4.859100 -58.585500
C -9.498900 -3.646100 -60.264900
H -9.323800 -3.345400 -58.212300
H -9.310700 -4.385200 -60.896200
C -9.135600 -4.084500 -58.843600
H -8.939700 -2.871500 -60.523000
O -7.916400 -5.125400 -56.432800
C -7.666400 -4.467100 -58.751000
H -7.470600 -5.127700 -59.462900
C -7.225300 -5.046500 -57.428500
H -7.121600 -3.661600 -58.934900
O -5.964900 -5.477500 -57.488900
H -5.711800 -5.863700 -56.655900
17
Fragment
H -13.338200 -2.735100 -54.456400
H -12.862000 -3.750900 -52.415700
C -12.455400 -3.045500 -54.290800
C -12.181600 -3.651900 -53.072400
H -12.109800 -4.251800 -50.561500
N -11.529500 -2.878500 -55.247300
N -11.334000 -4.678900 -50.518700
N -11.085900 -5.334500 -49.281900
C -10.884600 -4.113100 -52.830600
H -10.606700 -6.072400 -49.473700
H -10.526500 -4.781400 -48.763000
C -10.459000 -4.756600 -51.539400
C -10.294000 -3.341900 -55.022600
C -9.932600 -3.969300 -53.832300
H -9.637500 -3.239500 -55.703100
O -9.364800 -5.323300 -51.427900
H -9.048500 -4.293600 -53.706000
37
Fragment
H -12.922700 -1.866900 -62.452500
O -12.669600 -2.253100 -61.619600
H -11.512900 -4.069000 -60.173600
C -11.409200 -2.684100 -61.679900
H -11.163900 -2.602900 -59.645600
C -10.968100 -3.263500 -60.357400
O -10.718100 -2.605200 -62.675700
H -9.694800 -4.859100 -58.585500
C -9.498900 -3.646100 -60.264900
H -9.323800 -3.345400 -58.212300
H -9.310700 -4.385200 -60.896200
C -9.135600 -4.084500 -58.843600
H -8.939700 -2.871500 -60.523000
O -7.916400 -5.125400 -56.432800
C -7.666400 -4.467100 -58.751000
H -7.470600 -5.127700 -59.462900
C -7.225300 -5.046500 -57.428500
H -7.121600 -3.661600 -58.934900
O -5.964900 -5.477500 -57.488900
H -5.711800 -5.863700 -56.655900
H -13.338200 -2.735100 -54.456400
H -12.862000 -3.750900 -52.415700
C -12.455400 -3.045500 -54.290800
C -12.181600 -3.651900 -53.072400
H -12.109800 -4.251800 -50.561500
N -11.529500 -2.878500 -55.247300
N -11.334000 -4.678900 -50.518700
N -11.085900 -5.334500 -49.281900
C -10.884600 -4.113100 -52.830600
H -10.606700 -6.072400 -49.473700
H -10.526500 -4.781400 -48.763000
C -10.459000 -4.756600 -51.539400
C -10.294000 -3.341900 -55.022600
C -9.932600 -3.969300 -53.832300
H -9.637500 -3.239500 -55.703100
O -9.364800 -5.323300 -51.427900
H -9.048500 -4.293600 -53.706000
