17
Fragment
H -17.547700 -15.704300 -17.542000
H -17.190200 -15.182900 -19.801200
H -16.954400 -16.987700 -18.288800
C -16.740200 -16.070700 -17.981700
C -16.406600 -15.209300 -19.196700
H -16.222400 -14.283800 -18.897900
O -15.684500 -17.233500 -16.224500
O -15.656800 -14.193500 -21.756200
C -15.632000 -16.143200 -16.976300
H -15.324100 -16.705600 -20.116100
C -15.202800 -15.735700 -19.962400
H -14.984700 -17.201100 -15.692600
C -14.969000 -15.063500 -21.287400
O -14.775100 -15.292600 -16.842900
H -14.395100 -15.619600 -19.401000
O -13.890300 -15.541200 -21.891300
H -13.740200 -15.106800 -22.699600
17
Fragment
H -14.936100 -17.820400 -8.616000
H -14.557800 -17.151300 -10.800800
H -14.438000 -17.727900 -13.001500
C -14.197600 -18.188400 -9.086800
C -13.981200 -17.783800 -10.389600
N -13.636700 -17.608500 -13.258700
N -13.475800 -17.299800 -14.632400
N -13.420000 -19.072400 -8.456300
H -13.047200 -16.513900 -14.654700
H -12.924900 -17.894200 -15.001200
C -12.904500 -18.318900 -11.087000
C -12.591400 -17.964900 -12.500900
C -12.372000 -19.565300 -9.129700
C -12.082900 -19.219700 -10.431600
H -11.801100 -20.183200 -8.688700
O -11.440700 -18.022200 -12.948500
H -11.329600 -19.593600 -10.873600
34
Fragment
H -17.547700 -15.704300 -17.542000
H -17.190200 -15.182900 -19.801200
H -16.954400 -16.987700 -18.288800
C -16.740200 -16.070700 -17.981700
C -16.406600 -15.209300 -19.196700
H -16.222400 -14.283800 -18.897900
O -15.684500 -17.233500 -16.224500
O -15.656800 -14.193500 -21.756200
C -15.632000 -16.143200 -16.976300
H -15.324100 -16.705600 -20.116100
C -15.202800 -15.735700 -19.962400
H -14.984700 -17.201100 -15.692600
C -14.969000 -15.063500 -21.287400
O -14.775100 -15.292600 -16.842900
H -14.395100 -15.619600 -19.401000
O -13.890300 -15.541200 -21.891300
H -13.740200 -15.106800 -22.699600
H -14.936100 -17.820400 -8.616000
H -14.557800 -17.151300 -10.800800
H -14.438000 -17.727900 -13.001500
C -14.197600 -18.188400 -9.086800
C -13.981200 -17.783800 -10.389600
N -13.636700 -17.608500 -13.258700
N -13.475800 -17.299800 -14.632400
N -13.420000 -19.072400 -8.456300
H -13.047200 -16.513900 -14.654700
H -12.924900 -17.894200 -15.001200
C -12.904500 -18.318900 -11.087000
C -12.591400 -17.964900 -12.500900
C -12.372000 -19.565300 -9.129700
C -12.082900 -19.219700 -10.431600
H -11.801100 -20.183200 -8.688700
O -11.440700 -18.022200 -12.948500
H -11.329600 -19.593600 -10.873600
