17
Fragment
H -17.547700 -15.704300 -17.542000
H -17.190200 -15.182900 -19.801200
H -16.954400 -16.987700 -18.288800
C -16.740200 -16.070700 -17.981700
C -16.406600 -15.209300 -19.196700
H -16.222400 -14.283800 -18.897900
O -15.684500 -17.233500 -16.224500
O -15.656800 -14.193500 -21.756200
C -15.632000 -16.143200 -16.976300
H -15.324100 -16.705600 -20.116100
C -15.202800 -15.735700 -19.962400
H -14.984700 -17.201100 -15.692600
C -14.969000 -15.063500 -21.287400
O -14.775100 -15.292600 -16.842900
H -14.395100 -15.619600 -19.401000
O -13.890300 -15.541200 -21.891300
H -13.740200 -15.106800 -22.699600
17
Fragment
H -19.937600 -13.251900 -24.436700
H -19.559200 -12.582800 -26.621600
H -19.439500 -13.159500 -28.822200
C -19.199100 -13.620000 -24.907500
C -18.982700 -13.215300 -26.210400
N -18.638200 -13.040000 -29.079500
N -18.477300 -12.731300 -30.453200
N -18.421500 -14.503900 -24.277100
H -18.048700 -11.945400 -30.475500
H -17.926300 -13.325700 -30.822000
C -17.906000 -13.750400 -26.907800
C -17.592900 -13.396400 -28.321600
C -17.373400 -14.996800 -24.950400
C -17.084300 -14.651200 -26.252300
H -16.802600 -15.614700 -24.509500
O -16.442200 -13.453700 -28.769200
H -16.331000 -15.025100 -26.694300
34
Fragment
H -17.547700 -15.704300 -17.542000
H -17.190200 -15.182900 -19.801200
H -16.954400 -16.987700 -18.288800
C -16.740200 -16.070700 -17.981700
C -16.406600 -15.209300 -19.196700
H -16.222400 -14.283800 -18.897900
O -15.684500 -17.233500 -16.224500
O -15.656800 -14.193500 -21.756200
C -15.632000 -16.143200 -16.976300
H -15.324100 -16.705600 -20.116100
C -15.202800 -15.735700 -19.962400
H -14.984700 -17.201100 -15.692600
C -14.969000 -15.063500 -21.287400
O -14.775100 -15.292600 -16.842900
H -14.395100 -15.619600 -19.401000
O -13.890300 -15.541200 -21.891300
H -13.740200 -15.106800 -22.699600
H -19.937600 -13.251900 -24.436700
H -19.559200 -12.582800 -26.621600
H -19.439500 -13.159500 -28.822200
C -19.199100 -13.620000 -24.907500
C -18.982700 -13.215300 -26.210400
N -18.638200 -13.040000 -29.079500
N -18.477300 -12.731300 -30.453200
N -18.421500 -14.503900 -24.277100
H -18.048700 -11.945400 -30.475500
H -17.926300 -13.325700 -30.822000
C -17.906000 -13.750400 -26.907800
C -17.592900 -13.396400 -28.321600
C -17.373400 -14.996800 -24.950400
C -17.084300 -14.651200 -26.252300
H -16.802600 -15.614700 -24.509500
O -16.442200 -13.453700 -28.769200
H -16.331000 -15.025100 -26.694300
