17
Fragment
H -7.487400 -34.359300 -9.256500
H -6.624700 -32.231100 -9.220200
C -6.570100 -34.243500 -9.353800
C -6.060100 -32.960700 -9.331100
N -5.803300 -35.328500 -9.510400
H -5.646600 -30.462900 -9.728000
N -4.811500 -30.376800 -9.524700
C -4.689800 -32.777800 -9.475700
C -4.487800 -35.152800 -9.661800
N -4.390600 -29.048500 -9.268800
H -4.088200 -29.037000 -8.411500
C -4.010700 -31.435400 -9.366800
H -3.947500 -35.900600 -9.782500
C -3.897700 -33.902500 -9.646900
H -3.703100 -28.870700 -9.799300
H -2.977400 -33.817500 -9.751300
O -2.808400 -31.343900 -9.127500
17
Fragment
H -14.485000 -34.359300 -9.256500
H -13.622300 -32.231100 -9.220200
C -13.567700 -34.243500 -9.353800
C -13.057700 -32.960700 -9.331100
N -12.800900 -35.328500 -9.510400
H -12.644200 -30.462900 -9.728000
N -11.809100 -30.376800 -9.524700
C -11.687400 -32.777800 -9.475700
C -11.485400 -35.152800 -9.661800
N -11.388200 -29.048500 -9.268800
H -11.085800 -29.037000 -8.411500
C -11.008300 -31.435400 -9.366800
H -10.945100 -35.900600 -9.782500
C -10.895300 -33.902500 -9.646900
H -10.700700 -28.870700 -9.799300
H -9.975000 -33.817500 -9.751300
O -9.806000 -31.343900 -9.127500
34
Fragment
H -7.487400 -34.359300 -9.256500
H -6.624700 -32.231100 -9.220200
C -6.570100 -34.243500 -9.353800
C -6.060100 -32.960700 -9.331100
N -5.803300 -35.328500 -9.510400
H -5.646600 -30.462900 -9.728000
N -4.811500 -30.376800 -9.524700
C -4.689800 -32.777800 -9.475700
C -4.487800 -35.152800 -9.661800
N -4.390600 -29.048500 -9.268800
H -4.088200 -29.037000 -8.411500
C -4.010700 -31.435400 -9.366800
H -3.947500 -35.900600 -9.782500
C -3.897700 -33.902500 -9.646900
H -3.703100 -28.870700 -9.799300
H -2.977400 -33.817500 -9.751300
O -2.808400 -31.343900 -9.127500
H -14.485000 -34.359300 -9.256500
H -13.622300 -32.231100 -9.220200
C -13.567700 -34.243500 -9.353800
C -13.057700 -32.960700 -9.331100
N -12.800900 -35.328500 -9.510400
H -12.644200 -30.462900 -9.728000
N -11.809100 -30.376800 -9.524700
C -11.687400 -32.777800 -9.475700
C -11.485400 -35.152800 -9.661800
N -11.388200 -29.048500 -9.268800
H -11.085800 -29.037000 -8.411500
C -11.008300 -31.435400 -9.366800
H -10.945100 -35.900600 -9.782500
C -10.895300 -33.902500 -9.646900
H -10.700700 -28.870700 -9.799300
H -9.975000 -33.817500 -9.751300
O -9.806000 -31.343900 -9.127500
