17
Fragment
H -10.216300 -6.998600 -54.476000
H -9.741600 -5.991100 -52.442200
C -9.334000 -6.685900 -54.315500
C -9.061600 -6.086500 -53.097600
H -8.997200 -5.508900 -50.607000
N -8.419700 -6.845800 -55.270900
N -8.218600 -5.065900 -50.543000
N -7.972700 -4.414100 -49.304500
C -7.772700 -5.627200 -52.854100
H -7.485200 -3.666100 -49.510600
H -7.429700 -4.969600 -48.791700
C -7.347300 -4.987100 -51.557600
C -7.188300 -6.383300 -55.042400
C -6.829100 -5.763800 -53.853500
H -6.531100 -6.482300 -55.723300
O -6.256200 -4.423800 -51.445500
H -5.945400 -5.438300 -53.729200
20
Fragment
H -9.795600 -7.844300 -62.484100
O -9.556600 -7.422600 -61.647600
H -8.404000 -5.613600 -60.192100
C -8.303900 -6.989300 -61.707600
H -8.052800 -7.082400 -59.675700
C -7.860000 -6.417900 -60.385200
O -7.621200 -7.059900 -62.701800
H -6.583900 -4.828800 -58.611200
C -6.393400 -6.035700 -60.295000
H -6.212100 -6.343800 -58.245700
H -6.206400 -5.294700 -60.923000
C -6.025100 -5.602800 -58.873700
H -5.834600 -6.809700 -60.557600
O -4.797200 -4.578600 -56.466900
C -4.558500 -5.220600 -58.783600
H -4.365600 -4.556100 -59.493000
C -4.114600 -4.649200 -57.461200
H -4.014400 -6.024900 -58.976600
O -2.861800 -4.215900 -57.521200
H -2.622800 -3.794200 -56.684600
37
Fragment
H -10.216300 -6.998600 -54.476000
H -9.741600 -5.991100 -52.442200
C -9.334000 -6.685900 -54.315500
C -9.061600 -6.086500 -53.097600
H -8.997200 -5.508900 -50.607000
N -8.419700 -6.845800 -55.270900
N -8.218600 -5.065900 -50.543000
N -7.972700 -4.414100 -49.304500
C -7.772700 -5.627200 -52.854100
H -7.485200 -3.666100 -49.510600
H -7.429700 -4.969600 -48.791700
C -7.347300 -4.987100 -51.557600
C -7.188300 -6.383300 -55.042400
C -6.829100 -5.763800 -53.853500
H -6.531100 -6.482300 -55.723300
O -6.256200 -4.423800 -51.445500
H -5.945400 -5.438300 -53.729200
H -9.795600 -7.844300 -62.484100
O -9.556600 -7.422600 -61.647600
H -8.404000 -5.613600 -60.192100
C -8.303900 -6.989300 -61.707600
H -8.052800 -7.082400 -59.675700
C -7.860000 -6.417900 -60.385200
O -7.621200 -7.059900 -62.701800
H -6.583900 -4.828800 -58.611200
C -6.393400 -6.035700 -60.295000
H -6.212100 -6.343800 -58.245700
H -6.206400 -5.294700 -60.923000
C -6.025100 -5.602800 -58.873700
H -5.834600 -6.809700 -60.557600
O -4.797200 -4.578600 -56.466900
C -4.558500 -5.220600 -58.783600
H -4.365600 -4.556100 -59.493000
C -4.114600 -4.649200 -57.461200
H -4.014400 -6.024900 -58.976600
O -2.861800 -4.215900 -57.521200
H -2.622800 -3.794200 -56.684600
