17
Fragment
H -17.547700 -15.704300 -17.542000
H -17.190200 -15.182900 -19.801200
H -16.954400 -16.987700 -18.288800
C -16.740200 -16.070700 -17.981700
C -16.406600 -15.209300 -19.196700
H -16.222400 -14.283800 -18.897900
O -15.684500 -17.233500 -16.224500
O -15.656800 -14.193500 -21.756200
C -15.632000 -16.143200 -16.976300
H -15.324100 -16.705600 -20.116100
C -15.202800 -15.735700 -19.962400
H -14.984700 -17.201100 -15.692600
C -14.969000 -15.063500 -21.287400
O -14.775100 -15.292600 -16.842900
H -14.395100 -15.619600 -19.401000
O -13.890300 -15.541200 -21.891300
H -13.740200 -15.106800 -22.699600
17
Fragment
H -22.611800 -15.704300 -17.542000
H -22.254300 -15.182900 -19.801200
H -22.018500 -16.987700 -18.288800
C -21.804300 -16.070700 -17.981700
C -21.470700 -15.209300 -19.196700
H -21.286500 -14.283800 -18.897900
O -20.748600 -17.233500 -16.224500
O -20.720900 -14.193500 -21.756200
C -20.696100 -16.143200 -16.976300
H -20.388200 -16.705600 -20.116100
C -20.266900 -15.735700 -19.962400
H -20.048800 -17.201100 -15.692600
C -20.033100 -15.063500 -21.287400
O -19.839200 -15.292600 -16.842900
H -19.459200 -15.619600 -19.401000
O -18.954400 -15.541200 -21.891300
H -18.804300 -15.106800 -22.699600
34
Fragment
H -17.547700 -15.704300 -17.542000
H -17.190200 -15.182900 -19.801200
H -16.954400 -16.987700 -18.288800
C -16.740200 -16.070700 -17.981700
C -16.406600 -15.209300 -19.196700
H -16.222400 -14.283800 -18.897900
O -15.684500 -17.233500 -16.224500
O -15.656800 -14.193500 -21.756200
C -15.632000 -16.143200 -16.976300
H -15.324100 -16.705600 -20.116100
C -15.202800 -15.735700 -19.962400
H -14.984700 -17.201100 -15.692600
C -14.969000 -15.063500 -21.287400
O -14.775100 -15.292600 -16.842900
H -14.395100 -15.619600 -19.401000
O -13.890300 -15.541200 -21.891300
H -13.740200 -15.106800 -22.699600
H -22.611800 -15.704300 -17.542000
H -22.254300 -15.182900 -19.801200
H -22.018500 -16.987700 -18.288800
C -21.804300 -16.070700 -17.981700
C -21.470700 -15.209300 -19.196700
H -21.286500 -14.283800 -18.897900
O -20.748600 -17.233500 -16.224500
O -20.720900 -14.193500 -21.756200
C -20.696100 -16.143200 -16.976300
H -20.388200 -16.705600 -20.116100
C -20.266900 -15.735700 -19.962400
H -20.048800 -17.201100 -15.692600
C -20.033100 -15.063500 -21.287400
O -19.839200 -15.292600 -16.842900
H -19.459200 -15.619600 -19.401000
O -18.954400 -15.541200 -21.891300
H -18.804300 -15.106800 -22.699600
