20
Fragment
H -12.922700 -1.866900 -62.452500
O -12.669600 -2.253100 -61.619600
H -11.512900 -4.069000 -60.173600
C -11.409200 -2.684100 -61.679900
H -11.163900 -2.602900 -59.645600
C -10.968100 -3.263500 -60.357400
O -10.718100 -2.605200 -62.675700
H -9.694800 -4.859100 -58.585500
C -9.498900 -3.646100 -60.264900
H -9.323800 -3.345400 -58.212300
H -9.310700 -4.385200 -60.896200
C -9.135600 -4.084500 -58.843600
H -8.939700 -2.871500 -60.523000
O -7.916400 -5.125400 -56.432800
C -7.666400 -4.467100 -58.751000
H -7.470600 -5.127700 -59.462900
C -7.225300 -5.046500 -57.428500
H -7.121600 -3.661600 -58.934900
O -5.964900 -5.477500 -57.488900
H -5.711800 -5.863700 -56.655900
20
Fragment
H -6.593400 -1.866900 -62.452500
O -6.340300 -2.253100 -61.619600
H -5.183600 -4.069000 -60.173600
C -5.079900 -2.684100 -61.679900
H -4.834600 -2.602900 -59.645600
C -4.638800 -3.263500 -60.357400
O -4.388800 -2.605200 -62.675700
H -3.365500 -4.859100 -58.585500
C -3.169600 -3.646100 -60.264900
H -2.994500 -3.345400 -58.212300
H -2.981400 -4.385200 -60.896200
C -2.806300 -4.084500 -58.843600
H -2.610400 -2.871500 -60.523000
O -1.587100 -5.125400 -56.432800
C -1.337100 -4.467100 -58.751000
H -1.141300 -5.127700 -59.462900
C -0.896000 -5.046500 -57.428500
H -0.792300 -3.661600 -58.934900
O 0.364400 -5.477500 -57.488900
H 0.617500 -5.863700 -56.655900
40
Fragment
H -12.922700 -1.866900 -62.452500
O -12.669600 -2.253100 -61.619600
H -11.512900 -4.069000 -60.173600
C -11.409200 -2.684100 -61.679900
H -11.163900 -2.602900 -59.645600
C -10.968100 -3.263500 -60.357400
O -10.718100 -2.605200 -62.675700
H -9.694800 -4.859100 -58.585500
C -9.498900 -3.646100 -60.264900
H -9.323800 -3.345400 -58.212300
H -9.310700 -4.385200 -60.896200
C -9.135600 -4.084500 -58.843600
H -8.939700 -2.871500 -60.523000
O -7.916400 -5.125400 -56.432800
C -7.666400 -4.467100 -58.751000
H -7.470600 -5.127700 -59.462900
C -7.225300 -5.046500 -57.428500
H -7.121600 -3.661600 -58.934900
O -5.964900 -5.477500 -57.488900
H -5.711800 -5.863700 -56.655900
H -6.593400 -1.866900 -62.452500
O -6.340300 -2.253100 -61.619600
H -5.183600 -4.069000 -60.173600
C -5.079900 -2.684100 -61.679900
H -4.834600 -2.602900 -59.645600
C -4.638800 -3.263500 -60.357400
O -4.388800 -2.605200 -62.675700
H -3.365500 -4.859100 -58.585500
C -3.169600 -3.646100 -60.264900
H -2.994500 -3.345400 -58.212300
H -2.981400 -4.385200 -60.896200
C -2.806300 -4.084500 -58.843600
H -2.610400 -2.871500 -60.523000
O -1.587100 -5.125400 -56.432800
C -1.337100 -4.467100 -58.751000
H -1.141300 -5.127700 -59.462900
C -0.896000 -5.046500 -57.428500
H -0.792300 -3.661600 -58.934900
O 0.364400 -5.477500 -57.488900
H 0.617500 -5.863700 -56.655900
