17
Fragment
H -13.540400 -46.009100 -4.739400
C -12.638500 -45.756300 -4.895400
N -12.247100 -44.513600 -4.581900
H -12.070500 -47.553400 -5.649300
C -11.769000 -46.678100 -5.438000
C -10.978600 -44.172500 -4.788200
H -10.698900 -43.296100 -4.551400
C -10.456400 -46.317700 -5.672200
C -10.058100 -45.031800 -5.327300
O -9.733400 -48.543600 -6.126900
C -9.494700 -47.344300 -6.221000
H -9.160700 -44.753500 -5.463900
N -8.393600 -46.865600 -6.792600
H -8.260300 -46.011900 -6.919900
H -7.834100 -48.251300 -7.949400
N -7.401700 -47.686500 -7.378500
H -7.028300 -48.217700 -6.645100
11
Fragment
H -17.813200 -40.726000 -3.758000
O -17.419500 -41.377700 -3.400000
C -16.239400 -41.019200 -3.040800
H -16.145600 -42.511400 -1.614300
O -15.725600 -39.944900 -3.345400
C -15.497800 -42.040500 -2.197100
O -15.270000 -44.136100 -3.345400
H -14.850000 -41.569600 -1.614300
C -14.756200 -43.061800 -3.040800
O -13.576100 -42.703300 -3.400000
H -13.182400 -43.355000 -3.758000
28
Fragment
H -13.540400 -46.009100 -4.739400
C -12.638500 -45.756300 -4.895400
N -12.247100 -44.513600 -4.581900
H -12.070500 -47.553400 -5.649300
C -11.769000 -46.678100 -5.438000
C -10.978600 -44.172500 -4.788200
H -10.698900 -43.296100 -4.551400
C -10.456400 -46.317700 -5.672200
C -10.058100 -45.031800 -5.327300
O -9.733400 -48.543600 -6.126900
C -9.494700 -47.344300 -6.221000
H -9.160700 -44.753500 -5.463900
N -8.393600 -46.865600 -6.792600
H -8.260300 -46.011900 -6.919900
H -7.834100 -48.251300 -7.949400
N -7.401700 -47.686500 -7.378500
H -7.028300 -48.217700 -6.645100
H -17.813200 -40.726000 -3.758000
O -17.419500 -41.377700 -3.400000
C -16.239400 -41.019200 -3.040800
H -16.145600 -42.511400 -1.614300
O -15.725600 -39.944900 -3.345400
C -15.497800 -42.040500 -2.197100
O -15.270000 -44.136100 -3.345400
H -14.850000 -41.569600 -1.614300
C -14.756200 -43.061800 -3.040800
O -13.576100 -42.703300 -3.400000
H -13.182400 -43.355000 -3.758000
