17
Fragment
H -7.487400 -34.359300 -9.256500
H -6.624700 -32.231100 -9.220200
C -6.570100 -34.243500 -9.353800
C -6.060100 -32.960700 -9.331100
N -5.803300 -35.328500 -9.510400
H -5.646600 -30.462900 -9.728000
N -4.811500 -30.376800 -9.524700
C -4.689800 -32.777800 -9.475700
C -4.487800 -35.152800 -9.661800
N -4.390600 -29.048500 -9.268800
H -4.088200 -29.037000 -8.411500
C -4.010700 -31.435400 -9.366800
H -3.947500 -35.900600 -9.782500
C -3.897700 -33.902500 -9.646900
H -3.703100 -28.870700 -9.799300
H -2.977400 -33.817500 -9.751300
O -2.808400 -31.343900 -9.127500
14
Fragment
H -10.453700 -27.034000 -6.712300
O -10.153700 -27.961900 -6.660300
C -8.832600 -27.956100 -6.640300
H -8.586400 -29.747000 -5.701300
H -8.536900 -29.874100 -7.261600
C -8.243800 -29.335300 -6.510000
O -8.175800 -26.944600 -6.718200
O -6.798400 -31.735700 -6.252500
C -6.730400 -29.345000 -6.460700
H -6.437300 -28.806200 -5.709000
H -6.387800 -28.933300 -7.269400
C -6.141600 -30.724200 -6.330300
O -4.820600 -30.718400 -6.310400
H -4.520500 -31.646300 -6.258300
31
Fragment
H -7.487400 -34.359300 -9.256500
H -6.624700 -32.231100 -9.220200
C -6.570100 -34.243500 -9.353800
C -6.060100 -32.960700 -9.331100
N -5.803300 -35.328500 -9.510400
H -5.646600 -30.462900 -9.728000
N -4.811500 -30.376800 -9.524700
C -4.689800 -32.777800 -9.475700
C -4.487800 -35.152800 -9.661800
N -4.390600 -29.048500 -9.268800
H -4.088200 -29.037000 -8.411500
C -4.010700 -31.435400 -9.366800
H -3.947500 -35.900600 -9.782500
C -3.897700 -33.902500 -9.646900
H -3.703100 -28.870700 -9.799300
H -2.977400 -33.817500 -9.751300
O -2.808400 -31.343900 -9.127500
H -10.453700 -27.034000 -6.712300
O -10.153700 -27.961900 -6.660300
C -8.832600 -27.956100 -6.640300
H -8.586400 -29.747000 -5.701300
H -8.536900 -29.874100 -7.261600
C -8.243800 -29.335300 -6.510000
O -8.175800 -26.944600 -6.718200
O -6.798400 -31.735700 -6.252500
C -6.730400 -29.345000 -6.460700
H -6.437300 -28.806200 -5.709000
H -6.387800 -28.933300 -7.269400
C -6.141600 -30.724200 -6.330300
O -4.820600 -30.718400 -6.310400
H -4.520500 -31.646300 -6.258300
