17
Fragment
H -17.547700 -15.704300 -17.542000
H -17.190200 -15.182900 -19.801200
H -16.954400 -16.987700 -18.288800
C -16.740200 -16.070700 -17.981700
C -16.406600 -15.209300 -19.196700
H -16.222400 -14.283800 -18.897900
O -15.684500 -17.233500 -16.224500
O -15.656800 -14.193500 -21.756200
C -15.632000 -16.143200 -16.976300
H -15.324100 -16.705600 -20.116100
C -15.202800 -15.735700 -19.962400
H -14.984700 -17.201100 -15.692600
C -14.969000 -15.063500 -21.287400
O -14.775100 -15.292600 -16.842900
H -14.395100 -15.619600 -19.401000
O -13.890300 -15.541200 -21.891300
H -13.740200 -15.106800 -22.699600
17
Fragment
H -13.208900 -14.732800 -8.941900
O -13.058900 -14.298400 -9.750200
H -12.554100 -14.220000 -12.240500
O -12.174100 -14.547000 -14.798600
C -11.980100 -14.776100 -10.354000
H -11.964500 -12.638500 -15.948900
C -11.746300 -14.103900 -11.679000
H -11.625100 -13.134000 -11.525400
C -11.317100 -13.696400 -14.665200
O -11.292400 -15.646100 -9.885300
O -11.264700 -12.606100 -15.417000
H -10.726800 -15.555800 -12.743600
C -10.542600 -14.630300 -12.444700
C -10.209000 -13.768900 -13.659800
H -9.994700 -12.851900 -13.352700
H -9.759000 -14.656700 -11.840200
H -9.401500 -14.135300 -14.099400
34
Fragment
H -17.547700 -15.704300 -17.542000
H -17.190200 -15.182900 -19.801200
H -16.954400 -16.987700 -18.288800
C -16.740200 -16.070700 -17.981700
C -16.406600 -15.209300 -19.196700
H -16.222400 -14.283800 -18.897900
O -15.684500 -17.233500 -16.224500
O -15.656800 -14.193500 -21.756200
C -15.632000 -16.143200 -16.976300
H -15.324100 -16.705600 -20.116100
C -15.202800 -15.735700 -19.962400
H -14.984700 -17.201100 -15.692600
C -14.969000 -15.063500 -21.287400
O -14.775100 -15.292600 -16.842900
H -14.395100 -15.619600 -19.401000
O -13.890300 -15.541200 -21.891300
H -13.740200 -15.106800 -22.699600
H -13.208900 -14.732800 -8.941900
O -13.058900 -14.298400 -9.750200
H -12.554100 -14.220000 -12.240500
O -12.174100 -14.547000 -14.798600
C -11.980100 -14.776100 -10.354000
H -11.964500 -12.638500 -15.948900
C -11.746300 -14.103900 -11.679000
H -11.625100 -13.134000 -11.525400
C -11.317100 -13.696400 -14.665200
O -11.292400 -15.646100 -9.885300
O -11.264700 -12.606100 -15.417000
H -10.726800 -15.555800 -12.743600
C -10.542600 -14.630300 -12.444700
C -10.209000 -13.768900 -13.659800
H -9.994700 -12.851900 -13.352700
H -9.759000 -14.656700 -11.840200
H -9.401500 -14.135300 -14.099400
