17
Fragment
H -17.547700 -15.704300 -17.542000
H -17.190200 -15.182900 -19.801200
H -16.954400 -16.987700 -18.288800
C -16.740200 -16.070700 -17.981700
C -16.406600 -15.209300 -19.196700
H -16.222400 -14.283800 -18.897900
O -15.684500 -17.233500 -16.224500
O -15.656800 -14.193500 -21.756200
C -15.632000 -16.143200 -16.976300
H -15.324100 -16.705600 -20.116100
C -15.202800 -15.735700 -19.962400
H -14.984700 -17.201100 -15.692600
C -14.969000 -15.063500 -21.287400
O -14.775100 -15.292600 -16.842900
H -14.395100 -15.619600 -19.401000
O -13.890300 -15.541200 -21.891300
H -13.740200 -15.106800 -22.699600
17
Fragment
H -15.619600 -10.246000 -20.767900
O -15.508500 -11.817400 -18.693000
H -15.148000 -9.656500 -22.952700
C -14.866300 -10.620000 -21.209900
C -14.577200 -10.274300 -22.511800
C -14.357800 -11.874700 -19.140600
C -14.044600 -11.520700 -20.554500
H -14.024300 -11.945400 -16.640300
H -13.902000 -13.325700 -16.986700
N -13.529200 -10.767200 -23.185100
N -13.473300 -12.539800 -17.009000
N -13.312400 -12.231200 -18.382700
C -12.968000 -12.055800 -21.251800
C -12.751600 -11.651200 -22.554700
H -12.511200 -12.111700 -18.640000
H -12.391400 -12.688300 -20.840700
H -12.013100 -12.019200 -23.025500
34
Fragment
H -17.547700 -15.704300 -17.542000
H -17.190200 -15.182900 -19.801200
H -16.954400 -16.987700 -18.288800
C -16.740200 -16.070700 -17.981700
C -16.406600 -15.209300 -19.196700
H -16.222400 -14.283800 -18.897900
O -15.684500 -17.233500 -16.224500
O -15.656800 -14.193500 -21.756200
C -15.632000 -16.143200 -16.976300
H -15.324100 -16.705600 -20.116100
C -15.202800 -15.735700 -19.962400
H -14.984700 -17.201100 -15.692600
C -14.969000 -15.063500 -21.287400
O -14.775100 -15.292600 -16.842900
H -14.395100 -15.619600 -19.401000
O -13.890300 -15.541200 -21.891300
H -13.740200 -15.106800 -22.699600
H -15.619600 -10.246000 -20.767900
O -15.508500 -11.817400 -18.693000
H -15.148000 -9.656500 -22.952700
C -14.866300 -10.620000 -21.209900
C -14.577200 -10.274300 -22.511800
C -14.357800 -11.874700 -19.140600
C -14.044600 -11.520700 -20.554500
H -14.024300 -11.945400 -16.640300
H -13.902000 -13.325700 -16.986700
N -13.529200 -10.767200 -23.185100
N -13.473300 -12.539800 -17.009000
N -13.312400 -12.231200 -18.382700
C -12.968000 -12.055800 -21.251800
C -12.751600 -11.651200 -22.554700
H -12.511200 -12.111700 -18.640000
H -12.391400 -12.688300 -20.840700
H -12.013100 -12.019200 -23.025500
