17
Fragment
H -7.487400 -34.359300 -9.256500
H -6.624700 -32.231100 -9.220200
C -6.570100 -34.243500 -9.353800
C -6.060100 -32.960700 -9.331100
N -5.803300 -35.328500 -9.510400
H -5.646600 -30.462900 -9.728000
N -4.811500 -30.376800 -9.524700
C -4.689800 -32.777800 -9.475700
C -4.487800 -35.152800 -9.661800
N -4.390600 -29.048500 -9.268800
H -4.088200 -29.037000 -8.411500
C -4.010700 -31.435400 -9.366800
H -3.947500 -35.900600 -9.782500
C -3.897700 -33.902500 -9.646900
H -3.703100 -28.870700 -9.799300
H -2.977400 -33.817500 -9.751300
O -2.808400 -31.343900 -9.127500
17
Fragment
H -5.493200 -34.101100 -6.013800
H -4.630500 -36.229200 -5.977500
C -4.576000 -34.216900 -6.111100
C -4.066000 -35.499600 -6.088400
N -3.809200 -33.131900 -6.267700
H -3.652400 -37.997500 -6.485300
N -2.817300 -38.083500 -6.282100
C -2.695600 -35.682500 -6.233100
C -2.493600 -33.307500 -6.419200
N -2.396500 -39.411800 -6.026200
H -2.094100 -39.423400 -5.168800
C -2.016600 -37.024900 -6.124100
H -1.953300 -32.559700 -6.539800
C -1.903600 -34.557800 -6.404300
H -1.709000 -39.589600 -6.556700
H -0.983200 -34.642900 -6.508700
O -0.814300 -37.116500 -5.884900
34
Fragment
H -7.487400 -34.359300 -9.256500
H -6.624700 -32.231100 -9.220200
C -6.570100 -34.243500 -9.353800
C -6.060100 -32.960700 -9.331100
N -5.803300 -35.328500 -9.510400
H -5.646600 -30.462900 -9.728000
N -4.811500 -30.376800 -9.524700
C -4.689800 -32.777800 -9.475700
C -4.487800 -35.152800 -9.661800
N -4.390600 -29.048500 -9.268800
H -4.088200 -29.037000 -8.411500
C -4.010700 -31.435400 -9.366800
H -3.947500 -35.900600 -9.782500
C -3.897700 -33.902500 -9.646900
H -3.703100 -28.870700 -9.799300
H -2.977400 -33.817500 -9.751300
O -2.808400 -31.343900 -9.127500
H -5.493200 -34.101100 -6.013800
H -4.630500 -36.229200 -5.977500
C -4.576000 -34.216900 -6.111100
C -4.066000 -35.499600 -6.088400
N -3.809200 -33.131900 -6.267700
H -3.652400 -37.997500 -6.485300
N -2.817300 -38.083500 -6.282100
C -2.695600 -35.682500 -6.233100
C -2.493600 -33.307500 -6.419200
N -2.396500 -39.411800 -6.026200
H -2.094100 -39.423400 -5.168800
C -2.016600 -37.024900 -6.124100
H -1.953300 -32.559700 -6.539800
C -1.903600 -34.557800 -6.404300
H -1.709000 -39.589600 -6.556700
H -0.983200 -34.642900 -6.508700
O -0.814300 -37.116500 -5.884900
