17
Fragment
H -10.216300 -6.998600 -54.476000
H -9.741600 -5.991100 -52.442200
C -9.334000 -6.685900 -54.315500
C -9.061600 -6.086500 -53.097600
H -8.997200 -5.508900 -50.607000
N -8.419700 -6.845800 -55.270900
N -8.218600 -5.065900 -50.543000
N -7.972700 -4.414100 -49.304500
C -7.772700 -5.627200 -52.854100
H -7.485200 -3.666100 -49.510600
H -7.429700 -4.969600 -48.791700
C -7.347300 -4.987100 -51.557600
C -7.188300 -6.383300 -55.042400
C -6.829100 -5.763800 -53.853500
H -6.531100 -6.482300 -55.723300
O -6.256200 -4.423800 -51.445500
H -5.945400 -5.438300 -53.729200
17
Fragment
H -10.216300 -3.119100 -54.476000
H -9.741600 -2.111600 -52.442200
C -9.334000 -2.806400 -54.315500
C -9.061600 -2.207000 -53.097600
H -8.997200 -1.629400 -50.607000
N -8.419700 -2.966300 -55.270900
N -8.218600 -1.186400 -50.543000
N -7.972700 -0.534600 -49.304500
C -7.772700 -1.747700 -52.854100
H -7.485200 0.213400 -49.510600
H -7.429700 -1.090100 -48.791700
C -7.347300 -1.107600 -51.557600
C -7.188300 -2.503800 -55.042400
C -6.829100 -1.884300 -53.853500
H -6.531100 -2.602800 -55.723300
O -6.256200 -0.544300 -51.445500
H -5.945400 -1.558800 -53.729200
34
Fragment
H -10.216300 -6.998600 -54.476000
H -9.741600 -5.991100 -52.442200
C -9.334000 -6.685900 -54.315500
C -9.061600 -6.086500 -53.097600
H -8.997200 -5.508900 -50.607000
N -8.419700 -6.845800 -55.270900
N -8.218600 -5.065900 -50.543000
N -7.972700 -4.414100 -49.304500
C -7.772700 -5.627200 -52.854100
H -7.485200 -3.666100 -49.510600
H -7.429700 -4.969600 -48.791700
C -7.347300 -4.987100 -51.557600
C -7.188300 -6.383300 -55.042400
C -6.829100 -5.763800 -53.853500
H -6.531100 -6.482300 -55.723300
O -6.256200 -4.423800 -51.445500
H -5.945400 -5.438300 -53.729200
H -10.216300 -3.119100 -54.476000
H -9.741600 -2.111600 -52.442200
C -9.334000 -2.806400 -54.315500
C -9.061600 -2.207000 -53.097600
H -8.997200 -1.629400 -50.607000
N -8.419700 -2.966300 -55.270900
N -8.218600 -1.186400 -50.543000
N -7.972700 -0.534600 -49.304500
C -7.772700 -1.747700 -52.854100
H -7.485200 0.213400 -49.510600
H -7.429700 -1.090100 -48.791700
C -7.347300 -1.107600 -51.557600
C -7.188300 -2.503800 -55.042400
C -6.829100 -1.884300 -53.853500
H -6.531100 -2.602800 -55.723300
O -6.256200 -0.544300 -51.445500
H -5.945400 -1.558800 -53.729200
