20
Fragment
H -12.922700 -1.866900 -62.452500
O -12.669600 -2.253100 -61.619600
H -11.512900 -4.069000 -60.173600
C -11.409200 -2.684100 -61.679900
H -11.163900 -2.602900 -59.645600
C -10.968100 -3.263500 -60.357400
O -10.718100 -2.605200 -62.675700
H -9.694800 -4.859100 -58.585500
C -9.498900 -3.646100 -60.264900
H -9.323800 -3.345400 -58.212300
H -9.310700 -4.385200 -60.896200
C -9.135600 -4.084500 -58.843600
H -8.939700 -2.871500 -60.523000
O -7.916400 -5.125400 -56.432800
C -7.666400 -4.467100 -58.751000
H -7.470600 -5.127700 -59.462900
C -7.225300 -5.046500 -57.428500
H -7.121600 -3.661600 -58.934900
O -5.964900 -5.477500 -57.488900
H -5.711800 -5.863700 -56.655900
20
Fragment
H -12.922700 -5.732200 -62.452500
O -12.669600 -6.118400 -61.619600
H -11.512900 -7.934300 -60.173600
C -11.409200 -6.549400 -61.679900
H -11.163900 -6.468200 -59.645600
C -10.968100 -7.128800 -60.357400
O -10.718100 -6.470500 -62.675700
H -9.694800 -8.724400 -58.585500
C -9.498900 -7.511400 -60.264900
H -9.323800 -7.210700 -58.212300
H -9.310700 -8.250500 -60.896200
C -9.135600 -7.949800 -58.843600
H -8.939700 -6.736800 -60.523000
O -7.916400 -8.990700 -56.432800
C -7.666400 -8.332400 -58.751000
H -7.470600 -8.993000 -59.462900
C -7.225300 -8.911800 -57.428500
H -7.121600 -7.526900 -58.934900
O -5.964900 -9.342800 -57.488900
H -5.711800 -9.729000 -56.655900
40
Fragment
H -12.922700 -1.866900 -62.452500
O -12.669600 -2.253100 -61.619600
H -11.512900 -4.069000 -60.173600
C -11.409200 -2.684100 -61.679900
H -11.163900 -2.602900 -59.645600
C -10.968100 -3.263500 -60.357400
O -10.718100 -2.605200 -62.675700
H -9.694800 -4.859100 -58.585500
C -9.498900 -3.646100 -60.264900
H -9.323800 -3.345400 -58.212300
H -9.310700 -4.385200 -60.896200
C -9.135600 -4.084500 -58.843600
H -8.939700 -2.871500 -60.523000
O -7.916400 -5.125400 -56.432800
C -7.666400 -4.467100 -58.751000
H -7.470600 -5.127700 -59.462900
C -7.225300 -5.046500 -57.428500
H -7.121600 -3.661600 -58.934900
O -5.964900 -5.477500 -57.488900
H -5.711800 -5.863700 -56.655900
H -12.922700 -5.732200 -62.452500
O -12.669600 -6.118400 -61.619600
H -11.512900 -7.934300 -60.173600
C -11.409200 -6.549400 -61.679900
H -11.163900 -6.468200 -59.645600
C -10.968100 -7.128800 -60.357400
O -10.718100 -6.470500 -62.675700
H -9.694800 -8.724400 -58.585500
C -9.498900 -7.511400 -60.264900
H -9.323800 -7.210700 -58.212300
H -9.310700 -8.250500 -60.896200
C -9.135600 -7.949800 -58.843600
H -8.939700 -6.736800 -60.523000
O -7.916400 -8.990700 -56.432800
C -7.666400 -8.332400 -58.751000
H -7.470600 -8.993000 -59.462900
C -7.225300 -8.911800 -57.428500
H -7.121600 -7.526900 -58.934900
O -5.964900 -9.342800 -57.488900
H -5.711800 -9.729000 -56.655900
