17
Fragment
H -17.547700 -15.704300 -17.542000
H -17.190200 -15.182900 -19.801200
H -16.954400 -16.987700 -18.288800
C -16.740200 -16.070700 -17.981700
C -16.406600 -15.209300 -19.196700
H -16.222400 -14.283800 -18.897900
O -15.684500 -17.233500 -16.224500
O -15.656800 -14.193500 -21.756200
C -15.632000 -16.143200 -16.976300
H -15.324100 -16.705600 -20.116100
C -15.202800 -15.735700 -19.962400
H -14.984700 -17.201100 -15.692600
C -14.969000 -15.063500 -21.287400
O -14.775100 -15.292600 -16.842900
H -14.395100 -15.619600 -19.401000
O -13.890300 -15.541200 -21.891300
H -13.740200 -15.106800 -22.699600
17
Fragment
H -17.996000 -18.041400 -20.767900
O -17.884900 -19.612700 -18.693000
H -17.524500 -17.451800 -22.952700
C -17.242700 -18.415300 -21.209900
C -16.953600 -18.069700 -22.511800
C -16.734200 -19.670000 -19.140600
C -16.421100 -19.316000 -20.554500
H -16.400700 -19.740800 -16.640300
H -16.278400 -21.121000 -16.986700
N -15.905600 -18.562500 -23.185100
N -15.849800 -20.335100 -17.009000
N -15.688900 -20.026500 -18.382700
C -15.344400 -19.851100 -21.251800
C -15.128000 -19.446500 -22.554700
H -14.887600 -19.907000 -18.640000
H -14.767800 -20.483700 -20.840700
H -14.389500 -19.814600 -23.025500
34
Fragment
H -17.547700 -15.704300 -17.542000
H -17.190200 -15.182900 -19.801200
H -16.954400 -16.987700 -18.288800
C -16.740200 -16.070700 -17.981700
C -16.406600 -15.209300 -19.196700
H -16.222400 -14.283800 -18.897900
O -15.684500 -17.233500 -16.224500
O -15.656800 -14.193500 -21.756200
C -15.632000 -16.143200 -16.976300
H -15.324100 -16.705600 -20.116100
C -15.202800 -15.735700 -19.962400
H -14.984700 -17.201100 -15.692600
C -14.969000 -15.063500 -21.287400
O -14.775100 -15.292600 -16.842900
H -14.395100 -15.619600 -19.401000
O -13.890300 -15.541200 -21.891300
H -13.740200 -15.106800 -22.699600
H -17.996000 -18.041400 -20.767900
O -17.884900 -19.612700 -18.693000
H -17.524500 -17.451800 -22.952700
C -17.242700 -18.415300 -21.209900
C -16.953600 -18.069700 -22.511800
C -16.734200 -19.670000 -19.140600
C -16.421100 -19.316000 -20.554500
H -16.400700 -19.740800 -16.640300
H -16.278400 -21.121000 -16.986700
N -15.905600 -18.562500 -23.185100
N -15.849800 -20.335100 -17.009000
N -15.688900 -20.026500 -18.382700
C -15.344400 -19.851100 -21.251800
C -15.128000 -19.446500 -22.554700
H -14.887600 -19.907000 -18.640000
H -14.767800 -20.483700 -20.840700
H -14.389500 -19.814600 -23.025500
