17
Fragment
H -10.216300 -6.998600 -54.476000
H -9.741600 -5.991100 -52.442200
C -9.334000 -6.685900 -54.315500
C -9.061600 -6.086500 -53.097600
H -8.997200 -5.508900 -50.607000
N -8.419700 -6.845800 -55.270900
N -8.218600 -5.065900 -50.543000
N -7.972700 -4.414100 -49.304500
C -7.772700 -5.627200 -52.854100
H -7.485200 -3.666100 -49.510600
H -7.429700 -4.969600 -48.791700
C -7.347300 -4.987100 -51.557600
C -7.188300 -6.383300 -55.042400
C -6.829100 -5.763800 -53.853500
H -6.531100 -6.482300 -55.723300
O -6.256200 -4.423800 -51.445500
H -5.945400 -5.438300 -53.729200
20
Fragment
H -16.131700 -7.844300 -62.484100
O -15.892700 -7.422600 -61.647600
H -14.740100 -5.613600 -60.192100
C -14.640000 -6.989300 -61.707600
H -14.388900 -7.082400 -59.675700
C -14.196100 -6.417900 -60.385200
O -13.957300 -7.059900 -62.701800
H -12.920000 -4.828800 -58.611200
C -12.729500 -6.035700 -60.295000
H -12.548200 -6.343800 -58.245700
H -12.542500 -5.294700 -60.923000
C -12.361200 -5.602800 -58.873700
H -12.170700 -6.809700 -60.557600
O -11.133300 -4.578600 -56.466900
C -10.894600 -5.220600 -58.783600
H -10.701700 -4.556100 -59.493000
C -10.450700 -4.649200 -57.461200
H -10.350500 -6.024900 -58.976600
O -9.197900 -4.215900 -57.521200
H -8.958900 -3.794200 -56.684600
37
Fragment
H -10.216300 -6.998600 -54.476000
H -9.741600 -5.991100 -52.442200
C -9.334000 -6.685900 -54.315500
C -9.061600 -6.086500 -53.097600
H -8.997200 -5.508900 -50.607000
N -8.419700 -6.845800 -55.270900
N -8.218600 -5.065900 -50.543000
N -7.972700 -4.414100 -49.304500
C -7.772700 -5.627200 -52.854100
H -7.485200 -3.666100 -49.510600
H -7.429700 -4.969600 -48.791700
C -7.347300 -4.987100 -51.557600
C -7.188300 -6.383300 -55.042400
C -6.829100 -5.763800 -53.853500
H -6.531100 -6.482300 -55.723300
O -6.256200 -4.423800 -51.445500
H -5.945400 -5.438300 -53.729200
H -16.131700 -7.844300 -62.484100
O -15.892700 -7.422600 -61.647600
H -14.740100 -5.613600 -60.192100
C -14.640000 -6.989300 -61.707600
H -14.388900 -7.082400 -59.675700
C -14.196100 -6.417900 -60.385200
O -13.957300 -7.059900 -62.701800
H -12.920000 -4.828800 -58.611200
C -12.729500 -6.035700 -60.295000
H -12.548200 -6.343800 -58.245700
H -12.542500 -5.294700 -60.923000
C -12.361200 -5.602800 -58.873700
H -12.170700 -6.809700 -60.557600
O -11.133300 -4.578600 -56.466900
C -10.894600 -5.220600 -58.783600
H -10.701700 -4.556100 -59.493000
C -10.450700 -4.649200 -57.461200
H -10.350500 -6.024900 -58.976600
O -9.197900 -4.215900 -57.521200
H -8.958900 -3.794200 -56.684600
