17
Fragment
H -4.547700 -11.006800 -31.913500
O -4.366800 -9.835700 -34.318400
H -4.178100 -10.969900 -29.627800
C -3.816500 -10.517700 -31.555300
C -3.593200 -10.480500 -30.195300
C -3.219700 -9.822600 -33.869800
H -2.953600 -9.207400 -36.238500
C -2.948900 -9.824800 -32.392800
N -2.594200 -9.790200 -29.634100
H -2.481300 -10.511600 -36.400200
N -2.258300 -9.691400 -36.076100
N -2.144500 -9.779500 -34.662900
C -1.895900 -9.130000 -31.817400
C -1.766900 -9.130700 -30.446200
H -1.327700 -9.777700 -34.335900
H -1.273200 -8.660900 -32.360200
H -1.053100 -8.637700 -30.059100
17
Fragment
H 0.557800 -11.006800 -31.913500
O 0.738700 -9.835700 -34.318400
H 0.927400 -10.969900 -29.627800
C 1.289000 -10.517700 -31.555300
C 1.512300 -10.480500 -30.195300
C 1.885800 -9.822600 -33.869800
H 2.151900 -9.207400 -36.238500
C 2.156600 -9.824800 -32.392800
N 2.511300 -9.790200 -29.634100
H 2.624200 -10.511600 -36.400200
N 2.847200 -9.691400 -36.076100
N 2.961000 -9.779500 -34.662900
C 3.209600 -9.130000 -31.817400
C 3.338600 -9.130700 -30.446200
H 3.777800 -9.777700 -34.335900
H 3.832300 -8.660900 -32.360200
H 4.052400 -8.637700 -30.059100
34
Fragment
H -4.547700 -11.006800 -31.913500
O -4.366800 -9.835700 -34.318400
H -4.178100 -10.969900 -29.627800
C -3.816500 -10.517700 -31.555300
C -3.593200 -10.480500 -30.195300
C -3.219700 -9.822600 -33.869800
H -2.953600 -9.207400 -36.238500
C -2.948900 -9.824800 -32.392800
N -2.594200 -9.790200 -29.634100
H -2.481300 -10.511600 -36.400200
N -2.258300 -9.691400 -36.076100
N -2.144500 -9.779500 -34.662900
C -1.895900 -9.130000 -31.817400
C -1.766900 -9.130700 -30.446200
H -1.327700 -9.777700 -34.335900
H -1.273200 -8.660900 -32.360200
H -1.053100 -8.637700 -30.059100
H 0.557800 -11.006800 -31.913500
O 0.738700 -9.835700 -34.318400
H 0.927400 -10.969900 -29.627800
C 1.289000 -10.517700 -31.555300
C 1.512300 -10.480500 -30.195300
C 1.885800 -9.822600 -33.869800
H 2.151900 -9.207400 -36.238500
C 2.156600 -9.824800 -32.392800
N 2.511300 -9.790200 -29.634100
H 2.624200 -10.511600 -36.400200
N 2.847200 -9.691400 -36.076100
N 2.961000 -9.779500 -34.662900
C 3.209600 -9.130000 -31.817400
C 3.338600 -9.130700 -30.446200
H 3.777800 -9.777700 -34.335900
H 3.832300 -8.660900 -32.360200
H 4.052400 -8.637700 -30.059100
