17
Fragment
H -9.355400 -8.486800 -38.345800
O -9.202400 -8.274400 -39.243100
H -9.052400 -8.482800 -41.664500
C -8.486500 -7.743100 -41.853900
H -8.479500 -8.028000 -43.863900
C -8.356000 -7.276700 -39.398400
C -8.151400 -7.480000 -43.160900
C -8.021300 -6.956300 -40.790500
O -7.876900 -6.658700 -38.443300
C -7.318600 -6.391500 -43.436000
C -7.191500 -5.861700 -41.094000
O -6.983300 -6.193800 -44.743900
H -6.974100 -5.353700 -39.359500
C -6.844200 -5.584400 -42.415100
O -6.683900 -5.047500 -40.139400
H -6.593600 -5.480500 -44.823300
H -6.283200 -4.843700 -42.614800
17
Fragment
H -5.277000 -2.946600 -38.801400
H -4.951200 -3.376000 -41.052000
C -4.717400 -2.366600 -39.303100
C -4.530400 -2.627700 -40.645000
N -4.143300 -1.328800 -38.677400
H -3.774300 -1.353600 -45.499100
C -3.719500 -1.784600 -41.393600
O -3.622800 -3.234900 -43.294600
C -3.539500 -2.081700 -42.852900
C -3.347500 -0.530800 -39.400500
N -3.287900 -1.032700 -43.638500
H -3.278000 -0.228100 -43.366100
C -3.109800 -0.718900 -40.748500
N -2.979000 -1.187300 -45.016000
H -2.925500 0.200800 -38.964300
H -2.538300 -0.128300 -41.224000
H -2.500000 -1.916400 -45.073700
34
Fragment
H -9.355400 -8.486800 -38.345800
O -9.202400 -8.274400 -39.243100
H -9.052400 -8.482800 -41.664500
C -8.486500 -7.743100 -41.853900
H -8.479500 -8.028000 -43.863900
C -8.356000 -7.276700 -39.398400
C -8.151400 -7.480000 -43.160900
C -8.021300 -6.956300 -40.790500
O -7.876900 -6.658700 -38.443300
C -7.318600 -6.391500 -43.436000
C -7.191500 -5.861700 -41.094000
O -6.983300 -6.193800 -44.743900
H -6.974100 -5.353700 -39.359500
C -6.844200 -5.584400 -42.415100
O -6.683900 -5.047500 -40.139400
H -6.593600 -5.480500 -44.823300
H -6.283200 -4.843700 -42.614800
H -5.277000 -2.946600 -38.801400
H -4.951200 -3.376000 -41.052000
C -4.717400 -2.366600 -39.303100
C -4.530400 -2.627700 -40.645000
N -4.143300 -1.328800 -38.677400
H -3.774300 -1.353600 -45.499100
C -3.719500 -1.784600 -41.393600
O -3.622800 -3.234900 -43.294600
C -3.539500 -2.081700 -42.852900
C -3.347500 -0.530800 -39.400500
N -3.287900 -1.032700 -43.638500
H -3.278000 -0.228100 -43.366100
C -3.109800 -0.718900 -40.748500
N -2.979000 -1.187300 -45.016000
H -2.925500 0.200800 -38.964300
H -2.538300 -0.128300 -41.224000
H -2.500000 -1.916400 -45.073700
