17
Fragment
H -4.547700 -11.006800 -31.913500
O -4.366800 -9.835700 -34.318400
H -4.178100 -10.969900 -29.627800
C -3.816500 -10.517700 -31.555300
C -3.593200 -10.480500 -30.195300
C -3.219700 -9.822600 -33.869800
H -2.953600 -9.207400 -36.238500
C -2.948900 -9.824800 -32.392800
N -2.594200 -9.790200 -29.634100
H -2.481300 -10.511600 -36.400200
N -2.258300 -9.691400 -36.076100
N -2.144500 -9.779500 -34.662900
C -1.895900 -9.130000 -31.817400
C -1.766900 -9.130700 -30.446200
H -1.327700 -9.777700 -34.335900
H -1.273200 -8.660900 -32.360200
H -1.053100 -8.637700 -30.059100
17
Fragment
H -0.740700 -7.705000 -27.709800
H -0.520600 -7.681800 -25.408700
H -0.466200 -6.565000 -23.433000
C -0.027000 -7.212000 -27.322800
C 0.102000 -7.212700 -25.951600
N 0.350600 -6.563200 -23.106000
N 0.464400 -6.651300 -21.692800
H 0.687400 -5.831100 -21.368700
N 0.800300 -6.552500 -28.134800
C 1.155100 -6.517900 -25.376200
H 1.159800 -7.135300 -21.530500
C 1.425900 -6.520100 -23.899200
C 1.799400 -5.862200 -27.573700
C 2.022700 -5.825000 -26.213600
H 2.384300 -5.372800 -28.141200
O 2.572900 -6.507000 -23.450500
H 2.753900 -5.335900 -25.855500
34
Fragment
H -4.547700 -11.006800 -31.913500
O -4.366800 -9.835700 -34.318400
H -4.178100 -10.969900 -29.627800
C -3.816500 -10.517700 -31.555300
C -3.593200 -10.480500 -30.195300
C -3.219700 -9.822600 -33.869800
H -2.953600 -9.207400 -36.238500
C -2.948900 -9.824800 -32.392800
N -2.594200 -9.790200 -29.634100
H -2.481300 -10.511600 -36.400200
N -2.258300 -9.691400 -36.076100
N -2.144500 -9.779500 -34.662900
C -1.895900 -9.130000 -31.817400
C -1.766900 -9.130700 -30.446200
H -1.327700 -9.777700 -34.335900
H -1.273200 -8.660900 -32.360200
H -1.053100 -8.637700 -30.059100
H -0.740700 -7.705000 -27.709800
H -0.520600 -7.681800 -25.408700
H -0.466200 -6.565000 -23.433000
C -0.027000 -7.212000 -27.322800
C 0.102000 -7.212700 -25.951600
N 0.350600 -6.563200 -23.106000
N 0.464400 -6.651300 -21.692800
H 0.687400 -5.831100 -21.368700
N 0.800300 -6.552500 -28.134800
C 1.155100 -6.517900 -25.376200
H 1.159800 -7.135300 -21.530500
C 1.425900 -6.520100 -23.899200
C 1.799400 -5.862200 -27.573700
C 2.022700 -5.825000 -26.213600
H 2.384300 -5.372800 -28.141200
O 2.572900 -6.507000 -23.450500
H 2.753900 -5.335900 -25.855500
