17
Fragment
H -22.746100 -10.483600 -31.400700
N -22.349400 -11.286400 -31.633500
H -21.952500 -11.192100 -32.471500
N -21.344900 -11.509500 -30.655600
H -21.197400 -12.349800 -30.470100
O -20.941500 -9.319900 -30.319900
H -20.789000 -12.490000 -28.170000
C -20.747200 -10.499000 -30.025300
C -20.012100 -11.951100 -28.080800
C -19.794300 -10.885700 -28.933000
H -19.248700 -12.944500 -26.501800
C -19.080600 -12.221000 -27.094500
C -18.653100 -10.119800 -28.740700
H -18.487600 -9.357900 -29.283500
N -17.959600 -11.518500 -26.931800
C -17.761900 -10.479600 -27.749400
H -16.970900 -9.964600 -27.643700
16
Fragment
H -25.882500 -10.313900 -39.442900
O -25.435800 -11.067000 -39.511300
H -25.128100 -9.741100 -37.262700
C -24.525300 -11.234500 -38.515700
C -24.492600 -10.438200 -37.375000
H -23.643200 -12.826300 -39.434700
C -23.612300 -12.270400 -38.664200
C -23.533400 -10.663700 -36.406000
H -23.507800 -10.112800 -35.633100
C -22.661700 -12.488500 -37.689600
C -22.602800 -11.690600 -36.551100
H -22.036000 -13.195500 -37.797000
C -21.578700 -11.910200 -35.509800
O -21.525800 -11.283900 -34.463700
O -20.701800 -12.848700 -35.820400
H -20.054600 -12.993400 -35.119000
33
Fragment
H -22.746100 -10.483600 -31.400700
N -22.349400 -11.286400 -31.633500
H -21.952500 -11.192100 -32.471500
N -21.344900 -11.509500 -30.655600
H -21.197400 -12.349800 -30.470100
O -20.941500 -9.319900 -30.319900
H -20.789000 -12.490000 -28.170000
C -20.747200 -10.499000 -30.025300
C -20.012100 -11.951100 -28.080800
C -19.794300 -10.885700 -28.933000
H -19.248700 -12.944500 -26.501800
C -19.080600 -12.221000 -27.094500
C -18.653100 -10.119800 -28.740700
H -18.487600 -9.357900 -29.283500
N -17.959600 -11.518500 -26.931800
C -17.761900 -10.479600 -27.749400
H -16.970900 -9.964600 -27.643700
H -25.882500 -10.313900 -39.442900
O -25.435800 -11.067000 -39.511300
H -25.128100 -9.741100 -37.262700
C -24.525300 -11.234500 -38.515700
C -24.492600 -10.438200 -37.375000
H -23.643200 -12.826300 -39.434700
C -23.612300 -12.270400 -38.664200
C -23.533400 -10.663700 -36.406000
H -23.507800 -10.112800 -35.633100
C -22.661700 -12.488500 -37.689600
C -22.602800 -11.690600 -36.551100
H -22.036000 -13.195500 -37.797000
C -21.578700 -11.910200 -35.509800
O -21.525800 -11.283900 -34.463700
O -20.701800 -12.848700 -35.820400
H -20.054600 -12.993400 -35.119000
