17
Fragment
H -9.355400 -8.486800 -38.345800
O -9.202400 -8.274400 -39.243100
H -9.052400 -8.482800 -41.664500
C -8.486500 -7.743100 -41.853900
H -8.479500 -8.028000 -43.863900
C -8.356000 -7.276700 -39.398400
C -8.151400 -7.480000 -43.160900
C -8.021300 -6.956300 -40.790500
O -7.876900 -6.658700 -38.443300
C -7.318600 -6.391500 -43.436000
C -7.191500 -5.861700 -41.094000
O -6.983300 -6.193800 -44.743900
H -6.974100 -5.353700 -39.359500
C -6.844200 -5.584400 -42.415100
O -6.683900 -5.047500 -40.139400
H -6.593600 -5.480500 -44.823300
H -6.283200 -4.843700 -42.614800
17
Fragment
H -13.470100 -13.086200 -38.801400
H -13.144300 -13.515600 -41.052000
C -12.910500 -12.506200 -39.303100
C -12.723500 -12.767300 -40.645000
N -12.336400 -11.468400 -38.677400
H -11.967400 -11.493200 -45.499100
C -11.912600 -11.924200 -41.393600
O -11.815900 -13.374500 -43.294600
C -11.732600 -12.221300 -42.852900
C -11.540600 -10.670400 -39.400500
N -11.481000 -11.172300 -43.638500
H -11.471100 -10.367700 -43.366100
C -11.302900 -10.858500 -40.748500
N -11.172100 -11.326900 -45.016000
H -11.118600 -9.938800 -38.964300
H -10.731400 -10.267900 -41.224000
H -10.693100 -12.056000 -45.073700
34
Fragment
H -9.355400 -8.486800 -38.345800
O -9.202400 -8.274400 -39.243100
H -9.052400 -8.482800 -41.664500
C -8.486500 -7.743100 -41.853900
H -8.479500 -8.028000 -43.863900
C -8.356000 -7.276700 -39.398400
C -8.151400 -7.480000 -43.160900
C -8.021300 -6.956300 -40.790500
O -7.876900 -6.658700 -38.443300
C -7.318600 -6.391500 -43.436000
C -7.191500 -5.861700 -41.094000
O -6.983300 -6.193800 -44.743900
H -6.974100 -5.353700 -39.359500
C -6.844200 -5.584400 -42.415100
O -6.683900 -5.047500 -40.139400
H -6.593600 -5.480500 -44.823300
H -6.283200 -4.843700 -42.614800
H -13.470100 -13.086200 -38.801400
H -13.144300 -13.515600 -41.052000
C -12.910500 -12.506200 -39.303100
C -12.723500 -12.767300 -40.645000
N -12.336400 -11.468400 -38.677400
H -11.967400 -11.493200 -45.499100
C -11.912600 -11.924200 -41.393600
O -11.815900 -13.374500 -43.294600
C -11.732600 -12.221300 -42.852900
C -11.540600 -10.670400 -39.400500
N -11.481000 -11.172300 -43.638500
H -11.471100 -10.367700 -43.366100
C -11.302900 -10.858500 -40.748500
N -11.172100 -11.326900 -45.016000
H -11.118600 -9.938800 -38.964300
H -10.731400 -10.267900 -41.224000
H -10.693100 -12.056000 -45.073700
