17
Fragment
H -9.355400 -8.486800 -38.345800
O -9.202400 -8.274400 -39.243100
H -9.052400 -8.482800 -41.664500
C -8.486500 -7.743100 -41.853900
H -8.479500 -8.028000 -43.863900
C -8.356000 -7.276700 -39.398400
C -8.151400 -7.480000 -43.160900
C -8.021300 -6.956300 -40.790500
O -7.876900 -6.658700 -38.443300
C -7.318600 -6.391500 -43.436000
C -7.191500 -5.861700 -41.094000
O -6.983300 -6.193800 -44.743900
H -6.974100 -5.353700 -39.359500
C -6.844200 -5.584400 -42.415100
O -6.683900 -5.047500 -40.139400
H -6.593600 -5.480500 -44.823300
H -6.283200 -4.843700 -42.614800
17
Fragment
H -6.090200 -8.223200 -45.435700
H -6.051900 -10.011300 -49.285400
H -5.664700 -10.340400 -51.545100
N -5.611300 -8.952300 -45.493300
C -5.480400 -9.420700 -49.760800
H -5.312200 -9.911500 -47.143300
N -5.302400 -9.106900 -46.870900
C -5.242700 -9.608800 -51.108800
C -5.050800 -8.057900 -47.656500
O -4.967500 -6.904700 -47.214800
C -4.870700 -8.355000 -49.115800
H -4.815900 -8.786000 -45.010300
N -4.446900 -8.810800 -51.832000
C -4.059800 -7.511900 -49.864300
C -3.872800 -7.773000 -51.206300
H -3.639000 -6.763600 -49.457300
H -3.313200 -7.193000 -51.708000
34
Fragment
H -9.355400 -8.486800 -38.345800
O -9.202400 -8.274400 -39.243100
H -9.052400 -8.482800 -41.664500
C -8.486500 -7.743100 -41.853900
H -8.479500 -8.028000 -43.863900
C -8.356000 -7.276700 -39.398400
C -8.151400 -7.480000 -43.160900
C -8.021300 -6.956300 -40.790500
O -7.876900 -6.658700 -38.443300
C -7.318600 -6.391500 -43.436000
C -7.191500 -5.861700 -41.094000
O -6.983300 -6.193800 -44.743900
H -6.974100 -5.353700 -39.359500
C -6.844200 -5.584400 -42.415100
O -6.683900 -5.047500 -40.139400
H -6.593600 -5.480500 -44.823300
H -6.283200 -4.843700 -42.614800
H -6.090200 -8.223200 -45.435700
H -6.051900 -10.011300 -49.285400
H -5.664700 -10.340400 -51.545100
N -5.611300 -8.952300 -45.493300
C -5.480400 -9.420700 -49.760800
H -5.312200 -9.911500 -47.143300
N -5.302400 -9.106900 -46.870900
C -5.242700 -9.608800 -51.108800
C -5.050800 -8.057900 -47.656500
O -4.967500 -6.904700 -47.214800
C -4.870700 -8.355000 -49.115800
H -4.815900 -8.786000 -45.010300
N -4.446900 -8.810800 -51.832000
C -4.059800 -7.511900 -49.864300
C -3.872800 -7.773000 -51.206300
H -3.639000 -6.763600 -49.457300
H -3.313200 -7.193000 -51.708000
