17
Fragment
H -9.355400 -8.486800 -38.345800
O -9.202400 -8.274400 -39.243100
H -9.052400 -8.482800 -41.664500
C -8.486500 -7.743100 -41.853900
H -8.479500 -8.028000 -43.863900
C -8.356000 -7.276700 -39.398400
C -8.151400 -7.480000 -43.160900
C -8.021300 -6.956300 -40.790500
O -7.876900 -6.658700 -38.443300
C -7.318600 -6.391500 -43.436000
C -7.191500 -5.861700 -41.094000
O -6.983300 -6.193800 -44.743900
H -6.974100 -5.353700 -39.359500
C -6.844200 -5.584400 -42.415100
O -6.683900 -5.047500 -40.139400
H -6.593600 -5.480500 -44.823300
H -6.283200 -4.843700 -42.614800
17
Fragment
H -9.355400 -13.556600 -38.345800
O -9.202400 -13.344200 -39.243100
H -9.052400 -13.552600 -41.664500
C -8.486500 -12.812900 -41.853900
H -8.479500 -13.097800 -43.863900
C -8.356000 -12.346500 -39.398400
C -8.151400 -12.549800 -43.160900
C -8.021300 -12.026100 -40.790500
O -7.876900 -11.728500 -38.443300
C -7.318600 -11.461300 -43.436000
C -7.191500 -10.931500 -41.094000
O -6.983300 -11.263600 -44.743900
H -6.974100 -10.423500 -39.359500
C -6.844200 -10.654200 -42.415100
O -6.683900 -10.117300 -40.139400
H -6.593600 -10.550300 -44.823300
H -6.283200 -9.913500 -42.614800
34
Fragment
H -9.355400 -8.486800 -38.345800
O -9.202400 -8.274400 -39.243100
H -9.052400 -8.482800 -41.664500
C -8.486500 -7.743100 -41.853900
H -8.479500 -8.028000 -43.863900
C -8.356000 -7.276700 -39.398400
C -8.151400 -7.480000 -43.160900
C -8.021300 -6.956300 -40.790500
O -7.876900 -6.658700 -38.443300
C -7.318600 -6.391500 -43.436000
C -7.191500 -5.861700 -41.094000
O -6.983300 -6.193800 -44.743900
H -6.974100 -5.353700 -39.359500
C -6.844200 -5.584400 -42.415100
O -6.683900 -5.047500 -40.139400
H -6.593600 -5.480500 -44.823300
H -6.283200 -4.843700 -42.614800
H -9.355400 -13.556600 -38.345800
O -9.202400 -13.344200 -39.243100
H -9.052400 -13.552600 -41.664500
C -8.486500 -12.812900 -41.853900
H -8.479500 -13.097800 -43.863900
C -8.356000 -12.346500 -39.398400
C -8.151400 -12.549800 -43.160900
C -8.021300 -12.026100 -40.790500
O -7.876900 -11.728500 -38.443300
C -7.318600 -11.461300 -43.436000
C -7.191500 -10.931500 -41.094000
O -6.983300 -11.263600 -44.743900
H -6.974100 -10.423500 -39.359500
C -6.844200 -10.654200 -42.415100
O -6.683900 -10.117300 -40.139400
H -6.593600 -10.550300 -44.823300
H -6.283200 -9.913500 -42.614800
