17
Fragment
H -9.355400 -8.486800 -38.345800
O -9.202400 -8.274400 -39.243100
H -9.052400 -8.482800 -41.664500
C -8.486500 -7.743100 -41.853900
H -8.479500 -8.028000 -43.863900
C -8.356000 -7.276700 -39.398400
C -8.151400 -7.480000 -43.160900
C -8.021300 -6.956300 -40.790500
O -7.876900 -6.658700 -38.443300
C -7.318600 -6.391500 -43.436000
C -7.191500 -5.861700 -41.094000
O -6.983300 -6.193800 -44.743900
H -6.974100 -5.353700 -39.359500
C -6.844200 -5.584400 -42.415100
O -6.683900 -5.047500 -40.139400
H -6.593600 -5.480500 -44.823300
H -6.283200 -4.843700 -42.614800
17
Fragment
H -13.470100 -8.016400 -38.801400
H -13.144300 -8.445800 -41.052000
C -12.910500 -7.436400 -39.303100
C -12.723500 -7.697500 -40.645000
N -12.336400 -6.398600 -38.677400
H -11.967400 -6.423400 -45.499100
C -11.912600 -6.854400 -41.393600
O -11.815900 -8.304700 -43.294600
C -11.732600 -7.151500 -42.852900
C -11.540600 -5.600600 -39.400500
N -11.481000 -6.102500 -43.638500
H -11.471100 -5.297900 -43.366100
C -11.302900 -5.788700 -40.748500
N -11.172100 -6.257100 -45.016000
H -11.118600 -4.869000 -38.964300
H -10.731400 -5.198100 -41.224000
H -10.693100 -6.986200 -45.073700
34
Fragment
H -9.355400 -8.486800 -38.345800
O -9.202400 -8.274400 -39.243100
H -9.052400 -8.482800 -41.664500
C -8.486500 -7.743100 -41.853900
H -8.479500 -8.028000 -43.863900
C -8.356000 -7.276700 -39.398400
C -8.151400 -7.480000 -43.160900
C -8.021300 -6.956300 -40.790500
O -7.876900 -6.658700 -38.443300
C -7.318600 -6.391500 -43.436000
C -7.191500 -5.861700 -41.094000
O -6.983300 -6.193800 -44.743900
H -6.974100 -5.353700 -39.359500
C -6.844200 -5.584400 -42.415100
O -6.683900 -5.047500 -40.139400
H -6.593600 -5.480500 -44.823300
H -6.283200 -4.843700 -42.614800
H -13.470100 -8.016400 -38.801400
H -13.144300 -8.445800 -41.052000
C -12.910500 -7.436400 -39.303100
C -12.723500 -7.697500 -40.645000
N -12.336400 -6.398600 -38.677400
H -11.967400 -6.423400 -45.499100
C -11.912600 -6.854400 -41.393600
O -11.815900 -8.304700 -43.294600
C -11.732600 -7.151500 -42.852900
C -11.540600 -5.600600 -39.400500
N -11.481000 -6.102500 -43.638500
H -11.471100 -5.297900 -43.366100
C -11.302900 -5.788700 -40.748500
N -11.172100 -6.257100 -45.016000
H -11.118600 -4.869000 -38.964300
H -10.731400 -5.198100 -41.224000
H -10.693100 -6.986200 -45.073700
