17
Fragment
H -22.746100 -10.483600 -31.400700
N -22.349400 -11.286400 -31.633500
H -21.952500 -11.192100 -32.471500
N -21.344900 -11.509500 -30.655600
H -21.197400 -12.349800 -30.470100
O -20.941500 -9.319900 -30.319900
H -20.789000 -12.490000 -28.170000
C -20.747200 -10.499000 -30.025300
C -20.012100 -11.951100 -28.080800
C -19.794300 -10.885700 -28.933000
H -19.248700 -12.944500 -26.501800
C -19.080600 -12.221000 -27.094500
C -18.653100 -10.119800 -28.740700
H -18.487600 -9.357900 -29.283500
N -17.959600 -11.518500 -26.931800
C -17.761900 -10.479600 -27.749400
H -16.970900 -9.964600 -27.643700
17
Fragment
H -22.746100 -15.473400 -31.400700
N -22.349400 -16.276200 -31.633500
H -21.952500 -16.181900 -32.471500
N -21.344900 -16.499300 -30.655600
H -21.197400 -17.339600 -30.470100
O -20.941500 -14.309700 -30.319900
H -20.789000 -17.479800 -28.170000
C -20.747200 -15.488800 -30.025300
C -20.012100 -16.940900 -28.080800
C -19.794300 -15.875500 -28.933000
H -19.248700 -17.934300 -26.501800
C -19.080600 -17.210800 -27.094500
C -18.653100 -15.109600 -28.740700
H -18.487600 -14.347700 -29.283500
N -17.959600 -16.508300 -26.931800
C -17.761900 -15.469400 -27.749400
H -16.970900 -14.954400 -27.643700
34
Fragment
H -22.746100 -10.483600 -31.400700
N -22.349400 -11.286400 -31.633500
H -21.952500 -11.192100 -32.471500
N -21.344900 -11.509500 -30.655600
H -21.197400 -12.349800 -30.470100
O -20.941500 -9.319900 -30.319900
H -20.789000 -12.490000 -28.170000
C -20.747200 -10.499000 -30.025300
C -20.012100 -11.951100 -28.080800
C -19.794300 -10.885700 -28.933000
H -19.248700 -12.944500 -26.501800
C -19.080600 -12.221000 -27.094500
C -18.653100 -10.119800 -28.740700
H -18.487600 -9.357900 -29.283500
N -17.959600 -11.518500 -26.931800
C -17.761900 -10.479600 -27.749400
H -16.970900 -9.964600 -27.643700
H -22.746100 -15.473400 -31.400700
N -22.349400 -16.276200 -31.633500
H -21.952500 -16.181900 -32.471500
N -21.344900 -16.499300 -30.655600
H -21.197400 -17.339600 -30.470100
O -20.941500 -14.309700 -30.319900
H -20.789000 -17.479800 -28.170000
C -20.747200 -15.488800 -30.025300
C -20.012100 -16.940900 -28.080800
C -19.794300 -15.875500 -28.933000
H -19.248700 -17.934300 -26.501800
C -19.080600 -17.210800 -27.094500
C -18.653100 -15.109600 -28.740700
H -18.487600 -14.347700 -29.283500
N -17.959600 -16.508300 -26.931800
C -17.761900 -15.469400 -27.749400
H -16.970900 -14.954400 -27.643700
