17
Fragment
H -9.355400 -8.486800 -38.345800
O -9.202400 -8.274400 -39.243100
H -9.052400 -8.482800 -41.664500
C -8.486500 -7.743100 -41.853900
H -8.479500 -8.028000 -43.863900
C -8.356000 -7.276700 -39.398400
C -8.151400 -7.480000 -43.160900
C -8.021300 -6.956300 -40.790500
O -7.876900 -6.658700 -38.443300
C -7.318600 -6.391500 -43.436000
C -7.191500 -5.861700 -41.094000
O -6.983300 -6.193800 -44.743900
H -6.974100 -5.353700 -39.359500
C -6.844200 -5.584400 -42.415100
O -6.683900 -5.047500 -40.139400
H -6.593600 -5.480500 -44.823300
H -6.283200 -4.843700 -42.614800
17
Fragment
H -11.486100 -4.451300 -30.350800
H -11.447800 -2.663200 -34.200500
H -11.060600 -2.334100 -36.460200
N -11.007100 -3.722200 -30.408400
C -10.876300 -3.253800 -34.675900
H -10.708100 -2.763000 -32.058400
N -10.698200 -3.567600 -31.786000
C -10.638600 -3.065700 -36.023900
C -10.446600 -4.616600 -32.571600
O -10.363300 -5.769800 -32.129900
C -10.266600 -4.319500 -34.030900
H -10.211800 -3.888500 -29.925400
N -9.842800 -3.863700 -36.747100
C -9.455700 -5.162600 -34.779400
C -9.268700 -4.901500 -36.121400
H -9.034900 -5.910900 -34.372400
H -8.709100 -5.481500 -36.623100
34
Fragment
H -9.355400 -8.486800 -38.345800
O -9.202400 -8.274400 -39.243100
H -9.052400 -8.482800 -41.664500
C -8.486500 -7.743100 -41.853900
H -8.479500 -8.028000 -43.863900
C -8.356000 -7.276700 -39.398400
C -8.151400 -7.480000 -43.160900
C -8.021300 -6.956300 -40.790500
O -7.876900 -6.658700 -38.443300
C -7.318600 -6.391500 -43.436000
C -7.191500 -5.861700 -41.094000
O -6.983300 -6.193800 -44.743900
H -6.974100 -5.353700 -39.359500
C -6.844200 -5.584400 -42.415100
O -6.683900 -5.047500 -40.139400
H -6.593600 -5.480500 -44.823300
H -6.283200 -4.843700 -42.614800
H -11.486100 -4.451300 -30.350800
H -11.447800 -2.663200 -34.200500
H -11.060600 -2.334100 -36.460200
N -11.007100 -3.722200 -30.408400
C -10.876300 -3.253800 -34.675900
H -10.708100 -2.763000 -32.058400
N -10.698200 -3.567600 -31.786000
C -10.638600 -3.065700 -36.023900
C -10.446600 -4.616600 -32.571600
O -10.363300 -5.769800 -32.129900
C -10.266600 -4.319500 -34.030900
H -10.211800 -3.888500 -29.925400
N -9.842800 -3.863700 -36.747100
C -9.455700 -5.162600 -34.779400
C -9.268700 -4.901500 -36.121400
H -9.034900 -5.910900 -34.372400
H -8.709100 -5.481500 -36.623100
