38
Fragment
H -20.033100 -23.056100 -25.392500
Cl -19.988400 -34.217600 -26.166000
H -19.840500 -31.519400 -26.691000
C -19.565800 -31.596700 -25.694000
C -19.536500 -32.861300 -25.157300
O -19.531700 -25.692700 -25.859100
H -19.219300 -29.611500 -25.426300
C -19.218900 -22.954400 -24.975300
C -19.218100 -30.528300 -24.885000
C -19.171000 -33.087500 -23.860200
H -19.162300 -22.309500 -24.399300
C -19.142300 -25.466100 -24.743900
H -19.125000 -34.074100 -23.447100
H -19.021400 -26.649600 -19.702400
C -18.921300 -24.155600 -24.120400
N -18.897100 -27.821900 -24.096800
C -18.841300 -30.725500 -23.578700
C -18.818600 -32.013200 -23.067300
N -18.801800 -26.452700 -23.832700
H -18.628100 -32.158600 -22.210100
H -18.614100 -23.059800 -25.847400
C -18.504200 -28.357700 -22.965300
N -18.503000 -23.969000 -22.904700
N -18.448300 -29.684600 -22.697800
C -18.364400 -26.182400 -22.590500
N -18.198200 -25.009900 -22.047400
H -18.195900 -29.918800 -21.910800
C -18.145300 -27.073600 -19.614400
N -18.136900 -27.419000 -22.019400
H -18.066600 -26.955000 -17.474600
C -17.568600 -27.267400 -18.363500
C -17.527700 -27.601100 -20.724400
C -16.415100 -27.996300 -18.274200
C -16.340500 -28.272100 -20.630600
H -15.870500 -28.599000 -21.436500
C -15.766800 -28.473100 -19.378900
Cl -15.763200 -28.339400 -16.689700
H -15.021500 -28.932700 -19.336700
38
Fragment
H -21.612700 -24.077900 -19.358400
Cl -21.567900 -12.916400 -20.132000
H -21.420000 -15.614600 -20.656900
C -21.145300 -15.537300 -19.660000
C -21.116000 -14.272700 -19.123200
O -21.111200 -21.441300 -19.825100
H -20.798800 -17.522500 -19.392200
C -20.798400 -24.179600 -18.941200
C -20.797600 -16.605700 -18.851000
C -20.750500 -14.046500 -17.826100
H -20.741900 -24.824500 -18.365200
C -20.721800 -21.667900 -18.709900
H -20.704500 -13.059900 -17.413000
H -20.600900 -20.484400 -13.668300
C -20.500800 -22.978400 -18.086300
N -20.476600 -19.312100 -18.062800
C -20.420800 -16.408500 -17.544700
C -20.398100 -15.120800 -17.033300
N -20.381300 -20.681300 -17.798600
H -20.207600 -14.975400 -16.176100
H -20.193600 -24.074200 -19.813400
C -20.083700 -18.776300 -16.931300
N -20.082500 -23.165000 -16.870700
N -20.027800 -17.449400 -16.663700
C -19.943900 -20.951600 -16.556400
N -19.777700 -22.124100 -16.013400
H -19.775400 -17.215200 -15.876800
C -19.724800 -20.060400 -13.580300
N -19.716400 -19.715000 -15.985400
H -19.646100 -20.179000 -11.440500
C -19.148100 -19.866600 -12.329500
C -19.107200 -19.532900 -14.690400
C -17.994600 -19.137700 -12.240200
C -17.920000 -18.861900 -14.596600
H -17.450000 -18.535000 -15.402500
C -17.346300 -18.660900 -13.344900
Cl -17.342700 -18.794600 -10.655600
H -16.601100 -18.201300 -13.302700
76
Fragment
H -20.033100 -23.056100 -25.392500
Cl -19.988400 -34.217600 -26.166000
H -19.840500 -31.519400 -26.691000
C -19.565800 -31.596700 -25.694000
C -19.536500 -32.861300 -25.157300
O -19.531700 -25.692700 -25.859100
H -19.219300 -29.611500 -25.426300
C -19.218900 -22.954400 -24.975300
C -19.218100 -30.528300 -24.885000
C -19.171000 -33.087500 -23.860200
H -19.162300 -22.309500 -24.399300
C -19.142300 -25.466100 -24.743900
H -19.125000 -34.074100 -23.447100
H -19.021400 -26.649600 -19.702400
C -18.921300 -24.155600 -24.120400
N -18.897100 -27.821900 -24.096800
C -18.841300 -30.725500 -23.578700
C -18.818600 -32.013200 -23.067300
N -18.801800 -26.452700 -23.832700
H -18.628100 -32.158600 -22.210100
H -18.614100 -23.059800 -25.847400
C -18.504200 -28.357700 -22.965300
N -18.503000 -23.969000 -22.904700
N -18.448300 -29.684600 -22.697800
C -18.364400 -26.182400 -22.590500
N -18.198200 -25.009900 -22.047400
H -18.195900 -29.918800 -21.910800
C -18.145300 -27.073600 -19.614400
N -18.136900 -27.419000 -22.019400
H -18.066600 -26.955000 -17.474600
C -17.568600 -27.267400 -18.363500
C -17.527700 -27.601100 -20.724400
C -16.415100 -27.996300 -18.274200
C -16.340500 -28.272100 -20.630600
H -15.870500 -28.599000 -21.436500
C -15.766800 -28.473100 -19.378900
Cl -15.763200 -28.339400 -16.689700
H -15.021500 -28.932700 -19.336700
H -21.612700 -24.077900 -19.358400
Cl -21.567900 -12.916400 -20.132000
H -21.420000 -15.614600 -20.656900
C -21.145300 -15.537300 -19.660000
C -21.116000 -14.272700 -19.123200
O -21.111200 -21.441300 -19.825100
H -20.798800 -17.522500 -19.392200
C -20.798400 -24.179600 -18.941200
C -20.797600 -16.605700 -18.851000
C -20.750500 -14.046500 -17.826100
H -20.741900 -24.824500 -18.365200
C -20.721800 -21.667900 -18.709900
H -20.704500 -13.059900 -17.413000
H -20.600900 -20.484400 -13.668300
C -20.500800 -22.978400 -18.086300
N -20.476600 -19.312100 -18.062800
C -20.420800 -16.408500 -17.544700
C -20.398100 -15.120800 -17.033300
N -20.381300 -20.681300 -17.798600
H -20.207600 -14.975400 -16.176100
H -20.193600 -24.074200 -19.813400
C -20.083700 -18.776300 -16.931300
N -20.082500 -23.165000 -16.870700
N -20.027800 -17.449400 -16.663700
C -19.943900 -20.951600 -16.556400
N -19.777700 -22.124100 -16.013400
H -19.775400 -17.215200 -15.876800
C -19.724800 -20.060400 -13.580300
N -19.716400 -19.715000 -15.985400
H -19.646100 -20.179000 -11.440500
C -19.148100 -19.866600 -12.329500
C -19.107200 -19.532900 -14.690400
C -17.994600 -19.137700 -12.240200
C -17.920000 -18.861900 -14.596600
H -17.450000 -18.535000 -15.402500
C -17.346300 -18.660900 -13.344900
Cl -17.342700 -18.794600 -10.655600
H -16.601100 -18.201300 -13.302700
