38
Fragment
H -20.033100 -23.056100 -25.392500
Cl -19.988400 -34.217600 -26.166000
H -19.840500 -31.519400 -26.691000
C -19.565800 -31.596700 -25.694000
C -19.536500 -32.861300 -25.157300
O -19.531700 -25.692700 -25.859100
H -19.219300 -29.611500 -25.426300
C -19.218900 -22.954400 -24.975300
C -19.218100 -30.528300 -24.885000
C -19.171000 -33.087500 -23.860200
H -19.162300 -22.309500 -24.399300
C -19.142300 -25.466100 -24.743900
H -19.125000 -34.074100 -23.447100
H -19.021400 -26.649600 -19.702400
C -18.921300 -24.155600 -24.120400
N -18.897100 -27.821900 -24.096800
C -18.841300 -30.725500 -23.578700
C -18.818600 -32.013200 -23.067300
N -18.801800 -26.452700 -23.832700
H -18.628100 -32.158600 -22.210100
H -18.614100 -23.059800 -25.847400
C -18.504200 -28.357700 -22.965300
N -18.503000 -23.969000 -22.904700
N -18.448300 -29.684600 -22.697800
C -18.364400 -26.182400 -22.590500
N -18.198200 -25.009900 -22.047400
H -18.195900 -29.918800 -21.910800
C -18.145300 -27.073600 -19.614400
N -18.136900 -27.419000 -22.019400
H -18.066600 -26.955000 -17.474600
C -17.568600 -27.267400 -18.363500
C -17.527700 -27.601100 -20.724400
C -16.415100 -27.996300 -18.274200
C -16.340500 -28.272100 -20.630600
H -15.870500 -28.599000 -21.436500
C -15.766800 -28.473100 -19.378900
Cl -15.763200 -28.339400 -16.689700
H -15.021500 -28.932700 -19.336700
38
Fragment
H -19.328100 -27.628100 -28.935600
Cl -18.586400 -28.221400 -31.582700
C -18.582800 -28.087700 -28.893400
H -18.479100 -27.961800 -26.835800
C -18.009100 -28.288700 -27.641700
C -17.934500 -28.564500 -29.998100
C -16.821900 -28.959700 -27.547900
C -16.781000 -29.293400 -29.908800
H -16.283000 -29.605800 -30.797800
N -16.212700 -29.141800 -26.252900
C -16.204300 -29.487200 -28.658000
H -16.153700 -26.642000 -26.361500
N -16.151400 -31.550900 -26.224900
C -15.985200 -30.378400 -25.681900
N -15.901300 -26.876200 -25.574600
N -15.846600 -32.591800 -25.367600
C -15.845400 -28.203100 -25.307000
H -15.735500 -33.501000 -22.424900
H -15.721500 -24.402200 -26.062200
N -15.547800 -30.108100 -24.439700
C -15.531000 -24.547600 -25.205000
C -15.508300 -25.835300 -24.693600
N -15.452500 -28.738900 -24.175500
C -15.428300 -32.405200 -24.152000
H -15.328200 -29.911200 -28.570000
H -15.224600 -22.486700 -24.825300
C -15.207300 -31.094700 -23.528400
H -15.187300 -34.251300 -23.873100
C -15.178600 -23.473300 -24.412200
C -15.131500 -26.032500 -23.387300
C -15.130700 -33.606400 -23.297100
H -15.130300 -26.949300 -22.846100
O -14.817900 -30.868100 -22.413200
C -14.813100 -23.699500 -23.115100
C -14.783800 -24.964100 -22.578300
H -14.509100 -25.041400 -21.581400
Cl -14.361200 -22.343200 -22.106300
H -14.316500 -33.504700 -22.879900
76
Fragment
H -20.033100 -23.056100 -25.392500
Cl -19.988400 -34.217600 -26.166000
H -19.840500 -31.519400 -26.691000
C -19.565800 -31.596700 -25.694000
C -19.536500 -32.861300 -25.157300
O -19.531700 -25.692700 -25.859100
H -19.219300 -29.611500 -25.426300
C -19.218900 -22.954400 -24.975300
C -19.218100 -30.528300 -24.885000
C -19.171000 -33.087500 -23.860200
H -19.162300 -22.309500 -24.399300
C -19.142300 -25.466100 -24.743900
H -19.125000 -34.074100 -23.447100
H -19.021400 -26.649600 -19.702400
C -18.921300 -24.155600 -24.120400
N -18.897100 -27.821900 -24.096800
C -18.841300 -30.725500 -23.578700
C -18.818600 -32.013200 -23.067300
N -18.801800 -26.452700 -23.832700
H -18.628100 -32.158600 -22.210100
H -18.614100 -23.059800 -25.847400
C -18.504200 -28.357700 -22.965300
N -18.503000 -23.969000 -22.904700
N -18.448300 -29.684600 -22.697800
C -18.364400 -26.182400 -22.590500
N -18.198200 -25.009900 -22.047400
H -18.195900 -29.918800 -21.910800
C -18.145300 -27.073600 -19.614400
N -18.136900 -27.419000 -22.019400
H -18.066600 -26.955000 -17.474600
C -17.568600 -27.267400 -18.363500
C -17.527700 -27.601100 -20.724400
C -16.415100 -27.996300 -18.274200
C -16.340500 -28.272100 -20.630600
H -15.870500 -28.599000 -21.436500
C -15.766800 -28.473100 -19.378900
Cl -15.763200 -28.339400 -16.689700
H -15.021500 -28.932700 -19.336700
H -19.328100 -27.628100 -28.935600
Cl -18.586400 -28.221400 -31.582700
C -18.582800 -28.087700 -28.893400
H -18.479100 -27.961800 -26.835800
C -18.009100 -28.288700 -27.641700
C -17.934500 -28.564500 -29.998100
C -16.821900 -28.959700 -27.547900
C -16.781000 -29.293400 -29.908800
H -16.283000 -29.605800 -30.797800
N -16.212700 -29.141800 -26.252900
C -16.204300 -29.487200 -28.658000
H -16.153700 -26.642000 -26.361500
N -16.151400 -31.550900 -26.224900
C -15.985200 -30.378400 -25.681900
N -15.901300 -26.876200 -25.574600
N -15.846600 -32.591800 -25.367600
C -15.845400 -28.203100 -25.307000
H -15.735500 -33.501000 -22.424900
H -15.721500 -24.402200 -26.062200
N -15.547800 -30.108100 -24.439700
C -15.531000 -24.547600 -25.205000
C -15.508300 -25.835300 -24.693600
N -15.452500 -28.738900 -24.175500
C -15.428300 -32.405200 -24.152000
H -15.328200 -29.911200 -28.570000
H -15.224600 -22.486700 -24.825300
C -15.207300 -31.094700 -23.528400
H -15.187300 -34.251300 -23.873100
C -15.178600 -23.473300 -24.412200
C -15.131500 -26.032500 -23.387300
C -15.130700 -33.606400 -23.297100
H -15.130300 -26.949300 -22.846100
O -14.817900 -30.868100 -22.413200
C -14.813100 -23.699500 -23.115100
C -14.783800 -24.964100 -22.578300
H -14.509100 -25.041400 -21.581400
Cl -14.361200 -22.343200 -22.106300
H -14.316500 -33.504700 -22.879900
