38
Fragment
H -20.033100 -23.056100 -25.392500
Cl -19.988400 -34.217600 -26.166000
H -19.840500 -31.519400 -26.691000
C -19.565800 -31.596700 -25.694000
C -19.536500 -32.861300 -25.157300
O -19.531700 -25.692700 -25.859100
H -19.219300 -29.611500 -25.426300
C -19.218900 -22.954400 -24.975300
C -19.218100 -30.528300 -24.885000
C -19.171000 -33.087500 -23.860200
H -19.162300 -22.309500 -24.399300
C -19.142300 -25.466100 -24.743900
H -19.125000 -34.074100 -23.447100
H -19.021400 -26.649600 -19.702400
C -18.921300 -24.155600 -24.120400
N -18.897100 -27.821900 -24.096800
C -18.841300 -30.725500 -23.578700
C -18.818600 -32.013200 -23.067300
N -18.801800 -26.452700 -23.832700
H -18.628100 -32.158600 -22.210100
H -18.614100 -23.059800 -25.847400
C -18.504200 -28.357700 -22.965300
N -18.503000 -23.969000 -22.904700
N -18.448300 -29.684600 -22.697800
C -18.364400 -26.182400 -22.590500
N -18.198200 -25.009900 -22.047400
H -18.195900 -29.918800 -21.910800
C -18.145300 -27.073600 -19.614400
N -18.136900 -27.419000 -22.019400
H -18.066600 -26.955000 -17.474600
C -17.568600 -27.267400 -18.363500
C -17.527700 -27.601100 -20.724400
C -16.415100 -27.996300 -18.274200
C -16.340500 -28.272100 -20.630600
H -15.870500 -28.599000 -21.436500
C -15.766800 -28.473100 -19.378900
Cl -15.763200 -28.339400 -16.689700
H -15.021500 -28.932700 -19.336700
38
Fragment
Cl -26.600800 -35.087700 -32.109800
H -26.299300 -32.345200 -32.722600
H -26.288600 -23.765000 -31.285300
C -26.027700 -33.734400 -31.158100
C -25.962100 -32.473400 -31.762000
H -25.841400 -34.766000 -29.428000
O -25.698100 -26.361300 -31.818600
H -25.677200 -22.995700 -30.163000
C -25.665400 -33.932300 -29.864000
H -25.611600 -29.686900 -26.111700
C -25.552500 -23.699500 -30.686000
C -25.502600 -31.396900 -30.999700
C -25.382000 -26.216500 -30.656000
H -25.376700 -30.441000 -31.472400
C -25.242300 -24.950900 -29.930800
C -25.220100 -32.869900 -29.114500
C -25.143200 -31.583200 -29.681100
N -25.092700 -28.632400 -30.160600
N -25.063300 -27.267600 -29.812200
H -25.038000 -32.958000 -28.242900
H -24.887800 -23.568900 -31.437400
N -24.880000 -24.844900 -28.685600
C -24.753100 -29.223100 -29.047900
C -24.723500 -29.343900 -25.814000
C -24.695500 -27.080000 -28.523400
H -24.687100 -30.064000 -23.911700
N -24.663700 -30.554700 -28.836500
N -24.572500 -25.946100 -27.903200
N -24.480300 -28.339400 -28.019100
H -24.232200 -30.787900 -28.024500
C -24.211300 -29.636500 -24.563600
C -23.968500 -28.621800 -26.706300
C -22.954200 -29.171400 -24.237900
C -22.704500 -28.162600 -26.376400
Cl -22.309400 -29.500400 -22.661300
C -22.207000 -28.430500 -25.122700
H -22.121900 -27.801500 -27.069900
H -21.316400 -28.156000 -24.882000
76
Fragment
H -20.033100 -23.056100 -25.392500
Cl -19.988400 -34.217600 -26.166000
H -19.840500 -31.519400 -26.691000
C -19.565800 -31.596700 -25.694000
C -19.536500 -32.861300 -25.157300
O -19.531700 -25.692700 -25.859100
H -19.219300 -29.611500 -25.426300
C -19.218900 -22.954400 -24.975300
C -19.218100 -30.528300 -24.885000
C -19.171000 -33.087500 -23.860200
H -19.162300 -22.309500 -24.399300
C -19.142300 -25.466100 -24.743900
H -19.125000 -34.074100 -23.447100
H -19.021400 -26.649600 -19.702400
C -18.921300 -24.155600 -24.120400
N -18.897100 -27.821900 -24.096800
C -18.841300 -30.725500 -23.578700
C -18.818600 -32.013200 -23.067300
N -18.801800 -26.452700 -23.832700
H -18.628100 -32.158600 -22.210100
H -18.614100 -23.059800 -25.847400
C -18.504200 -28.357700 -22.965300
N -18.503000 -23.969000 -22.904700
N -18.448300 -29.684600 -22.697800
C -18.364400 -26.182400 -22.590500
N -18.198200 -25.009900 -22.047400
H -18.195900 -29.918800 -21.910800
C -18.145300 -27.073600 -19.614400
N -18.136900 -27.419000 -22.019400
H -18.066600 -26.955000 -17.474600
C -17.568600 -27.267400 -18.363500
C -17.527700 -27.601100 -20.724400
C -16.415100 -27.996300 -18.274200
C -16.340500 -28.272100 -20.630600
H -15.870500 -28.599000 -21.436500
C -15.766800 -28.473100 -19.378900
Cl -15.763200 -28.339400 -16.689700
H -15.021500 -28.932700 -19.336700
Cl -26.600800 -35.087700 -32.109800
H -26.299300 -32.345200 -32.722600
H -26.288600 -23.765000 -31.285300
C -26.027700 -33.734400 -31.158100
C -25.962100 -32.473400 -31.762000
H -25.841400 -34.766000 -29.428000
O -25.698100 -26.361300 -31.818600
H -25.677200 -22.995700 -30.163000
C -25.665400 -33.932300 -29.864000
H -25.611600 -29.686900 -26.111700
C -25.552500 -23.699500 -30.686000
C -25.502600 -31.396900 -30.999700
C -25.382000 -26.216500 -30.656000
H -25.376700 -30.441000 -31.472400
C -25.242300 -24.950900 -29.930800
C -25.220100 -32.869900 -29.114500
C -25.143200 -31.583200 -29.681100
N -25.092700 -28.632400 -30.160600
N -25.063300 -27.267600 -29.812200
H -25.038000 -32.958000 -28.242900
H -24.887800 -23.568900 -31.437400
N -24.880000 -24.844900 -28.685600
C -24.753100 -29.223100 -29.047900
C -24.723500 -29.343900 -25.814000
C -24.695500 -27.080000 -28.523400
H -24.687100 -30.064000 -23.911700
N -24.663700 -30.554700 -28.836500
N -24.572500 -25.946100 -27.903200
N -24.480300 -28.339400 -28.019100
H -24.232200 -30.787900 -28.024500
C -24.211300 -29.636500 -24.563600
C -23.968500 -28.621800 -26.706300
C -22.954200 -29.171400 -24.237900
C -22.704500 -28.162600 -26.376400
Cl -22.309400 -29.500400 -22.661300
C -22.207000 -28.430500 -25.122700
H -22.121900 -27.801500 -27.069900
H -21.316400 -28.156000 -24.882000
