38
Fragment
H -20.033100 -23.056100 -25.392500
Cl -19.988400 -34.217600 -26.166000
H -19.840500 -31.519400 -26.691000
C -19.565800 -31.596700 -25.694000
C -19.536500 -32.861300 -25.157300
O -19.531700 -25.692700 -25.859100
H -19.219300 -29.611500 -25.426300
C -19.218900 -22.954400 -24.975300
C -19.218100 -30.528300 -24.885000
C -19.171000 -33.087500 -23.860200
H -19.162300 -22.309500 -24.399300
C -19.142300 -25.466100 -24.743900
H -19.125000 -34.074100 -23.447100
H -19.021400 -26.649600 -19.702400
C -18.921300 -24.155600 -24.120400
N -18.897100 -27.821900 -24.096800
C -18.841300 -30.725500 -23.578700
C -18.818600 -32.013200 -23.067300
N -18.801800 -26.452700 -23.832700
H -18.628100 -32.158600 -22.210100
H -18.614100 -23.059800 -25.847400
C -18.504200 -28.357700 -22.965300
N -18.503000 -23.969000 -22.904700
N -18.448300 -29.684600 -22.697800
C -18.364400 -26.182400 -22.590500
N -18.198200 -25.009900 -22.047400
H -18.195900 -29.918800 -21.910800
C -18.145300 -27.073600 -19.614400
N -18.136900 -27.419000 -22.019400
H -18.066600 -26.955000 -17.474600
C -17.568600 -27.267400 -18.363500
C -17.527700 -27.601100 -20.724400
C -16.415100 -27.996300 -18.274200
C -16.340500 -28.272100 -20.630600
H -15.870500 -28.599000 -21.436500
C -15.766800 -28.473100 -19.378900
Cl -15.763200 -28.339400 -16.689700
H -15.021500 -28.932700 -19.336700
38
Fragment
H -16.192300 -28.404800 -11.322300
H -15.386800 -28.759300 -9.134300
C -15.301600 -28.130300 -11.081500
Cl -15.199200 -27.060400 -13.542900
C -14.804100 -28.398200 -9.827900
C -14.554400 -27.389400 -11.966400
C -13.540100 -27.939000 -9.497900
C -13.297300 -26.924300 -11.640600
H -13.276400 -25.772900 -8.179700
N -13.028300 -28.221400 -8.185200
N -12.936100 -30.614700 -8.301000
N -12.844900 -26.006100 -7.367800
H -12.821600 -26.496800 -12.292600
C -12.813100 -29.480800 -7.680900
C -12.785100 -27.216900 -10.390300
C -12.755500 -27.337700 -7.156400
N -12.628600 -31.715900 -7.518700
H -12.620800 -32.991900 -4.766900
H -12.470600 -23.602800 -7.961300
N -12.445300 -29.293200 -6.392100
N -12.415900 -27.928400 -6.043700
C -12.365500 -24.977600 -6.523200
C -12.288600 -23.690900 -7.089800
C -12.266400 -31.609900 -6.273500
H -12.131900 -26.119800 -4.731900
C -12.126700 -30.344300 -5.548300
C -12.006000 -25.163900 -5.204600
C -11.956100 -32.861300 -5.518300
H -11.897000 -26.873900 -10.092500
C -11.843200 -22.628500 -6.340200
H -11.831400 -33.565100 -6.041300
O -11.810500 -30.199500 -4.385700
H -11.667200 -21.794800 -6.776200
C -11.546500 -24.087400 -4.442300
C -11.481000 -22.826400 -5.046100
H -11.220000 -32.795800 -4.919000
H -11.209400 -24.215600 -3.481600
Cl -10.907800 -21.473100 -4.094500
76
Fragment
H -20.033100 -23.056100 -25.392500
Cl -19.988400 -34.217600 -26.166000
H -19.840500 -31.519400 -26.691000
C -19.565800 -31.596700 -25.694000
C -19.536500 -32.861300 -25.157300
O -19.531700 -25.692700 -25.859100
H -19.219300 -29.611500 -25.426300
C -19.218900 -22.954400 -24.975300
C -19.218100 -30.528300 -24.885000
C -19.171000 -33.087500 -23.860200
H -19.162300 -22.309500 -24.399300
C -19.142300 -25.466100 -24.743900
H -19.125000 -34.074100 -23.447100
H -19.021400 -26.649600 -19.702400
C -18.921300 -24.155600 -24.120400
N -18.897100 -27.821900 -24.096800
C -18.841300 -30.725500 -23.578700
C -18.818600 -32.013200 -23.067300
N -18.801800 -26.452700 -23.832700
H -18.628100 -32.158600 -22.210100
H -18.614100 -23.059800 -25.847400
C -18.504200 -28.357700 -22.965300
N -18.503000 -23.969000 -22.904700
N -18.448300 -29.684600 -22.697800
C -18.364400 -26.182400 -22.590500
N -18.198200 -25.009900 -22.047400
H -18.195900 -29.918800 -21.910800
C -18.145300 -27.073600 -19.614400
N -18.136900 -27.419000 -22.019400
H -18.066600 -26.955000 -17.474600
C -17.568600 -27.267400 -18.363500
C -17.527700 -27.601100 -20.724400
C -16.415100 -27.996300 -18.274200
C -16.340500 -28.272100 -20.630600
H -15.870500 -28.599000 -21.436500
C -15.766800 -28.473100 -19.378900
Cl -15.763200 -28.339400 -16.689700
H -15.021500 -28.932700 -19.336700
H -16.192300 -28.404800 -11.322300
H -15.386800 -28.759300 -9.134300
C -15.301600 -28.130300 -11.081500
Cl -15.199200 -27.060400 -13.542900
C -14.804100 -28.398200 -9.827900
C -14.554400 -27.389400 -11.966400
C -13.540100 -27.939000 -9.497900
C -13.297300 -26.924300 -11.640600
H -13.276400 -25.772900 -8.179700
N -13.028300 -28.221400 -8.185200
N -12.936100 -30.614700 -8.301000
N -12.844900 -26.006100 -7.367800
H -12.821600 -26.496800 -12.292600
C -12.813100 -29.480800 -7.680900
C -12.785100 -27.216900 -10.390300
C -12.755500 -27.337700 -7.156400
N -12.628600 -31.715900 -7.518700
H -12.620800 -32.991900 -4.766900
H -12.470600 -23.602800 -7.961300
N -12.445300 -29.293200 -6.392100
N -12.415900 -27.928400 -6.043700
C -12.365500 -24.977600 -6.523200
C -12.288600 -23.690900 -7.089800
C -12.266400 -31.609900 -6.273500
H -12.131900 -26.119800 -4.731900
C -12.126700 -30.344300 -5.548300
C -12.006000 -25.163900 -5.204600
C -11.956100 -32.861300 -5.518300
H -11.897000 -26.873900 -10.092500
C -11.843200 -22.628500 -6.340200
H -11.831400 -33.565100 -6.041300
O -11.810500 -30.199500 -4.385700
H -11.667200 -21.794800 -6.776200
C -11.546500 -24.087400 -4.442300
C -11.481000 -22.826400 -5.046100
H -11.220000 -32.795800 -4.919000
H -11.209400 -24.215600 -3.481600
Cl -10.907800 -21.473100 -4.094500
