38
Fragment
H -20.033100 -23.056100 -25.392500
Cl -19.988400 -34.217600 -26.166000
H -19.840500 -31.519400 -26.691000
C -19.565800 -31.596700 -25.694000
C -19.536500 -32.861300 -25.157300
O -19.531700 -25.692700 -25.859100
H -19.219300 -29.611500 -25.426300
C -19.218900 -22.954400 -24.975300
C -19.218100 -30.528300 -24.885000
C -19.171000 -33.087500 -23.860200
H -19.162300 -22.309500 -24.399300
C -19.142300 -25.466100 -24.743900
H -19.125000 -34.074100 -23.447100
H -19.021400 -26.649600 -19.702400
C -18.921300 -24.155600 -24.120400
N -18.897100 -27.821900 -24.096800
C -18.841300 -30.725500 -23.578700
C -18.818600 -32.013200 -23.067300
N -18.801800 -26.452700 -23.832700
H -18.628100 -32.158600 -22.210100
H -18.614100 -23.059800 -25.847400
C -18.504200 -28.357700 -22.965300
N -18.503000 -23.969000 -22.904700
N -18.448300 -29.684600 -22.697800
C -18.364400 -26.182400 -22.590500
N -18.198200 -25.009900 -22.047400
H -18.195900 -29.918800 -21.910800
C -18.145300 -27.073600 -19.614400
N -18.136900 -27.419000 -22.019400
H -18.066600 -26.955000 -17.474600
C -17.568600 -27.267400 -18.363500
C -17.527700 -27.601100 -20.724400
C -16.415100 -27.996300 -18.274200
C -16.340500 -28.272100 -20.630600
H -15.870500 -28.599000 -21.436500
C -15.766800 -28.473100 -19.378900
Cl -15.763200 -28.339400 -16.689700
H -15.021500 -28.932700 -19.336700
38
Fragment
H -27.115600 -18.729200 -29.424400
H -26.310100 -18.374700 -27.236500
C -26.225000 -19.003700 -29.183600
Cl -26.122600 -20.073600 -31.645100
C -25.727500 -18.735800 -27.930000
C -25.477800 -19.744600 -30.068500
C -24.463500 -19.195000 -27.600100
C -24.220700 -20.209700 -29.742800
H -24.199700 -21.361100 -26.281900
N -23.951700 -18.912600 -26.287300
N -23.859500 -16.519300 -26.403200
N -23.768300 -21.127900 -25.469900
H -23.744900 -20.637200 -30.394700
C -23.736400 -17.653200 -25.783000
C -23.708500 -19.917100 -28.492400
C -23.678900 -19.796300 -25.258500
N -23.552000 -15.418100 -25.620800
H -23.544200 -14.142100 -22.869000
H -23.394000 -23.531200 -26.063400
N -23.368700 -17.840800 -24.494200
N -23.339300 -19.205600 -24.145800
C -23.288800 -22.156400 -24.625300
C -23.211900 -23.443100 -25.191900
C -23.189700 -15.524100 -24.375600
H -23.055300 -21.014200 -22.834000
C -23.050000 -16.789700 -23.650400
C -22.929300 -21.970100 -23.306700
C -22.879500 -14.272700 -23.620400
H -22.820400 -20.260100 -28.194700
C -22.766600 -24.505500 -24.442300
H -22.754800 -13.568900 -24.143400
O -22.733800 -16.934500 -22.487800
H -22.590600 -25.339200 -24.878400
C -22.469800 -23.046600 -22.544400
C -22.404300 -24.307600 -23.148300
H -22.143300 -14.338200 -23.021100
H -22.132700 -22.918400 -21.583800
Cl -21.831200 -25.660900 -22.196600
76
Fragment
H -20.033100 -23.056100 -25.392500
Cl -19.988400 -34.217600 -26.166000
H -19.840500 -31.519400 -26.691000
C -19.565800 -31.596700 -25.694000
C -19.536500 -32.861300 -25.157300
O -19.531700 -25.692700 -25.859100
H -19.219300 -29.611500 -25.426300
C -19.218900 -22.954400 -24.975300
C -19.218100 -30.528300 -24.885000
C -19.171000 -33.087500 -23.860200
H -19.162300 -22.309500 -24.399300
C -19.142300 -25.466100 -24.743900
H -19.125000 -34.074100 -23.447100
H -19.021400 -26.649600 -19.702400
C -18.921300 -24.155600 -24.120400
N -18.897100 -27.821900 -24.096800
C -18.841300 -30.725500 -23.578700
C -18.818600 -32.013200 -23.067300
N -18.801800 -26.452700 -23.832700
H -18.628100 -32.158600 -22.210100
H -18.614100 -23.059800 -25.847400
C -18.504200 -28.357700 -22.965300
N -18.503000 -23.969000 -22.904700
N -18.448300 -29.684600 -22.697800
C -18.364400 -26.182400 -22.590500
N -18.198200 -25.009900 -22.047400
H -18.195900 -29.918800 -21.910800
C -18.145300 -27.073600 -19.614400
N -18.136900 -27.419000 -22.019400
H -18.066600 -26.955000 -17.474600
C -17.568600 -27.267400 -18.363500
C -17.527700 -27.601100 -20.724400
C -16.415100 -27.996300 -18.274200
C -16.340500 -28.272100 -20.630600
H -15.870500 -28.599000 -21.436500
C -15.766800 -28.473100 -19.378900
Cl -15.763200 -28.339400 -16.689700
H -15.021500 -28.932700 -19.336700
H -27.115600 -18.729200 -29.424400
H -26.310100 -18.374700 -27.236500
C -26.225000 -19.003700 -29.183600
Cl -26.122600 -20.073600 -31.645100
C -25.727500 -18.735800 -27.930000
C -25.477800 -19.744600 -30.068500
C -24.463500 -19.195000 -27.600100
C -24.220700 -20.209700 -29.742800
H -24.199700 -21.361100 -26.281900
N -23.951700 -18.912600 -26.287300
N -23.859500 -16.519300 -26.403200
N -23.768300 -21.127900 -25.469900
H -23.744900 -20.637200 -30.394700
C -23.736400 -17.653200 -25.783000
C -23.708500 -19.917100 -28.492400
C -23.678900 -19.796300 -25.258500
N -23.552000 -15.418100 -25.620800
H -23.544200 -14.142100 -22.869000
H -23.394000 -23.531200 -26.063400
N -23.368700 -17.840800 -24.494200
N -23.339300 -19.205600 -24.145800
C -23.288800 -22.156400 -24.625300
C -23.211900 -23.443100 -25.191900
C -23.189700 -15.524100 -24.375600
H -23.055300 -21.014200 -22.834000
C -23.050000 -16.789700 -23.650400
C -22.929300 -21.970100 -23.306700
C -22.879500 -14.272700 -23.620400
H -22.820400 -20.260100 -28.194700
C -22.766600 -24.505500 -24.442300
H -22.754800 -13.568900 -24.143400
O -22.733800 -16.934500 -22.487800
H -22.590600 -25.339200 -24.878400
C -22.469800 -23.046600 -22.544400
C -22.404300 -24.307600 -23.148300
H -22.143300 -14.338200 -23.021100
H -22.132700 -22.918400 -21.583800
Cl -21.831200 -25.660900 -22.196600
