38
Fragment
H -20.033100 -23.056100 -25.392500
Cl -19.988400 -34.217600 -26.166000
H -19.840500 -31.519400 -26.691000
C -19.565800 -31.596700 -25.694000
C -19.536500 -32.861300 -25.157300
O -19.531700 -25.692700 -25.859100
H -19.219300 -29.611500 -25.426300
C -19.218900 -22.954400 -24.975300
C -19.218100 -30.528300 -24.885000
C -19.171000 -33.087500 -23.860200
H -19.162300 -22.309500 -24.399300
C -19.142300 -25.466100 -24.743900
H -19.125000 -34.074100 -23.447100
H -19.021400 -26.649600 -19.702400
C -18.921300 -24.155600 -24.120400
N -18.897100 -27.821900 -24.096800
C -18.841300 -30.725500 -23.578700
C -18.818600 -32.013200 -23.067300
N -18.801800 -26.452700 -23.832700
H -18.628100 -32.158600 -22.210100
H -18.614100 -23.059800 -25.847400
C -18.504200 -28.357700 -22.965300
N -18.503000 -23.969000 -22.904700
N -18.448300 -29.684600 -22.697800
C -18.364400 -26.182400 -22.590500
N -18.198200 -25.009900 -22.047400
H -18.195900 -29.918800 -21.910800
C -18.145300 -27.073600 -19.614400
N -18.136900 -27.419000 -22.019400
H -18.066600 -26.955000 -17.474600
C -17.568600 -27.267400 -18.363500
C -17.527700 -27.601100 -20.724400
C -16.415100 -27.996300 -18.274200
C -16.340500 -28.272100 -20.630600
H -15.870500 -28.599000 -21.436500
C -15.766800 -28.473100 -19.378900
Cl -15.763200 -28.339400 -16.689700
H -15.021500 -28.932700 -19.336700
38
Fragment
H -18.453600 -42.931500 -31.426500
Cl -18.408900 -31.770000 -32.200100
H -18.260900 -34.468200 -32.725000
C -17.986300 -34.390900 -31.728100
C -17.957000 -33.126300 -31.191300
O -17.952100 -40.294900 -31.893200
H -17.639800 -36.376100 -31.460300
C -17.639400 -43.033200 -31.009300
C -17.638600 -35.459300 -30.919000
C -17.591400 -32.900100 -29.894200
H -17.582800 -43.678100 -30.433300
C -17.562800 -40.521500 -30.778000
H -17.545500 -31.913500 -29.481100
H -17.441900 -39.338000 -25.736400
C -17.341800 -41.832000 -30.154400
N -17.317600 -38.165700 -30.130900
C -17.261800 -35.262100 -29.612800
C -17.239100 -33.974400 -29.101300
N -17.222300 -39.534900 -29.866700
H -17.048600 -33.829000 -28.244100
H -17.034600 -42.927800 -31.881500
C -16.924700 -37.629900 -28.999400
N -16.923400 -42.018600 -28.938800
N -16.868800 -36.303000 -28.731800
C -16.784900 -39.805200 -28.624500
N -16.618600 -40.977700 -28.081500
H -16.616300 -36.068800 -27.944900
C -16.565800 -38.914000 -25.648400
N -16.557400 -38.568600 -28.053500
H -16.487100 -39.032600 -23.508600
C -15.989100 -38.720200 -24.397600
C -15.948200 -38.386500 -26.758400
C -14.835600 -37.991300 -24.308300
C -14.761000 -37.715500 -26.664700
H -14.291000 -37.388600 -27.470600
C -14.187300 -37.514500 -25.413000
Cl -14.183600 -37.648200 -22.723700
H -13.442000 -37.054900 -25.370700
76
Fragment
H -20.033100 -23.056100 -25.392500
Cl -19.988400 -34.217600 -26.166000
H -19.840500 -31.519400 -26.691000
C -19.565800 -31.596700 -25.694000
C -19.536500 -32.861300 -25.157300
O -19.531700 -25.692700 -25.859100
H -19.219300 -29.611500 -25.426300
C -19.218900 -22.954400 -24.975300
C -19.218100 -30.528300 -24.885000
C -19.171000 -33.087500 -23.860200
H -19.162300 -22.309500 -24.399300
C -19.142300 -25.466100 -24.743900
H -19.125000 -34.074100 -23.447100
H -19.021400 -26.649600 -19.702400
C -18.921300 -24.155600 -24.120400
N -18.897100 -27.821900 -24.096800
C -18.841300 -30.725500 -23.578700
C -18.818600 -32.013200 -23.067300
N -18.801800 -26.452700 -23.832700
H -18.628100 -32.158600 -22.210100
H -18.614100 -23.059800 -25.847400
C -18.504200 -28.357700 -22.965300
N -18.503000 -23.969000 -22.904700
N -18.448300 -29.684600 -22.697800
C -18.364400 -26.182400 -22.590500
N -18.198200 -25.009900 -22.047400
H -18.195900 -29.918800 -21.910800
C -18.145300 -27.073600 -19.614400
N -18.136900 -27.419000 -22.019400
H -18.066600 -26.955000 -17.474600
C -17.568600 -27.267400 -18.363500
C -17.527700 -27.601100 -20.724400
C -16.415100 -27.996300 -18.274200
C -16.340500 -28.272100 -20.630600
H -15.870500 -28.599000 -21.436500
C -15.766800 -28.473100 -19.378900
Cl -15.763200 -28.339400 -16.689700
H -15.021500 -28.932700 -19.336700
H -18.453600 -42.931500 -31.426500
Cl -18.408900 -31.770000 -32.200100
H -18.260900 -34.468200 -32.725000
C -17.986300 -34.390900 -31.728100
C -17.957000 -33.126300 -31.191300
O -17.952100 -40.294900 -31.893200
H -17.639800 -36.376100 -31.460300
C -17.639400 -43.033200 -31.009300
C -17.638600 -35.459300 -30.919000
C -17.591400 -32.900100 -29.894200
H -17.582800 -43.678100 -30.433300
C -17.562800 -40.521500 -30.778000
H -17.545500 -31.913500 -29.481100
H -17.441900 -39.338000 -25.736400
C -17.341800 -41.832000 -30.154400
N -17.317600 -38.165700 -30.130900
C -17.261800 -35.262100 -29.612800
C -17.239100 -33.974400 -29.101300
N -17.222300 -39.534900 -29.866700
H -17.048600 -33.829000 -28.244100
H -17.034600 -42.927800 -31.881500
C -16.924700 -37.629900 -28.999400
N -16.923400 -42.018600 -28.938800
N -16.868800 -36.303000 -28.731800
C -16.784900 -39.805200 -28.624500
N -16.618600 -40.977700 -28.081500
H -16.616300 -36.068800 -27.944900
C -16.565800 -38.914000 -25.648400
N -16.557400 -38.568600 -28.053500
H -16.487100 -39.032600 -23.508600
C -15.989100 -38.720200 -24.397600
C -15.948200 -38.386500 -26.758400
C -14.835600 -37.991300 -24.308300
C -14.761000 -37.715500 -26.664700
H -14.291000 -37.388600 -27.470600
C -14.187300 -37.514500 -25.413000
Cl -14.183600 -37.648200 -22.723700
H -13.442000 -37.054900 -25.370700
