24
Fragment
H -20.575800 -8.451200 -31.881000
O -20.108500 -8.544500 -34.077300
H -19.823900 -7.320500 -31.034000
C -19.745200 -8.220000 -31.413500
H -19.585300 -8.865700 -30.694200
C -18.951300 -8.453200 -33.708900
H -18.778500 -8.040800 -36.353900
H -18.705300 -9.621900 -36.120600
N -18.619200 -8.256000 -32.365000
C -18.220900 -8.775700 -36.023900
N -17.904100 -8.552500 -34.611800
H -17.390000 -8.813700 -36.541800
C -17.328000 -8.124700 -31.829600
O -17.138200 -7.958200 -30.627700
C -16.615900 -8.427200 -34.158400
C -16.327100 -8.218000 -32.839900
N -15.480300 -8.491200 -34.913000
N -14.943000 -8.146700 -32.771500
C -14.496800 -8.312600 -34.018200
H -14.372200 -7.077300 -31.160800
H -14.268600 -8.659800 -30.943400
C -14.122000 -7.928200 -31.579300
H -13.575300 -8.305300 -34.249900
H -13.177200 -7.900900 -31.833400
18
Fragment
H -19.341100 -11.229000 -38.661700
H -18.681800 -13.462400 -38.616400
C -18.489900 -11.483500 -38.996200
C -18.094500 -12.802100 -38.963800
H -17.902900 -9.625900 -39.563000
C -17.632500 -10.535400 -39.522900
C -16.847600 -13.172600 -39.433900
H -16.587200 -14.086000 -39.411300
C -16.385600 -10.898500 -39.991500
C -15.974200 -12.220400 -39.938100
H -15.806300 -10.238200 -40.353400
O -14.838300 -11.967900 -42.644200
C -14.565500 -12.607500 -40.325600
H -14.483200 -13.591000 -40.249300
C -14.112500 -12.206400 -41.700300
H -13.944300 -12.207800 -39.667200
O -12.794000 -12.197100 -41.804700
H -12.534500 -12.053200 -42.717800
42
Fragment
H -20.575800 -8.451200 -31.881000
O -20.108500 -8.544500 -34.077300
H -19.823900 -7.320500 -31.034000
C -19.745200 -8.220000 -31.413500
H -19.585300 -8.865700 -30.694200
C -18.951300 -8.453200 -33.708900
H -18.778500 -8.040800 -36.353900
H -18.705300 -9.621900 -36.120600
N -18.619200 -8.256000 -32.365000
C -18.220900 -8.775700 -36.023900
N -17.904100 -8.552500 -34.611800
H -17.390000 -8.813700 -36.541800
C -17.328000 -8.124700 -31.829600
O -17.138200 -7.958200 -30.627700
C -16.615900 -8.427200 -34.158400
C -16.327100 -8.218000 -32.839900
N -15.480300 -8.491200 -34.913000
N -14.943000 -8.146700 -32.771500
C -14.496800 -8.312600 -34.018200
H -14.372200 -7.077300 -31.160800
H -14.268600 -8.659800 -30.943400
C -14.122000 -7.928200 -31.579300
H -13.575300 -8.305300 -34.249900
H -13.177200 -7.900900 -31.833400
H -19.341100 -11.229000 -38.661700
H -18.681800 -13.462400 -38.616400
C -18.489900 -11.483500 -38.996200
C -18.094500 -12.802100 -38.963800
H -17.902900 -9.625900 -39.563000
C -17.632500 -10.535400 -39.522900
C -16.847600 -13.172600 -39.433900
H -16.587200 -14.086000 -39.411300
C -16.385600 -10.898500 -39.991500
C -15.974200 -12.220400 -39.938100
H -15.806300 -10.238200 -40.353400
O -14.838300 -11.967900 -42.644200
C -14.565500 -12.607500 -40.325600
H -14.483200 -13.591000 -40.249300
C -14.112500 -12.206400 -41.700300
H -13.944300 -12.207800 -39.667200
O -12.794000 -12.197100 -41.804700
H -12.534500 -12.053200 -42.717800
