24
Fragment
H -20.575800 -8.451200 -31.881000
O -20.108500 -8.544500 -34.077300
H -19.823900 -7.320500 -31.034000
C -19.745200 -8.220000 -31.413500
H -19.585300 -8.865700 -30.694200
C -18.951300 -8.453200 -33.708900
H -18.778500 -8.040800 -36.353900
H -18.705300 -9.621900 -36.120600
N -18.619200 -8.256000 -32.365000
C -18.220900 -8.775700 -36.023900
N -17.904100 -8.552500 -34.611800
H -17.390000 -8.813700 -36.541800
C -17.328000 -8.124700 -31.829600
O -17.138200 -7.958200 -30.627700
C -16.615900 -8.427200 -34.158400
C -16.327100 -8.218000 -32.839900
N -15.480300 -8.491200 -34.913000
N -14.943000 -8.146700 -32.771500
C -14.496800 -8.312600 -34.018200
H -14.372200 -7.077300 -31.160800
H -14.268600 -8.659800 -30.943400
C -14.122000 -7.928200 -31.579300
H -13.575300 -8.305300 -34.249900
H -13.177200 -7.900900 -31.833400
18
Fragment
H -21.818000 -12.091200 -27.337900
H -21.158700 -9.857800 -27.292600
C -20.966800 -11.836600 -27.672400
C -20.571300 -10.518100 -27.640000
H -20.379800 -13.694300 -28.239300
C -20.109300 -12.784800 -28.199200
C -19.324400 -10.147600 -28.110200
H -19.064100 -9.234100 -28.087500
C -18.862500 -12.421600 -28.667700
C -18.451100 -11.099700 -28.614300
H -18.283100 -13.081900 -29.029700
O -17.315100 -11.352200 -31.320500
C -17.042300 -10.712600 -29.001800
H -16.960100 -9.729200 -28.925500
C -16.589400 -11.113700 -30.376500
H -16.421200 -11.112400 -28.343400
O -15.270800 -11.123000 -30.480900
H -15.011400 -11.267000 -31.394100
42
Fragment
H -20.575800 -8.451200 -31.881000
O -20.108500 -8.544500 -34.077300
H -19.823900 -7.320500 -31.034000
C -19.745200 -8.220000 -31.413500
H -19.585300 -8.865700 -30.694200
C -18.951300 -8.453200 -33.708900
H -18.778500 -8.040800 -36.353900
H -18.705300 -9.621900 -36.120600
N -18.619200 -8.256000 -32.365000
C -18.220900 -8.775700 -36.023900
N -17.904100 -8.552500 -34.611800
H -17.390000 -8.813700 -36.541800
C -17.328000 -8.124700 -31.829600
O -17.138200 -7.958200 -30.627700
C -16.615900 -8.427200 -34.158400
C -16.327100 -8.218000 -32.839900
N -15.480300 -8.491200 -34.913000
N -14.943000 -8.146700 -32.771500
C -14.496800 -8.312600 -34.018200
H -14.372200 -7.077300 -31.160800
H -14.268600 -8.659800 -30.943400
C -14.122000 -7.928200 -31.579300
H -13.575300 -8.305300 -34.249900
H -13.177200 -7.900900 -31.833400
H -21.818000 -12.091200 -27.337900
H -21.158700 -9.857800 -27.292600
C -20.966800 -11.836600 -27.672400
C -20.571300 -10.518100 -27.640000
H -20.379800 -13.694300 -28.239300
C -20.109300 -12.784800 -28.199200
C -19.324400 -10.147600 -28.110200
H -19.064100 -9.234100 -28.087500
C -18.862500 -12.421600 -28.667700
C -18.451100 -11.099700 -28.614300
H -18.283100 -13.081900 -29.029700
O -17.315100 -11.352200 -31.320500
C -17.042300 -10.712600 -29.001800
H -16.960100 -9.729200 -28.925500
C -16.589400 -11.113700 -30.376500
H -16.421200 -11.112400 -28.343400
O -15.270800 -11.123000 -30.480900
H -15.011400 -11.267000 -31.394100
