24
Fragment
H -20.575800 -8.451200 -31.881000
O -20.108500 -8.544500 -34.077300
H -19.823900 -7.320500 -31.034000
C -19.745200 -8.220000 -31.413500
H -19.585300 -8.865700 -30.694200
C -18.951300 -8.453200 -33.708900
H -18.778500 -8.040800 -36.353900
H -18.705300 -9.621900 -36.120600
N -18.619200 -8.256000 -32.365000
C -18.220900 -8.775700 -36.023900
N -17.904100 -8.552500 -34.611800
H -17.390000 -8.813700 -36.541800
C -17.328000 -8.124700 -31.829600
O -17.138200 -7.958200 -30.627700
C -16.615900 -8.427200 -34.158400
C -16.327100 -8.218000 -32.839900
N -15.480300 -8.491200 -34.913000
N -14.943000 -8.146700 -32.771500
C -14.496800 -8.312600 -34.018200
H -14.372200 -7.077300 -31.160800
H -14.268600 -8.659800 -30.943400
C -14.122000 -7.928200 -31.579300
H -13.575300 -8.305300 -34.249900
H -13.177200 -7.900900 -31.833400
18
Fragment
H -15.039600 -8.721700 -36.548600
O -14.780200 -8.865700 -37.461800
H -13.629800 -8.876300 -39.599300
C -13.461600 -8.875000 -37.566200
H -13.090900 -10.259500 -39.017200
C -13.008700 -9.276100 -38.940900
O -12.735900 -8.636500 -36.622200
H -11.767900 -6.906800 -38.913000
C -11.599900 -8.889000 -39.328400
C -11.188500 -7.567100 -39.275000
H -10.986900 -10.754600 -39.855200
C -10.726600 -9.841100 -39.832500
C -9.941700 -7.203900 -39.743500
H -9.671200 -6.294400 -39.703400
C -9.479700 -9.470600 -40.302700
C -9.084200 -8.152100 -40.270300
H -8.892300 -10.130900 -40.650100
H -8.233000 -7.897500 -40.604800
42
Fragment
H -20.575800 -8.451200 -31.881000
O -20.108500 -8.544500 -34.077300
H -19.823900 -7.320500 -31.034000
C -19.745200 -8.220000 -31.413500
H -19.585300 -8.865700 -30.694200
C -18.951300 -8.453200 -33.708900
H -18.778500 -8.040800 -36.353900
H -18.705300 -9.621900 -36.120600
N -18.619200 -8.256000 -32.365000
C -18.220900 -8.775700 -36.023900
N -17.904100 -8.552500 -34.611800
H -17.390000 -8.813700 -36.541800
C -17.328000 -8.124700 -31.829600
O -17.138200 -7.958200 -30.627700
C -16.615900 -8.427200 -34.158400
C -16.327100 -8.218000 -32.839900
N -15.480300 -8.491200 -34.913000
N -14.943000 -8.146700 -32.771500
C -14.496800 -8.312600 -34.018200
H -14.372200 -7.077300 -31.160800
H -14.268600 -8.659800 -30.943400
C -14.122000 -7.928200 -31.579300
H -13.575300 -8.305300 -34.249900
H -13.177200 -7.900900 -31.833400
H -15.039600 -8.721700 -36.548600
O -14.780200 -8.865700 -37.461800
H -13.629800 -8.876300 -39.599300
C -13.461600 -8.875000 -37.566200
H -13.090900 -10.259500 -39.017200
C -13.008700 -9.276100 -38.940900
O -12.735900 -8.636500 -36.622200
H -11.767900 -6.906800 -38.913000
C -11.599900 -8.889000 -39.328400
C -11.188500 -7.567100 -39.275000
H -10.986900 -10.754600 -39.855200
C -10.726600 -9.841100 -39.832500
C -9.941700 -7.203900 -39.743500
H -9.671200 -6.294400 -39.703400
C -9.479700 -9.470600 -40.302700
C -9.084200 -8.152100 -40.270300
H -8.892300 -10.130900 -40.650100
H -8.233000 -7.897500 -40.604800
