3
Fragment
H -5.442600 -10.476500 -43.258900
O -5.183500 -9.685300 -43.145400
H -4.650600 -9.545200 -43.777900
20
Fragment
O -9.158300 -11.294200 -45.781000
H -8.151900 -5.496300 -41.939200
N -8.055200 -6.995800 -43.280700
N -8.035200 -11.145500 -46.264800
N -7.792900 -9.108500 -45.109900
N -7.777100 -5.832200 -42.673600
C -7.438200 -9.824700 -46.147300
O -7.360300 -12.021000 -46.781500
C -7.130500 -6.980800 -44.229900
N -6.996300 -7.987800 -45.190300
N -6.788100 -5.169600 -43.202000
C -6.411300 -9.226400 -46.910700
O -6.378900 -10.507200 -48.806400
N -6.336200 -5.899400 -44.217400
C -6.123900 -8.025000 -46.259500
N -5.831900 -9.638800 -48.138700
H -5.505300 -6.287500 -46.216500
N -5.219400 -7.073000 -46.522300
H -4.887900 -7.151600 -47.343800
O -4.772500 -9.077800 -48.466300
23
Fragment
H -5.442600 -10.476500 -43.258900
O -5.183500 -9.685300 -43.145400
H -4.650600 -9.545200 -43.777900
O -9.158300 -11.294200 -45.781000
H -8.151900 -5.496300 -41.939200
N -8.055200 -6.995800 -43.280700
N -8.035200 -11.145500 -46.264800
N -7.792900 -9.108500 -45.109900
N -7.777100 -5.832200 -42.673600
C -7.438200 -9.824700 -46.147300
O -7.360300 -12.021000 -46.781500
C -7.130500 -6.980800 -44.229900
N -6.996300 -7.987800 -45.190300
N -6.788100 -5.169600 -43.202000
C -6.411300 -9.226400 -46.910700
O -6.378900 -10.507200 -48.806400
N -6.336200 -5.899400 -44.217400
C -6.123900 -8.025000 -46.259500
N -5.831900 -9.638800 -48.138700
H -5.505300 -6.287500 -46.216500
N -5.219400 -7.073000 -46.522300
H -4.887900 -7.151600 -47.343800
O -4.772500 -9.077800 -48.466300
