3
Fragment
H -5.442600 -10.476500 -43.258900
O -5.183500 -9.685300 -43.145400
H -4.650600 -9.545200 -43.777900
3
Fragment
H -4.518200 -11.896700 -39.927500
O -3.985300 -11.756600 -40.560000
H -3.726200 -10.965400 -40.446400
6
Fragment
H -5.442600 -10.476500 -43.258900
O -5.183500 -9.685300 -43.145400
H -4.650600 -9.545200 -43.777900
H -4.518200 -11.896700 -39.927500
O -3.985300 -11.756600 -40.560000
H -3.726200 -10.965400 -40.446400
