24
Fragment
H -18.410500 -20.161200 -11.993900
H -18.109500 -18.030000 -13.007000
C -17.906300 -20.047500 -12.756800
C -17.679500 -18.811400 -13.258300
H -17.527300 -22.036600 -13.069500
C -17.307600 -21.177000 -13.315900
C -16.839300 -18.640900 -14.373900
N -16.514900 -17.539800 -15.049300
C -16.487400 -21.073300 -14.372700
N -16.252300 -19.827300 -14.899200
H -16.024800 -21.823500 -14.757900
C -15.700000 -18.015700 -16.043600
C -15.525200 -19.365500 -15.962300
N -15.007700 -17.473000 -17.090400
N -14.679600 -19.754800 -16.965300
C -14.407900 -18.528700 -17.639400
H -14.371000 -21.738200 -16.809000
C -14.129400 -20.962500 -17.333000
C -13.569400 -18.633800 -18.776300
H -13.418100 -17.802600 -19.297800
C -13.303200 -20.986600 -18.408600
C -13.044500 -19.814500 -19.142700
H -12.909400 -21.795100 -18.584900
H -12.507600 -19.976400 -20.023200
24
Fragment
H -18.946000 -27.080400 -11.243500
H -18.544200 -28.899100 -12.681800
C -18.409100 -26.918500 -12.124000
C -18.150400 -28.090600 -12.858100
H -18.035500 -24.906600 -11.968900
C -17.884200 -25.737800 -12.490400
C -17.324200 -28.066500 -13.933700
H -17.082600 -28.842200 -14.457700
C -17.045700 -25.632700 -13.627300
N -16.774000 -26.858800 -14.301400
N -16.445900 -24.577000 -14.176300
C -15.928400 -26.469500 -15.304400
C -15.753600 -25.119700 -15.223100
H -15.428800 -28.927500 -16.508800
N -15.201300 -26.931300 -16.367500
C -14.966200 -28.177300 -16.894000
N -14.938700 -24.643800 -16.217400
C -14.614300 -25.744900 -16.892800
C -14.146000 -28.281000 -17.950900
H -13.926300 -29.140600 -18.197200
C -13.774100 -25.915400 -18.008400
C -13.547300 -27.151500 -18.509900
H -13.344100 -25.134000 -18.259800
H -13.043100 -27.265200 -19.272800
48
Fragment
H -18.410500 -20.161200 -11.993900
H -18.109500 -18.030000 -13.007000
C -17.906300 -20.047500 -12.756800
C -17.679500 -18.811400 -13.258300
H -17.527300 -22.036600 -13.069500
C -17.307600 -21.177000 -13.315900
C -16.839300 -18.640900 -14.373900
N -16.514900 -17.539800 -15.049300
C -16.487400 -21.073300 -14.372700
N -16.252300 -19.827300 -14.899200
H -16.024800 -21.823500 -14.757900
C -15.700000 -18.015700 -16.043600
C -15.525200 -19.365500 -15.962300
N -15.007700 -17.473000 -17.090400
N -14.679600 -19.754800 -16.965300
C -14.407900 -18.528700 -17.639400
H -14.371000 -21.738200 -16.809000
C -14.129400 -20.962500 -17.333000
C -13.569400 -18.633800 -18.776300
H -13.418100 -17.802600 -19.297800
C -13.303200 -20.986600 -18.408600
C -13.044500 -19.814500 -19.142700
H -12.909400 -21.795100 -18.584900
H -12.507600 -19.976400 -20.023200
H -18.946000 -27.080400 -11.243500
H -18.544200 -28.899100 -12.681800
C -18.409100 -26.918500 -12.124000
C -18.150400 -28.090600 -12.858100
H -18.035500 -24.906600 -11.968900
C -17.884200 -25.737800 -12.490400
C -17.324200 -28.066500 -13.933700
H -17.082600 -28.842200 -14.457700
C -17.045700 -25.632700 -13.627300
N -16.774000 -26.858800 -14.301400
N -16.445900 -24.577000 -14.176300
C -15.928400 -26.469500 -15.304400
C -15.753600 -25.119700 -15.223100
H -15.428800 -28.927500 -16.508800
N -15.201300 -26.931300 -16.367500
C -14.966200 -28.177300 -16.894000
N -14.938700 -24.643800 -16.217400
C -14.614300 -25.744900 -16.892800
C -14.146000 -28.281000 -17.950900
H -13.926300 -29.140600 -18.197200
C -13.774100 -25.915400 -18.008400
C -13.547300 -27.151500 -18.509900
H -13.344100 -25.134000 -18.259800
H -13.043100 -27.265200 -19.272800
