41
Fragment
H -20.835300 -21.656000 -11.617900
H -20.227400 -20.275500 -13.239200
H -19.956600 -22.744600 -12.394300
C -19.949700 -21.852100 -11.989400
N -19.619400 -20.865300 -13.000300
H -19.281100 -21.823300 -11.273300
N -18.787200 -18.570600 -14.488300
H -18.503100 -17.023500 -15.687700
C -18.425000 -20.831200 -13.572400
H -18.392800 -18.055700 -18.698100
N -18.270400 -17.853800 -15.513100
C -18.170300 -19.759300 -14.565000
O -18.148800 -22.329900 -16.457000
O -17.539600 -21.662700 -13.293000
H -17.514200 -19.391000 -18.772500
C -17.480800 -18.412100 -18.726600
C -17.365200 -18.534700 -16.239500
C -17.273800 -19.786200 -15.646500
H -17.018000 -18.064200 -19.516600
C -16.957200 -22.025300 -16.491800
C -16.732500 -17.990000 -17.474900
H -16.714700 -17.001600 -17.423500
N -16.463200 -20.847100 -16.105300
C -15.929800 -23.018500 -16.933100
N -15.843300 -24.162600 -16.264600
H -15.797500 -18.309100 -17.530200
O -15.638800 -21.152700 -19.066400
H -15.592600 -20.726400 -16.138000
C -14.925500 -22.979600 -17.913100
N -14.797300 -24.826700 -16.817000
N -14.738600 -21.980900 -18.910600
H -14.535100 -25.622000 -16.545300
C -14.203400 -24.163800 -17.807700
O -13.703900 -22.001400 -19.574400
H -13.384700 -26.718100 -18.222300
H -13.252700 -24.728100 -19.524400
C -13.032300 -24.707100 -18.559400
C -12.625500 -26.107800 -18.113700
H -12.356500 -26.086100 -17.171800
H -12.262400 -24.096400 -18.439700
H -11.875200 -26.419200 -18.660900
41
Fragment
H -20.289900 -12.145400 -11.617900
H -19.682100 -10.764900 -13.239200
H -19.411300 -13.234000 -12.394300
C -19.404400 -12.341500 -11.989400
N -19.074000 -11.354800 -13.000300
H -18.735700 -12.312700 -11.273300
N -18.241800 -9.060000 -14.488300
H -17.957700 -7.512900 -15.687700
C -17.879700 -11.320600 -13.572400
H -17.847400 -8.545100 -18.698100
N -17.725000 -8.343200 -15.513100
C -17.624900 -10.248700 -14.565000
O -17.603400 -12.819300 -16.457000
O -16.994200 -12.152100 -13.293000
H -16.968800 -9.880500 -18.772500
C -16.935400 -8.901600 -18.726600
C -16.819900 -9.024200 -16.239500
C -16.728500 -10.275600 -15.646500
H -16.472600 -8.553600 -19.516600
C -16.411900 -12.514700 -16.491800
C -16.187100 -8.479400 -17.474900
H -16.169300 -7.491000 -17.423500
N -15.917900 -11.336500 -16.105300
C -15.384400 -13.507900 -16.933100
N -15.297900 -14.652000 -16.264600
H -15.252100 -8.798500 -17.530200
O -15.093500 -11.642200 -19.066400
H -15.047200 -11.215800 -16.138000
C -14.380100 -13.469000 -17.913100
N -14.251900 -15.316100 -16.817000
N -14.193200 -12.470300 -18.910600
H -13.989700 -16.111400 -16.545300
C -13.658000 -14.653200 -17.807700
O -13.158500 -12.490800 -19.574400
H -12.839300 -17.207500 -18.222300
H -12.707300 -15.217500 -19.524400
C -12.487000 -15.196500 -18.559400
C -12.080100 -16.597200 -18.113700
H -11.811100 -16.575500 -17.171800
H -11.717000 -14.585900 -18.439700
H -11.329800 -16.908600 -18.660900
82
Fragment
H -20.835300 -21.656000 -11.617900
H -20.227400 -20.275500 -13.239200
H -19.956600 -22.744600 -12.394300
C -19.949700 -21.852100 -11.989400
N -19.619400 -20.865300 -13.000300
H -19.281100 -21.823300 -11.273300
N -18.787200 -18.570600 -14.488300
H -18.503100 -17.023500 -15.687700
C -18.425000 -20.831200 -13.572400
H -18.392800 -18.055700 -18.698100
N -18.270400 -17.853800 -15.513100
C -18.170300 -19.759300 -14.565000
O -18.148800 -22.329900 -16.457000
O -17.539600 -21.662700 -13.293000
H -17.514200 -19.391000 -18.772500
C -17.480800 -18.412100 -18.726600
C -17.365200 -18.534700 -16.239500
C -17.273800 -19.786200 -15.646500
H -17.018000 -18.064200 -19.516600
C -16.957200 -22.025300 -16.491800
C -16.732500 -17.990000 -17.474900
H -16.714700 -17.001600 -17.423500
N -16.463200 -20.847100 -16.105300
C -15.929800 -23.018500 -16.933100
N -15.843300 -24.162600 -16.264600
H -15.797500 -18.309100 -17.530200
O -15.638800 -21.152700 -19.066400
H -15.592600 -20.726400 -16.138000
C -14.925500 -22.979600 -17.913100
N -14.797300 -24.826700 -16.817000
N -14.738600 -21.980900 -18.910600
H -14.535100 -25.622000 -16.545300
C -14.203400 -24.163800 -17.807700
O -13.703900 -22.001400 -19.574400
H -13.384700 -26.718100 -18.222300
H -13.252700 -24.728100 -19.524400
C -13.032300 -24.707100 -18.559400
C -12.625500 -26.107800 -18.113700
H -12.356500 -26.086100 -17.171800
H -12.262400 -24.096400 -18.439700
H -11.875200 -26.419200 -18.660900
H -20.289900 -12.145400 -11.617900
H -19.682100 -10.764900 -13.239200
H -19.411300 -13.234000 -12.394300
C -19.404400 -12.341500 -11.989400
N -19.074000 -11.354800 -13.000300
H -18.735700 -12.312700 -11.273300
N -18.241800 -9.060000 -14.488300
H -17.957700 -7.512900 -15.687700
C -17.879700 -11.320600 -13.572400
H -17.847400 -8.545100 -18.698100
N -17.725000 -8.343200 -15.513100
C -17.624900 -10.248700 -14.565000
O -17.603400 -12.819300 -16.457000
O -16.994200 -12.152100 -13.293000
H -16.968800 -9.880500 -18.772500
C -16.935400 -8.901600 -18.726600
C -16.819900 -9.024200 -16.239500
C -16.728500 -10.275600 -15.646500
H -16.472600 -8.553600 -19.516600
C -16.411900 -12.514700 -16.491800
C -16.187100 -8.479400 -17.474900
H -16.169300 -7.491000 -17.423500
N -15.917900 -11.336500 -16.105300
C -15.384400 -13.507900 -16.933100
N -15.297900 -14.652000 -16.264600
H -15.252100 -8.798500 -17.530200
O -15.093500 -11.642200 -19.066400
H -15.047200 -11.215800 -16.138000
C -14.380100 -13.469000 -17.913100
N -14.251900 -15.316100 -16.817000
N -14.193200 -12.470300 -18.910600
H -13.989700 -16.111400 -16.545300
C -13.658000 -14.653200 -17.807700
O -13.158500 -12.490800 -19.574400
H -12.839300 -17.207500 -18.222300
H -12.707300 -15.217500 -19.524400
C -12.487000 -15.196500 -18.559400
C -12.080100 -16.597200 -18.113700
H -11.811100 -16.575500 -17.171800
H -11.717000 -14.585900 -18.439700
H -11.329800 -16.908600 -18.660900
