41
Fragment
H -20.835300 -21.656000 -11.617900
H -20.227400 -20.275500 -13.239200
H -19.956600 -22.744600 -12.394300
C -19.949700 -21.852100 -11.989400
N -19.619400 -20.865300 -13.000300
H -19.281100 -21.823300 -11.273300
N -18.787200 -18.570600 -14.488300
H -18.503100 -17.023500 -15.687700
C -18.425000 -20.831200 -13.572400
H -18.392800 -18.055700 -18.698100
N -18.270400 -17.853800 -15.513100
C -18.170300 -19.759300 -14.565000
O -18.148800 -22.329900 -16.457000
O -17.539600 -21.662700 -13.293000
H -17.514200 -19.391000 -18.772500
C -17.480800 -18.412100 -18.726600
C -17.365200 -18.534700 -16.239500
C -17.273800 -19.786200 -15.646500
H -17.018000 -18.064200 -19.516600
C -16.957200 -22.025300 -16.491800
C -16.732500 -17.990000 -17.474900
H -16.714700 -17.001600 -17.423500
N -16.463200 -20.847100 -16.105300
C -15.929800 -23.018500 -16.933100
N -15.843300 -24.162600 -16.264600
H -15.797500 -18.309100 -17.530200
O -15.638800 -21.152700 -19.066400
H -15.592600 -20.726400 -16.138000
C -14.925500 -22.979600 -17.913100
N -14.797300 -24.826700 -16.817000
N -14.738600 -21.980900 -18.910600
H -14.535100 -25.622000 -16.545300
C -14.203400 -24.163800 -17.807700
O -13.703900 -22.001400 -19.574400
H -13.384700 -26.718100 -18.222300
H -13.252700 -24.728100 -19.524400
C -13.032300 -24.707100 -18.559400
C -12.625500 -26.107800 -18.113700
H -12.356500 -26.086100 -17.171800
H -12.262400 -24.096400 -18.439700
H -11.875200 -26.419200 -18.660900
41
Fragment
H -12.093500 -31.166600 -11.617900
H -11.485600 -29.786000 -13.239200
H -11.214800 -32.255200 -12.394300
C -11.207900 -31.362700 -11.989400
N -10.877600 -30.375900 -13.000300
H -10.539300 -31.333800 -11.273300
N -10.045400 -28.081200 -14.488300
H -9.761300 -26.534100 -15.687700
C -9.683200 -30.341800 -13.572400
H -9.651000 -27.566200 -18.698100
N -9.528500 -27.364400 -15.513100
C -9.428500 -29.269800 -14.565000
O -9.407000 -31.840500 -16.457000
O -8.797800 -31.173300 -13.293000
H -8.772400 -28.901600 -18.772500
C -8.738900 -27.922700 -18.726600
C -8.623400 -28.045300 -16.239500
C -8.532000 -29.296800 -15.646500
H -8.276100 -27.574800 -19.516600
C -8.215400 -31.535900 -16.491800
C -7.990700 -27.500600 -17.474900
H -7.972900 -26.512200 -17.423500
N -7.721400 -30.357700 -16.105300
C -7.188000 -32.529100 -16.933100
N -7.101500 -33.673100 -16.264600
H -7.055700 -27.819700 -17.530200
O -6.897000 -30.663300 -19.066400
H -6.850800 -30.237000 -16.138000
C -6.183600 -32.490100 -17.913100
N -6.055500 -34.337300 -16.817000
N -5.996800 -31.491500 -18.910600
H -5.793200 -35.132600 -16.545300
C -5.461600 -33.674400 -17.807700
O -4.962100 -31.512000 -19.574400
H -4.642900 -36.228700 -18.222300
H -4.510900 -34.238700 -19.524400
C -4.290500 -34.217700 -18.559400
C -3.883700 -35.618400 -18.113700
H -3.614600 -35.596600 -17.171800
H -3.520600 -33.607000 -18.439700
H -3.133300 -35.929800 -18.660900
82
Fragment
H -20.835300 -21.656000 -11.617900
H -20.227400 -20.275500 -13.239200
H -19.956600 -22.744600 -12.394300
C -19.949700 -21.852100 -11.989400
N -19.619400 -20.865300 -13.000300
H -19.281100 -21.823300 -11.273300
N -18.787200 -18.570600 -14.488300
H -18.503100 -17.023500 -15.687700
C -18.425000 -20.831200 -13.572400
H -18.392800 -18.055700 -18.698100
N -18.270400 -17.853800 -15.513100
C -18.170300 -19.759300 -14.565000
O -18.148800 -22.329900 -16.457000
O -17.539600 -21.662700 -13.293000
H -17.514200 -19.391000 -18.772500
C -17.480800 -18.412100 -18.726600
C -17.365200 -18.534700 -16.239500
C -17.273800 -19.786200 -15.646500
H -17.018000 -18.064200 -19.516600
C -16.957200 -22.025300 -16.491800
C -16.732500 -17.990000 -17.474900
H -16.714700 -17.001600 -17.423500
N -16.463200 -20.847100 -16.105300
C -15.929800 -23.018500 -16.933100
N -15.843300 -24.162600 -16.264600
H -15.797500 -18.309100 -17.530200
O -15.638800 -21.152700 -19.066400
H -15.592600 -20.726400 -16.138000
C -14.925500 -22.979600 -17.913100
N -14.797300 -24.826700 -16.817000
N -14.738600 -21.980900 -18.910600
H -14.535100 -25.622000 -16.545300
C -14.203400 -24.163800 -17.807700
O -13.703900 -22.001400 -19.574400
H -13.384700 -26.718100 -18.222300
H -13.252700 -24.728100 -19.524400
C -13.032300 -24.707100 -18.559400
C -12.625500 -26.107800 -18.113700
H -12.356500 -26.086100 -17.171800
H -12.262400 -24.096400 -18.439700
H -11.875200 -26.419200 -18.660900
H -12.093500 -31.166600 -11.617900
H -11.485600 -29.786000 -13.239200
H -11.214800 -32.255200 -12.394300
C -11.207900 -31.362700 -11.989400
N -10.877600 -30.375900 -13.000300
H -10.539300 -31.333800 -11.273300
N -10.045400 -28.081200 -14.488300
H -9.761300 -26.534100 -15.687700
C -9.683200 -30.341800 -13.572400
H -9.651000 -27.566200 -18.698100
N -9.528500 -27.364400 -15.513100
C -9.428500 -29.269800 -14.565000
O -9.407000 -31.840500 -16.457000
O -8.797800 -31.173300 -13.293000
H -8.772400 -28.901600 -18.772500
C -8.738900 -27.922700 -18.726600
C -8.623400 -28.045300 -16.239500
C -8.532000 -29.296800 -15.646500
H -8.276100 -27.574800 -19.516600
C -8.215400 -31.535900 -16.491800
C -7.990700 -27.500600 -17.474900
H -7.972900 -26.512200 -17.423500
N -7.721400 -30.357700 -16.105300
C -7.188000 -32.529100 -16.933100
N -7.101500 -33.673100 -16.264600
H -7.055700 -27.819700 -17.530200
O -6.897000 -30.663300 -19.066400
H -6.850800 -30.237000 -16.138000
C -6.183600 -32.490100 -17.913100
N -6.055500 -34.337300 -16.817000
N -5.996800 -31.491500 -18.910600
H -5.793200 -35.132600 -16.545300
C -5.461600 -33.674400 -17.807700
O -4.962100 -31.512000 -19.574400
H -4.642900 -36.228700 -18.222300
H -4.510900 -34.238700 -19.524400
C -4.290500 -34.217700 -18.559400
C -3.883700 -35.618400 -18.113700
H -3.614600 -35.596600 -17.171800
H -3.520600 -33.607000 -18.439700
H -3.133300 -35.929800 -18.660900
