41
Fragment
H -20.835300 -21.656000 -11.617900
H -20.227400 -20.275500 -13.239200
H -19.956600 -22.744600 -12.394300
C -19.949700 -21.852100 -11.989400
N -19.619400 -20.865300 -13.000300
H -19.281100 -21.823300 -11.273300
N -18.787200 -18.570600 -14.488300
H -18.503100 -17.023500 -15.687700
C -18.425000 -20.831200 -13.572400
H -18.392800 -18.055700 -18.698100
N -18.270400 -17.853800 -15.513100
C -18.170300 -19.759300 -14.565000
O -18.148800 -22.329900 -16.457000
O -17.539600 -21.662700 -13.293000
H -17.514200 -19.391000 -18.772500
C -17.480800 -18.412100 -18.726600
C -17.365200 -18.534700 -16.239500
C -17.273800 -19.786200 -15.646500
H -17.018000 -18.064200 -19.516600
C -16.957200 -22.025300 -16.491800
C -16.732500 -17.990000 -17.474900
H -16.714700 -17.001600 -17.423500
N -16.463200 -20.847100 -16.105300
C -15.929800 -23.018500 -16.933100
N -15.843300 -24.162600 -16.264600
H -15.797500 -18.309100 -17.530200
O -15.638800 -21.152700 -19.066400
H -15.592600 -20.726400 -16.138000
C -14.925500 -22.979600 -17.913100
N -14.797300 -24.826700 -16.817000
N -14.738600 -21.980900 -18.910600
H -14.535100 -25.622000 -16.545300
C -14.203400 -24.163800 -17.807700
O -13.703900 -22.001400 -19.574400
H -13.384700 -26.718100 -18.222300
H -13.252700 -24.728100 -19.524400
C -13.032300 -24.707100 -18.559400
C -12.625500 -26.107800 -18.113700
H -12.356500 -26.086100 -17.171800
H -12.262400 -24.096400 -18.439700
H -11.875200 -26.419200 -18.660900
41
Fragment
H -19.363000 -10.667600 -20.499500
H -18.975800 -12.990400 -20.720800
H -18.881700 -11.000800 -21.988600
C -18.612700 -10.979100 -21.046800
C -18.205900 -12.379800 -20.601000
H -17.985500 -12.358800 -19.636000
H -17.853500 -10.368800 -20.938100
O -17.534300 -15.085500 -19.586000
C -17.034800 -12.923000 -21.352700
H -16.703100 -11.464800 -22.615100
N -16.499600 -15.105900 -20.249900
N -16.440900 -12.260100 -22.343500
C -16.312700 -14.107300 -21.247400
H -15.645600 -16.360500 -23.022400
O -15.599400 -15.934100 -20.094000
H -15.440700 -18.777800 -21.630300
N -15.394900 -12.924300 -22.895800
C -15.308400 -14.068400 -22.227400
N -14.775000 -16.239700 -23.055100
H -14.523500 -20.085300 -21.737000
C -14.505700 -19.096800 -21.685500
C -14.280900 -15.061600 -22.668600
H -14.220200 -19.022600 -19.643900
C -13.964300 -17.300700 -23.513900
C -13.873000 -18.552100 -22.920900
C -13.757400 -18.674700 -20.433800
H -13.724000 -17.695800 -20.387900
O -13.698600 -15.424200 -25.867400
O -13.089400 -14.757000 -22.703500
C -13.067900 -17.327600 -24.595400
N -12.967800 -19.233100 -23.647300
H -12.845400 -19.031200 -20.462300
C -12.813200 -16.255600 -25.588000
H -12.735100 -20.063400 -23.472800
N -12.451000 -18.516300 -24.672100
H -11.957100 -15.263600 -27.887100
N -11.618800 -16.221500 -26.160100
C -11.288500 -15.234800 -27.171100
H -11.281600 -14.342300 -26.766200
H -11.010800 -16.811400 -25.921300
H -10.402900 -15.430800 -27.542500
82
Fragment
H -20.835300 -21.656000 -11.617900
H -20.227400 -20.275500 -13.239200
H -19.956600 -22.744600 -12.394300
C -19.949700 -21.852100 -11.989400
N -19.619400 -20.865300 -13.000300
H -19.281100 -21.823300 -11.273300
N -18.787200 -18.570600 -14.488300
H -18.503100 -17.023500 -15.687700
C -18.425000 -20.831200 -13.572400
H -18.392800 -18.055700 -18.698100
N -18.270400 -17.853800 -15.513100
C -18.170300 -19.759300 -14.565000
O -18.148800 -22.329900 -16.457000
O -17.539600 -21.662700 -13.293000
H -17.514200 -19.391000 -18.772500
C -17.480800 -18.412100 -18.726600
C -17.365200 -18.534700 -16.239500
C -17.273800 -19.786200 -15.646500
H -17.018000 -18.064200 -19.516600
C -16.957200 -22.025300 -16.491800
C -16.732500 -17.990000 -17.474900
H -16.714700 -17.001600 -17.423500
N -16.463200 -20.847100 -16.105300
C -15.929800 -23.018500 -16.933100
N -15.843300 -24.162600 -16.264600
H -15.797500 -18.309100 -17.530200
O -15.638800 -21.152700 -19.066400
H -15.592600 -20.726400 -16.138000
C -14.925500 -22.979600 -17.913100
N -14.797300 -24.826700 -16.817000
N -14.738600 -21.980900 -18.910600
H -14.535100 -25.622000 -16.545300
C -14.203400 -24.163800 -17.807700
O -13.703900 -22.001400 -19.574400
H -13.384700 -26.718100 -18.222300
H -13.252700 -24.728100 -19.524400
C -13.032300 -24.707100 -18.559400
C -12.625500 -26.107800 -18.113700
H -12.356500 -26.086100 -17.171800
H -12.262400 -24.096400 -18.439700
H -11.875200 -26.419200 -18.660900
H -19.363000 -10.667600 -20.499500
H -18.975800 -12.990400 -20.720800
H -18.881700 -11.000800 -21.988600
C -18.612700 -10.979100 -21.046800
C -18.205900 -12.379800 -20.601000
H -17.985500 -12.358800 -19.636000
H -17.853500 -10.368800 -20.938100
O -17.534300 -15.085500 -19.586000
C -17.034800 -12.923000 -21.352700
H -16.703100 -11.464800 -22.615100
N -16.499600 -15.105900 -20.249900
N -16.440900 -12.260100 -22.343500
C -16.312700 -14.107300 -21.247400
H -15.645600 -16.360500 -23.022400
O -15.599400 -15.934100 -20.094000
H -15.440700 -18.777800 -21.630300
N -15.394900 -12.924300 -22.895800
C -15.308400 -14.068400 -22.227400
N -14.775000 -16.239700 -23.055100
H -14.523500 -20.085300 -21.737000
C -14.505700 -19.096800 -21.685500
C -14.280900 -15.061600 -22.668600
H -14.220200 -19.022600 -19.643900
C -13.964300 -17.300700 -23.513900
C -13.873000 -18.552100 -22.920900
C -13.757400 -18.674700 -20.433800
H -13.724000 -17.695800 -20.387900
O -13.698600 -15.424200 -25.867400
O -13.089400 -14.757000 -22.703500
C -13.067900 -17.327600 -24.595400
N -12.967800 -19.233100 -23.647300
H -12.845400 -19.031200 -20.462300
C -12.813200 -16.255600 -25.588000
H -12.735100 -20.063400 -23.472800
N -12.451000 -18.516300 -24.672100
H -11.957100 -15.263600 -27.887100
N -11.618800 -16.221500 -26.160100
C -11.288500 -15.234800 -27.171100
H -11.281600 -14.342300 -26.766200
H -11.010800 -16.811400 -25.921300
H -10.402900 -15.430800 -27.542500
