41
Fragment
H -20.835300 -21.656000 -11.617900
H -20.227400 -20.275500 -13.239200
H -19.956600 -22.744600 -12.394300
C -19.949700 -21.852100 -11.989400
N -19.619400 -20.865300 -13.000300
H -19.281100 -21.823300 -11.273300
N -18.787200 -18.570600 -14.488300
H -18.503100 -17.023500 -15.687700
C -18.425000 -20.831200 -13.572400
H -18.392800 -18.055700 -18.698100
N -18.270400 -17.853800 -15.513100
C -18.170300 -19.759300 -14.565000
O -18.148800 -22.329900 -16.457000
O -17.539600 -21.662700 -13.293000
H -17.514200 -19.391000 -18.772500
C -17.480800 -18.412100 -18.726600
C -17.365200 -18.534700 -16.239500
C -17.273800 -19.786200 -15.646500
H -17.018000 -18.064200 -19.516600
C -16.957200 -22.025300 -16.491800
C -16.732500 -17.990000 -17.474900
H -16.714700 -17.001600 -17.423500
N -16.463200 -20.847100 -16.105300
C -15.929800 -23.018500 -16.933100
N -15.843300 -24.162600 -16.264600
H -15.797500 -18.309100 -17.530200
O -15.638800 -21.152700 -19.066400
H -15.592600 -20.726400 -16.138000
C -14.925500 -22.979600 -17.913100
N -14.797300 -24.826700 -16.817000
N -14.738600 -21.980900 -18.910600
H -14.535100 -25.622000 -16.545300
C -14.203400 -24.163800 -17.807700
O -13.703900 -22.001400 -19.574400
H -13.384700 -26.718100 -18.222300
H -13.252700 -24.728100 -19.524400
C -13.032300 -24.707100 -18.559400
C -12.625500 -26.107800 -18.113700
H -12.356500 -26.086100 -17.171800
H -12.262400 -24.096400 -18.439700
H -11.875200 -26.419200 -18.660900
41
Fragment
H -28.624200 -15.661800 -10.709400
H -28.236900 -17.984600 -10.930700
H -28.142800 -15.994900 -12.198500
C -27.873800 -15.973200 -11.256700
C -27.467000 -17.373900 -10.810900
H -27.246600 -17.352900 -9.845900
H -27.114600 -15.362900 -11.148000
O -26.795400 -20.079600 -9.795900
C -26.295900 -17.917200 -11.562600
H -25.964200 -16.459000 -12.825000
N -25.760700 -20.100100 -10.459800
N -25.702000 -17.254300 -12.553400
C -25.573900 -19.101400 -11.457300
H -24.906700 -21.354600 -13.232300
O -24.860500 -20.928300 -10.303900
H -24.701800 -23.771900 -11.840200
N -24.656000 -17.918400 -13.105700
C -24.569500 -19.062500 -12.437300
N -24.036100 -21.233900 -13.265000
H -23.784600 -25.079400 -11.946900
C -23.766800 -24.091000 -11.895400
C -23.542100 -20.055700 -12.878500
H -23.481400 -24.016800 -9.853700
C -23.225500 -22.294800 -13.723800
C -23.134100 -23.546300 -13.130800
C -23.018500 -23.668900 -10.643700
H -22.985100 -22.690000 -10.597800
O -22.959700 -20.418300 -16.077300
O -22.350500 -19.751100 -12.913300
C -22.329000 -22.321700 -14.805300
N -22.229000 -24.227200 -13.857200
H -22.106500 -24.025300 -10.672200
C -22.074300 -21.249800 -15.797900
H -21.996200 -25.057500 -13.682700
N -21.712100 -23.510400 -14.882000
H -21.218200 -20.257800 -18.097000
N -20.879900 -21.215700 -16.370000
C -20.549600 -20.228900 -17.381000
H -20.542700 -19.336400 -16.976000
H -20.271900 -21.805500 -16.131200
H -19.664000 -20.425000 -17.752400
82
Fragment
H -20.835300 -21.656000 -11.617900
H -20.227400 -20.275500 -13.239200
H -19.956600 -22.744600 -12.394300
C -19.949700 -21.852100 -11.989400
N -19.619400 -20.865300 -13.000300
H -19.281100 -21.823300 -11.273300
N -18.787200 -18.570600 -14.488300
H -18.503100 -17.023500 -15.687700
C -18.425000 -20.831200 -13.572400
H -18.392800 -18.055700 -18.698100
N -18.270400 -17.853800 -15.513100
C -18.170300 -19.759300 -14.565000
O -18.148800 -22.329900 -16.457000
O -17.539600 -21.662700 -13.293000
H -17.514200 -19.391000 -18.772500
C -17.480800 -18.412100 -18.726600
C -17.365200 -18.534700 -16.239500
C -17.273800 -19.786200 -15.646500
H -17.018000 -18.064200 -19.516600
C -16.957200 -22.025300 -16.491800
C -16.732500 -17.990000 -17.474900
H -16.714700 -17.001600 -17.423500
N -16.463200 -20.847100 -16.105300
C -15.929800 -23.018500 -16.933100
N -15.843300 -24.162600 -16.264600
H -15.797500 -18.309100 -17.530200
O -15.638800 -21.152700 -19.066400
H -15.592600 -20.726400 -16.138000
C -14.925500 -22.979600 -17.913100
N -14.797300 -24.826700 -16.817000
N -14.738600 -21.980900 -18.910600
H -14.535100 -25.622000 -16.545300
C -14.203400 -24.163800 -17.807700
O -13.703900 -22.001400 -19.574400
H -13.384700 -26.718100 -18.222300
H -13.252700 -24.728100 -19.524400
C -13.032300 -24.707100 -18.559400
C -12.625500 -26.107800 -18.113700
H -12.356500 -26.086100 -17.171800
H -12.262400 -24.096400 -18.439700
H -11.875200 -26.419200 -18.660900
H -28.624200 -15.661800 -10.709400
H -28.236900 -17.984600 -10.930700
H -28.142800 -15.994900 -12.198500
C -27.873800 -15.973200 -11.256700
C -27.467000 -17.373900 -10.810900
H -27.246600 -17.352900 -9.845900
H -27.114600 -15.362900 -11.148000
O -26.795400 -20.079600 -9.795900
C -26.295900 -17.917200 -11.562600
H -25.964200 -16.459000 -12.825000
N -25.760700 -20.100100 -10.459800
N -25.702000 -17.254300 -12.553400
C -25.573900 -19.101400 -11.457300
H -24.906700 -21.354600 -13.232300
O -24.860500 -20.928300 -10.303900
H -24.701800 -23.771900 -11.840200
N -24.656000 -17.918400 -13.105700
C -24.569500 -19.062500 -12.437300
N -24.036100 -21.233900 -13.265000
H -23.784600 -25.079400 -11.946900
C -23.766800 -24.091000 -11.895400
C -23.542100 -20.055700 -12.878500
H -23.481400 -24.016800 -9.853700
C -23.225500 -22.294800 -13.723800
C -23.134100 -23.546300 -13.130800
C -23.018500 -23.668900 -10.643700
H -22.985100 -22.690000 -10.597800
O -22.959700 -20.418300 -16.077300
O -22.350500 -19.751100 -12.913300
C -22.329000 -22.321700 -14.805300
N -22.229000 -24.227200 -13.857200
H -22.106500 -24.025300 -10.672200
C -22.074300 -21.249800 -15.797900
H -21.996200 -25.057500 -13.682700
N -21.712100 -23.510400 -14.882000
H -21.218200 -20.257800 -18.097000
N -20.879900 -21.215700 -16.370000
C -20.549600 -20.228900 -17.381000
H -20.542700 -19.336400 -16.976000
H -20.271900 -21.805500 -16.131200
H -19.664000 -20.425000 -17.752400
