16
Fragment
O -8.314400 -28.901000 -12.964700
O -8.010700 -29.722800 -14.914400
N -7.761000 -28.865300 -14.036100
H -7.722900 -27.253200 -11.948200
N -7.146800 -26.670400 -12.208400
H -6.946800 -26.007900 -11.700100
C -6.809500 -27.825500 -14.332900
C -6.560400 -26.798300 -13.407900
H -6.327100 -28.573900 -16.127100
C -6.159100 -27.873700 -15.536500
C -5.631400 -25.838100 -13.803300
H -5.453700 -25.127500 -13.229000
C -5.251800 -26.886300 -15.876000
C -4.964400 -25.894700 -15.006900
H -4.836800 -26.907300 -16.707500
H -4.322700 -25.255300 -15.219300
34
Fragment
H -10.146400 -17.718800 -11.662500
H -10.110500 -19.605500 -13.038900
C -9.589200 -18.439900 -11.475500
C -9.560500 -19.576200 -12.289700
H -9.298300 -21.890600 -13.588800
H -8.826100 -17.695700 -9.896800
C -8.806200 -18.442000 -10.452900
C -8.738900 -20.662100 -12.019300
C -8.734200 -21.863400 -12.850800
C -8.005200 -22.865400 -12.617000
H -7.999100 -23.576100 -13.215800
C -7.945500 -19.456700 -10.118400
C -7.887400 -20.616000 -10.910300
H -7.401100 -19.377000 -9.368200
C -7.171800 -22.924100 -11.432800
C -7.038100 -21.752200 -10.612500
O -6.432900 -24.016400 -11.145100
C -6.137200 -21.712400 -9.566500
H -6.082600 -20.936700 -9.055200
H -5.403700 -23.928300 -9.954800
N -5.333400 -22.745900 -9.253400
H -4.830300 -20.926300 -7.452100
O -4.473500 -25.186100 -9.650800
C -4.406000 -22.735500 -8.231800
C -4.271200 -21.662100 -7.350500
N -3.640300 -25.047800 -8.751200
C -3.565600 -23.865400 -7.942100
C -3.344100 -21.651600 -6.339000
H -3.237800 -20.894800 -5.808400
O -2.817800 -25.968100 -8.634300
C -2.692600 -23.838200 -6.875700
C -2.557300 -22.792100 -6.111300
H -2.181600 -24.595000 -6.694800
H -1.940800 -22.800400 -5.415000
50
Fragment
O -8.314400 -28.901000 -12.964700
O -8.010700 -29.722800 -14.914400
N -7.761000 -28.865300 -14.036100
H -7.722900 -27.253200 -11.948200
N -7.146800 -26.670400 -12.208400
H -6.946800 -26.007900 -11.700100
C -6.809500 -27.825500 -14.332900
C -6.560400 -26.798300 -13.407900
H -6.327100 -28.573900 -16.127100
C -6.159100 -27.873700 -15.536500
C -5.631400 -25.838100 -13.803300
H -5.453700 -25.127500 -13.229000
C -5.251800 -26.886300 -15.876000
C -4.964400 -25.894700 -15.006900
H -4.836800 -26.907300 -16.707500
H -4.322700 -25.255300 -15.219300
H -10.146400 -17.718800 -11.662500
H -10.110500 -19.605500 -13.038900
C -9.589200 -18.439900 -11.475500
C -9.560500 -19.576200 -12.289700
H -9.298300 -21.890600 -13.588800
H -8.826100 -17.695700 -9.896800
C -8.806200 -18.442000 -10.452900
C -8.738900 -20.662100 -12.019300
C -8.734200 -21.863400 -12.850800
C -8.005200 -22.865400 -12.617000
H -7.999100 -23.576100 -13.215800
C -7.945500 -19.456700 -10.118400
C -7.887400 -20.616000 -10.910300
H -7.401100 -19.377000 -9.368200
C -7.171800 -22.924100 -11.432800
C -7.038100 -21.752200 -10.612500
O -6.432900 -24.016400 -11.145100
C -6.137200 -21.712400 -9.566500
H -6.082600 -20.936700 -9.055200
H -5.403700 -23.928300 -9.954800
N -5.333400 -22.745900 -9.253400
H -4.830300 -20.926300 -7.452100
O -4.473500 -25.186100 -9.650800
C -4.406000 -22.735500 -8.231800
C -4.271200 -21.662100 -7.350500
N -3.640300 -25.047800 -8.751200
C -3.565600 -23.865400 -7.942100
C -3.344100 -21.651600 -6.339000
H -3.237800 -20.894800 -5.808400
O -2.817800 -25.968100 -8.634300
C -2.692600 -23.838200 -6.875700
C -2.557300 -22.792100 -6.111300
H -2.181600 -24.595000 -6.694800
H -1.940800 -22.800400 -5.415000
