16
Fragment
O -8.314400 -28.901000 -12.964700
O -8.010700 -29.722800 -14.914400
N -7.761000 -28.865300 -14.036100
H -7.722900 -27.253200 -11.948200
N -7.146800 -26.670400 -12.208400
H -6.946800 -26.007900 -11.700100
C -6.809500 -27.825500 -14.332900
C -6.560400 -26.798300 -13.407900
H -6.327100 -28.573900 -16.127100
C -6.159100 -27.873700 -15.536500
C -5.631400 -25.838100 -13.803300
H -5.453700 -25.127500 -13.229000
C -5.251800 -26.886300 -15.876000
C -4.964400 -25.894700 -15.006900
H -4.836800 -26.907300 -16.707500
H -4.322700 -25.255300 -15.219300
34
Fragment
H -5.380900 -17.718800 -11.662500
H -5.345000 -19.605500 -13.038900
C -4.823700 -18.439900 -11.475500
C -4.795000 -19.576200 -12.289700
H -4.532800 -21.890600 -13.588800
H -4.060600 -17.695700 -9.896800
C -4.040700 -18.442000 -10.452900
C -3.973400 -20.662100 -12.019300
C -3.968700 -21.863400 -12.850800
C -3.239700 -22.865400 -12.617000
H -3.233600 -23.576100 -13.215800
C -3.180000 -19.456700 -10.118400
C -3.121900 -20.616000 -10.910300
H -2.635600 -19.377000 -9.368200
C -2.406300 -22.924100 -11.432800
C -2.272600 -21.752200 -10.612500
O -1.667400 -24.016400 -11.145100
C -1.371700 -21.712400 -9.566500
H -1.317100 -20.936700 -9.055200
H -0.638200 -23.928300 -9.954800
N -0.567900 -22.745900 -9.253400
H -0.064800 -20.926300 -7.452100
O 0.292000 -25.186100 -9.650800
C 0.359500 -22.735500 -8.231800
C 0.494300 -21.662100 -7.350500
N 1.125200 -25.047800 -8.751200
C 1.199900 -23.865400 -7.942100
C 1.421400 -21.651600 -6.339000
H 1.527700 -20.894800 -5.808400
O 1.947700 -25.968100 -8.634300
C 2.072900 -23.838200 -6.875700
C 2.208200 -22.792100 -6.111300
H 2.583900 -24.595000 -6.694800
H 2.824700 -22.800400 -5.415000
50
Fragment
O -8.314400 -28.901000 -12.964700
O -8.010700 -29.722800 -14.914400
N -7.761000 -28.865300 -14.036100
H -7.722900 -27.253200 -11.948200
N -7.146800 -26.670400 -12.208400
H -6.946800 -26.007900 -11.700100
C -6.809500 -27.825500 -14.332900
C -6.560400 -26.798300 -13.407900
H -6.327100 -28.573900 -16.127100
C -6.159100 -27.873700 -15.536500
C -5.631400 -25.838100 -13.803300
H -5.453700 -25.127500 -13.229000
C -5.251800 -26.886300 -15.876000
C -4.964400 -25.894700 -15.006900
H -4.836800 -26.907300 -16.707500
H -4.322700 -25.255300 -15.219300
H -5.380900 -17.718800 -11.662500
H -5.345000 -19.605500 -13.038900
C -4.823700 -18.439900 -11.475500
C -4.795000 -19.576200 -12.289700
H -4.532800 -21.890600 -13.588800
H -4.060600 -17.695700 -9.896800
C -4.040700 -18.442000 -10.452900
C -3.973400 -20.662100 -12.019300
C -3.968700 -21.863400 -12.850800
C -3.239700 -22.865400 -12.617000
H -3.233600 -23.576100 -13.215800
C -3.180000 -19.456700 -10.118400
C -3.121900 -20.616000 -10.910300
H -2.635600 -19.377000 -9.368200
C -2.406300 -22.924100 -11.432800
C -2.272600 -21.752200 -10.612500
O -1.667400 -24.016400 -11.145100
C -1.371700 -21.712400 -9.566500
H -1.317100 -20.936700 -9.055200
H -0.638200 -23.928300 -9.954800
N -0.567900 -22.745900 -9.253400
H -0.064800 -20.926300 -7.452100
O 0.292000 -25.186100 -9.650800
C 0.359500 -22.735500 -8.231800
C 0.494300 -21.662100 -7.350500
N 1.125200 -25.047800 -8.751200
C 1.199900 -23.865400 -7.942100
C 1.421400 -21.651600 -6.339000
H 1.527700 -20.894800 -5.808400
O 1.947700 -25.968100 -8.634300
C 2.072900 -23.838200 -6.875700
C 2.208200 -22.792100 -6.111300
H 2.583900 -24.595000 -6.694800
H 2.824700 -22.800400 -5.415000
