16
Fragment
O -8.314400 -28.901000 -12.964700
O -8.010700 -29.722800 -14.914400
N -7.761000 -28.865300 -14.036100
H -7.722900 -27.253200 -11.948200
N -7.146800 -26.670400 -12.208400
H -6.946800 -26.007900 -11.700100
C -6.809500 -27.825500 -14.332900
C -6.560400 -26.798300 -13.407900
H -6.327100 -28.573900 -16.127100
C -6.159100 -27.873700 -15.536500
C -5.631400 -25.838100 -13.803300
H -5.453700 -25.127500 -13.229000
C -5.251800 -26.886300 -15.876000
C -4.964400 -25.894700 -15.006900
H -4.836800 -26.907300 -16.707500
H -4.322700 -25.255300 -15.219300
16
Fragment
O -13.079900 -28.901000 -12.964700
O -12.776200 -29.722800 -14.914400
N -12.526500 -28.865300 -14.036100
H -12.488400 -27.253200 -11.948200
N -11.912300 -26.670400 -12.208400
H -11.712300 -26.007900 -11.700100
C -11.575000 -27.825500 -14.332900
C -11.325900 -26.798300 -13.407900
H -11.092600 -28.573900 -16.127100
C -10.924600 -27.873700 -15.536500
C -10.396900 -25.838100 -13.803300
H -10.219200 -25.127500 -13.229000
C -10.017300 -26.886300 -15.876000
C -9.729900 -25.894700 -15.006900
H -9.602300 -26.907300 -16.707500
H -9.088200 -25.255300 -15.219300
32
Fragment
O -8.314400 -28.901000 -12.964700
O -8.010700 -29.722800 -14.914400
N -7.761000 -28.865300 -14.036100
H -7.722900 -27.253200 -11.948200
N -7.146800 -26.670400 -12.208400
H -6.946800 -26.007900 -11.700100
C -6.809500 -27.825500 -14.332900
C -6.560400 -26.798300 -13.407900
H -6.327100 -28.573900 -16.127100
C -6.159100 -27.873700 -15.536500
C -5.631400 -25.838100 -13.803300
H -5.453700 -25.127500 -13.229000
C -5.251800 -26.886300 -15.876000
C -4.964400 -25.894700 -15.006900
H -4.836800 -26.907300 -16.707500
H -4.322700 -25.255300 -15.219300
O -13.079900 -28.901000 -12.964700
O -12.776200 -29.722800 -14.914400
N -12.526500 -28.865300 -14.036100
H -12.488400 -27.253200 -11.948200
N -11.912300 -26.670400 -12.208400
H -11.712300 -26.007900 -11.700100
C -11.575000 -27.825500 -14.332900
C -11.325900 -26.798300 -13.407900
H -11.092600 -28.573900 -16.127100
C -10.924600 -27.873700 -15.536500
C -10.396900 -25.838100 -13.803300
H -10.219200 -25.127500 -13.229000
C -10.017300 -26.886300 -15.876000
C -9.729900 -25.894700 -15.006900
H -9.602300 -26.907300 -16.707500
H -9.088200 -25.255300 -15.219300
