16
Fragment
O -8.314400 -28.901000 -12.964700
O -8.010700 -29.722800 -14.914400
N -7.761000 -28.865300 -14.036100
H -7.722900 -27.253200 -11.948200
N -7.146800 -26.670400 -12.208400
H -6.946800 -26.007900 -11.700100
C -6.809500 -27.825500 -14.332900
C -6.560400 -26.798300 -13.407900
H -6.327100 -28.573900 -16.127100
C -6.159100 -27.873700 -15.536500
C -5.631400 -25.838100 -13.803300
H -5.453700 -25.127500 -13.229000
C -5.251800 -26.886300 -15.876000
C -4.964400 -25.894700 -15.006900
H -4.836800 -26.907300 -16.707500
H -4.322700 -25.255300 -15.219300
34
Fragment
H -11.973500 -33.282400 -25.080600
H -11.732700 -35.077000 -23.800800
C -11.357000 -33.274100 -24.384300
C -11.221700 -34.320200 -23.619900
O -11.096500 -36.450100 -21.861300
H -10.676500 -31.376800 -24.687200
C -10.570200 -32.133600 -24.156600
C -10.348700 -34.347400 -22.553500
N -10.274000 -35.529800 -21.744400
C -9.643200 -32.144100 -23.145100
C -9.508400 -33.217500 -22.263800
O -9.440900 -35.668100 -20.844800
H -9.084000 -31.408300 -23.043500
N -8.580900 -33.227900 -21.242200
H -8.510600 -34.410300 -20.540800
H -7.831700 -31.418700 -21.440400
C -7.777100 -32.194400 -20.929100
O -7.481400 -34.498400 -19.350500
C -6.876200 -32.234200 -19.883100
C -6.742600 -33.406100 -19.062800
H -6.513200 -29.859000 -21.127400
C -6.026900 -31.098000 -19.585300
C -5.968900 -29.938700 -20.377200
H -5.915200 -34.058100 -17.279800
C -5.909100 -33.347400 -17.878600
C -5.180100 -32.345400 -17.644800
C -5.175400 -31.144100 -18.476300
C -5.108100 -28.924000 -20.042700
H -5.088300 -28.177700 -20.598800
H -4.616100 -32.372600 -16.906800
C -4.353900 -30.058200 -18.205900
C -4.325100 -28.921900 -19.020100
H -3.803800 -30.087500 -17.456700
H -3.768000 -28.200800 -18.833100
50
Fragment
O -8.314400 -28.901000 -12.964700
O -8.010700 -29.722800 -14.914400
N -7.761000 -28.865300 -14.036100
H -7.722900 -27.253200 -11.948200
N -7.146800 -26.670400 -12.208400
H -6.946800 -26.007900 -11.700100
C -6.809500 -27.825500 -14.332900
C -6.560400 -26.798300 -13.407900
H -6.327100 -28.573900 -16.127100
C -6.159100 -27.873700 -15.536500
C -5.631400 -25.838100 -13.803300
H -5.453700 -25.127500 -13.229000
C -5.251800 -26.886300 -15.876000
C -4.964400 -25.894700 -15.006900
H -4.836800 -26.907300 -16.707500
H -4.322700 -25.255300 -15.219300
H -11.973500 -33.282400 -25.080600
H -11.732700 -35.077000 -23.800800
C -11.357000 -33.274100 -24.384300
C -11.221700 -34.320200 -23.619900
O -11.096500 -36.450100 -21.861300
H -10.676500 -31.376800 -24.687200
C -10.570200 -32.133600 -24.156600
C -10.348700 -34.347400 -22.553500
N -10.274000 -35.529800 -21.744400
C -9.643200 -32.144100 -23.145100
C -9.508400 -33.217500 -22.263800
O -9.440900 -35.668100 -20.844800
H -9.084000 -31.408300 -23.043500
N -8.580900 -33.227900 -21.242200
H -8.510600 -34.410300 -20.540800
H -7.831700 -31.418700 -21.440400
C -7.777100 -32.194400 -20.929100
O -7.481400 -34.498400 -19.350500
C -6.876200 -32.234200 -19.883100
C -6.742600 -33.406100 -19.062800
H -6.513200 -29.859000 -21.127400
C -6.026900 -31.098000 -19.585300
C -5.968900 -29.938700 -20.377200
H -5.915200 -34.058100 -17.279800
C -5.909100 -33.347400 -17.878600
C -5.180100 -32.345400 -17.644800
C -5.175400 -31.144100 -18.476300
C -5.108100 -28.924000 -20.042700
H -5.088300 -28.177700 -20.598800
H -4.616100 -32.372600 -16.906800
C -4.353900 -30.058200 -18.205900
C -4.325100 -28.921900 -19.020100
H -3.803800 -30.087500 -17.456700
H -3.768000 -28.200800 -18.833100
