16
Fragment
O -8.314400 -28.901000 -12.964700
O -8.010700 -29.722800 -14.914400
N -7.761000 -28.865300 -14.036100
H -7.722900 -27.253200 -11.948200
N -7.146800 -26.670400 -12.208400
H -6.946800 -26.007900 -11.700100
C -6.809500 -27.825500 -14.332900
C -6.560400 -26.798300 -13.407900
H -6.327100 -28.573900 -16.127100
C -6.159100 -27.873700 -15.536500
C -5.631400 -25.838100 -13.803300
H -5.453700 -25.127500 -13.229000
C -5.251800 -26.886300 -15.876000
C -4.964400 -25.894700 -15.006900
H -4.836800 -26.907300 -16.707500
H -4.322700 -25.255300 -15.219300
34
Fragment
H -7.335400 -33.282400 -14.915400
H -7.094600 -35.077000 -13.635600
C -6.718900 -33.274100 -14.219100
C -6.583600 -34.320200 -13.454700
O -6.458400 -36.450100 -11.696100
H -6.038400 -31.376800 -14.522000
C -5.932100 -32.133600 -13.991400
C -5.710600 -34.347400 -12.388300
N -5.635900 -35.529800 -11.579200
C -5.005000 -32.144100 -12.979900
C -4.870300 -33.217500 -12.098600
O -4.802700 -35.668100 -10.679600
H -4.445900 -31.408300 -12.878300
N -3.942800 -33.227900 -11.077000
H -3.872500 -34.410300 -10.375600
H -3.193600 -31.418700 -11.275200
C -3.139000 -32.194400 -10.763900
O -2.843300 -34.498400 -9.185300
C -2.238100 -32.234200 -9.717900
C -2.104500 -33.406100 -8.897600
H -1.875100 -29.859000 -10.962200
C -1.388800 -31.098000 -9.420100
C -1.330700 -29.938700 -10.212000
H -1.277100 -34.058100 -7.114600
C -1.271000 -33.347400 -7.713400
C -0.542000 -32.345400 -7.479600
C -0.537300 -31.144100 -8.311100
C -0.470000 -28.924000 -9.877500
H -0.450200 -28.177700 -10.433600
H 0.022100 -32.372600 -6.741600
C 0.284200 -30.058200 -8.040700
C 0.313000 -28.921900 -8.854900
H 0.834300 -30.087500 -7.291500
H 0.870200 -28.200800 -8.667900
50
Fragment
O -8.314400 -28.901000 -12.964700
O -8.010700 -29.722800 -14.914400
N -7.761000 -28.865300 -14.036100
H -7.722900 -27.253200 -11.948200
N -7.146800 -26.670400 -12.208400
H -6.946800 -26.007900 -11.700100
C -6.809500 -27.825500 -14.332900
C -6.560400 -26.798300 -13.407900
H -6.327100 -28.573900 -16.127100
C -6.159100 -27.873700 -15.536500
C -5.631400 -25.838100 -13.803300
H -5.453700 -25.127500 -13.229000
C -5.251800 -26.886300 -15.876000
C -4.964400 -25.894700 -15.006900
H -4.836800 -26.907300 -16.707500
H -4.322700 -25.255300 -15.219300
H -7.335400 -33.282400 -14.915400
H -7.094600 -35.077000 -13.635600
C -6.718900 -33.274100 -14.219100
C -6.583600 -34.320200 -13.454700
O -6.458400 -36.450100 -11.696100
H -6.038400 -31.376800 -14.522000
C -5.932100 -32.133600 -13.991400
C -5.710600 -34.347400 -12.388300
N -5.635900 -35.529800 -11.579200
C -5.005000 -32.144100 -12.979900
C -4.870300 -33.217500 -12.098600
O -4.802700 -35.668100 -10.679600
H -4.445900 -31.408300 -12.878300
N -3.942800 -33.227900 -11.077000
H -3.872500 -34.410300 -10.375600
H -3.193600 -31.418700 -11.275200
C -3.139000 -32.194400 -10.763900
O -2.843300 -34.498400 -9.185300
C -2.238100 -32.234200 -9.717900
C -2.104500 -33.406100 -8.897600
H -1.875100 -29.859000 -10.962200
C -1.388800 -31.098000 -9.420100
C -1.330700 -29.938700 -10.212000
H -1.277100 -34.058100 -7.114600
C -1.271000 -33.347400 -7.713400
C -0.542000 -32.345400 -7.479600
C -0.537300 -31.144100 -8.311100
C -0.470000 -28.924000 -9.877500
H -0.450200 -28.177700 -10.433600
H 0.022100 -32.372600 -6.741600
C 0.284200 -30.058200 -8.040700
C 0.313000 -28.921900 -8.854900
H 0.834300 -30.087500 -7.291500
H 0.870200 -28.200800 -8.667900
