18
Fragment
N -13.813100 -9.700300 -24.831900
H -13.338600 -8.523800 -22.098100
C -13.146800 -10.178100 -24.022700
H -12.977800 -7.524200 -20.080500
C -12.771400 -8.942400 -21.461600
C -12.553600 -8.351300 -20.276100
C -12.323200 -10.786100 -23.013100
C -12.149500 -10.212700 -21.779100
C -11.682800 -12.015500 -23.393000
C -11.678500 -8.958100 -19.288300
N -11.449000 -8.261300 -18.199500
C -11.332100 -10.854100 -20.765900
N -11.158900 -12.986800 -23.713800
C -11.103800 -10.259300 -19.581900
H -10.952500 -11.707100 -20.941200
C -10.588400 -8.727100 -17.276800
H -10.562900 -10.693000 -18.933400
N -9.875500 -8.989600 -16.405400
12
Fragment
H -9.466500 -8.343100 -22.734100
H -9.093500 -7.293200 -20.684200
C -8.979300 -8.791900 -22.053100
C -8.758000 -8.168800 -20.836100
H -8.644400 -10.493400 -23.113200
C -8.492600 -10.066000 -22.278600
C -8.048800 -8.818400 -19.842400
H -7.896900 -8.391000 -19.007800
C -7.783400 -10.715600 -21.284900
C -7.562000 -10.092500 -20.067800
H -7.447900 -11.591200 -21.436800
H -7.074800 -10.541300 -19.386900
30
Fragment
N -13.813100 -9.700300 -24.831900
H -13.338600 -8.523800 -22.098100
C -13.146800 -10.178100 -24.022700
H -12.977800 -7.524200 -20.080500
C -12.771400 -8.942400 -21.461600
C -12.553600 -8.351300 -20.276100
C -12.323200 -10.786100 -23.013100
C -12.149500 -10.212700 -21.779100
C -11.682800 -12.015500 -23.393000
C -11.678500 -8.958100 -19.288300
N -11.449000 -8.261300 -18.199500
C -11.332100 -10.854100 -20.765900
N -11.158900 -12.986800 -23.713800
C -11.103800 -10.259300 -19.581900
H -10.952500 -11.707100 -20.941200
C -10.588400 -8.727100 -17.276800
H -10.562900 -10.693000 -18.933400
N -9.875500 -8.989600 -16.405400
H -9.466500 -8.343100 -22.734100
H -9.093500 -7.293200 -20.684200
C -8.979300 -8.791900 -22.053100
C -8.758000 -8.168800 -20.836100
H -8.644400 -10.493400 -23.113200
C -8.492600 -10.066000 -22.278600
C -8.048800 -8.818400 -19.842400
H -7.896900 -8.391000 -19.007800
C -7.783400 -10.715600 -21.284900
C -7.562000 -10.092500 -20.067800
H -7.447900 -11.591200 -21.436800
H -7.074800 -10.541300 -19.386900
