18
Fragment
N -13.813100 -9.700300 -24.831900
H -13.338600 -8.523800 -22.098100
C -13.146800 -10.178100 -24.022700
H -12.977800 -7.524200 -20.080500
C -12.771400 -8.942400 -21.461600
C -12.553600 -8.351300 -20.276100
C -12.323200 -10.786100 -23.013100
C -12.149500 -10.212700 -21.779100
C -11.682800 -12.015500 -23.393000
C -11.678500 -8.958100 -19.288300
N -11.449000 -8.261300 -18.199500
C -11.332100 -10.854100 -20.765900
N -11.158900 -12.986800 -23.713800
C -11.103800 -10.259300 -19.581900
H -10.952500 -11.707100 -20.941200
C -10.588400 -8.727100 -17.276800
H -10.562900 -10.693000 -18.933400
N -9.875500 -8.989600 -16.405400
18
Fragment
N -18.925800 -9.894800 -25.715600
H -18.238500 -8.191400 -23.187600
C -18.212900 -10.157300 -24.844200
H -17.848900 -7.177300 -21.179800
C -17.697600 -8.625100 -22.539100
N -17.642400 -5.897600 -18.407200
C -17.469200 -8.030300 -21.355100
N -17.352400 -10.623100 -23.921500
C -17.122900 -9.926300 -22.832700
C -17.118600 -6.868900 -18.728000
C -16.651900 -8.671700 -20.341900
C -16.478100 -8.098300 -19.107900
C -16.247800 -10.533100 -21.844900
C -16.030000 -9.942000 -20.659400
H -15.823600 -11.360200 -22.040500
C -15.654600 -8.706300 -18.098300
H -15.462800 -10.360600 -20.022900
N -14.988300 -9.184100 -17.289100
36
Fragment
N -13.813100 -9.700300 -24.831900
H -13.338600 -8.523800 -22.098100
C -13.146800 -10.178100 -24.022700
H -12.977800 -7.524200 -20.080500
C -12.771400 -8.942400 -21.461600
C -12.553600 -8.351300 -20.276100
C -12.323200 -10.786100 -23.013100
C -12.149500 -10.212700 -21.779100
C -11.682800 -12.015500 -23.393000
C -11.678500 -8.958100 -19.288300
N -11.449000 -8.261300 -18.199500
C -11.332100 -10.854100 -20.765900
N -11.158900 -12.986800 -23.713800
C -11.103800 -10.259300 -19.581900
H -10.952500 -11.707100 -20.941200
C -10.588400 -8.727100 -17.276800
H -10.562900 -10.693000 -18.933400
N -9.875500 -8.989600 -16.405400
N -18.925800 -9.894800 -25.715600
H -18.238500 -8.191400 -23.187600
C -18.212900 -10.157300 -24.844200
H -17.848900 -7.177300 -21.179800
C -17.697600 -8.625100 -22.539100
N -17.642400 -5.897600 -18.407200
C -17.469200 -8.030300 -21.355100
N -17.352400 -10.623100 -23.921500
C -17.122900 -9.926300 -22.832700
C -17.118600 -6.868900 -18.728000
C -16.651900 -8.671700 -20.341900
C -16.478100 -8.098300 -19.107900
C -16.247800 -10.533100 -21.844900
C -16.030000 -9.942000 -20.659400
H -15.823600 -11.360200 -22.040500
C -15.654600 -8.706300 -18.098300
H -15.462800 -10.360600 -20.022900
N -14.988300 -9.184100 -17.289100
