18
Fragment
N -13.813100 -9.700300 -24.831900
H -13.338600 -8.523800 -22.098100
C -13.146800 -10.178100 -24.022700
H -12.977800 -7.524200 -20.080500
C -12.771400 -8.942400 -21.461600
C -12.553600 -8.351300 -20.276100
C -12.323200 -10.786100 -23.013100
C -12.149500 -10.212700 -21.779100
C -11.682800 -12.015500 -23.393000
C -11.678500 -8.958100 -19.288300
N -11.449000 -8.261300 -18.199500
C -11.332100 -10.854100 -20.765900
N -11.158900 -12.986800 -23.713800
C -11.103800 -10.259300 -19.581900
H -10.952500 -11.707100 -20.941200
C -10.588400 -8.727100 -17.276800
H -10.562900 -10.693000 -18.933400
N -9.875500 -8.989600 -16.405400
18
Fragment
N -9.012800 -12.331500 -17.811700
H -8.538400 -13.508000 -15.077900
C -8.346500 -11.853700 -17.002600
H -8.177600 -14.507600 -13.060300
C -7.971100 -13.089400 -14.441500
C -7.753400 -13.680500 -13.255900
C -7.523000 -11.245700 -15.992900
C -7.349200 -11.819100 -14.758900
C -6.882600 -10.016300 -16.372900
C -6.878300 -13.073700 -12.268200
N -6.648800 -13.770500 -11.179300
C -6.531900 -11.177700 -13.745800
N -6.358700 -9.045000 -16.693700
C -6.303600 -11.772500 -12.561700
H -6.152300 -10.324700 -13.921000
C -5.788200 -13.304700 -10.256600
H -5.762600 -11.338800 -11.913200
N -5.075300 -13.042200 -9.385300
36
Fragment
N -13.813100 -9.700300 -24.831900
H -13.338600 -8.523800 -22.098100
C -13.146800 -10.178100 -24.022700
H -12.977800 -7.524200 -20.080500
C -12.771400 -8.942400 -21.461600
C -12.553600 -8.351300 -20.276100
C -12.323200 -10.786100 -23.013100
C -12.149500 -10.212700 -21.779100
C -11.682800 -12.015500 -23.393000
C -11.678500 -8.958100 -19.288300
N -11.449000 -8.261300 -18.199500
C -11.332100 -10.854100 -20.765900
N -11.158900 -12.986800 -23.713800
C -11.103800 -10.259300 -19.581900
H -10.952500 -11.707100 -20.941200
C -10.588400 -8.727100 -17.276800
H -10.562900 -10.693000 -18.933400
N -9.875500 -8.989600 -16.405400
N -9.012800 -12.331500 -17.811700
H -8.538400 -13.508000 -15.077900
C -8.346500 -11.853700 -17.002600
H -8.177600 -14.507600 -13.060300
C -7.971100 -13.089400 -14.441500
C -7.753400 -13.680500 -13.255900
C -7.523000 -11.245700 -15.992900
C -7.349200 -11.819100 -14.758900
C -6.882600 -10.016300 -16.372900
C -6.878300 -13.073700 -12.268200
N -6.648800 -13.770500 -11.179300
C -6.531900 -11.177700 -13.745800
N -6.358700 -9.045000 -16.693700
C -6.303600 -11.772500 -12.561700
H -6.152300 -10.324700 -13.921000
C -5.788200 -13.304700 -10.256600
H -5.762600 -11.338800 -11.913200
N -5.075300 -13.042200 -9.385300
