18
Fragment
N -13.813100 -9.700300 -24.831900
H -13.338600 -8.523800 -22.098100
C -13.146800 -10.178100 -24.022700
H -12.977800 -7.524200 -20.080500
C -12.771400 -8.942400 -21.461600
C -12.553600 -8.351300 -20.276100
C -12.323200 -10.786100 -23.013100
C -12.149500 -10.212700 -21.779100
C -11.682800 -12.015500 -23.393000
C -11.678500 -8.958100 -19.288300
N -11.449000 -8.261300 -18.199500
C -11.332100 -10.854100 -20.765900
N -11.158900 -12.986800 -23.713800
C -11.103800 -10.259300 -19.581900
H -10.952500 -11.707100 -20.941200
C -10.588400 -8.727100 -17.276800
H -10.562900 -10.693000 -18.933400
N -9.875500 -8.989600 -16.405400
12
Fragment
H -14.266800 -7.393900 -29.754300
H -13.893700 -8.443800 -27.704400
C -13.779600 -6.945100 -29.073300
C -13.558200 -7.568200 -27.856300
H -13.444700 -5.243600 -30.133400
C -13.292800 -5.671000 -29.298800
C -12.849000 -6.918600 -26.862500
H -12.697200 -7.346000 -26.028000
C -12.583600 -5.021400 -28.305000
C -12.362200 -5.644500 -27.088000
H -12.248100 -4.145800 -28.456900
H -11.875000 -5.195700 -26.407100
30
Fragment
N -13.813100 -9.700300 -24.831900
H -13.338600 -8.523800 -22.098100
C -13.146800 -10.178100 -24.022700
H -12.977800 -7.524200 -20.080500
C -12.771400 -8.942400 -21.461600
C -12.553600 -8.351300 -20.276100
C -12.323200 -10.786100 -23.013100
C -12.149500 -10.212700 -21.779100
C -11.682800 -12.015500 -23.393000
C -11.678500 -8.958100 -19.288300
N -11.449000 -8.261300 -18.199500
C -11.332100 -10.854100 -20.765900
N -11.158900 -12.986800 -23.713800
C -11.103800 -10.259300 -19.581900
H -10.952500 -11.707100 -20.941200
C -10.588400 -8.727100 -17.276800
H -10.562900 -10.693000 -18.933400
N -9.875500 -8.989600 -16.405400
H -14.266800 -7.393900 -29.754300
H -13.893700 -8.443800 -27.704400
C -13.779600 -6.945100 -29.073300
C -13.558200 -7.568200 -27.856300
H -13.444700 -5.243600 -30.133400
C -13.292800 -5.671000 -29.298800
C -12.849000 -6.918600 -26.862500
H -12.697200 -7.346000 -26.028000
C -12.583600 -5.021400 -28.305000
C -12.362200 -5.644500 -27.088000
H -12.248100 -4.145800 -28.456900
H -11.875000 -5.195700 -26.407100
