18
Fragment
N -13.813100 -9.700300 -24.831900
H -13.338600 -8.523800 -22.098100
C -13.146800 -10.178100 -24.022700
H -12.977800 -7.524200 -20.080500
C -12.771400 -8.942400 -21.461600
C -12.553600 -8.351300 -20.276100
C -12.323200 -10.786100 -23.013100
C -12.149500 -10.212700 -21.779100
C -11.682800 -12.015500 -23.393000
C -11.678500 -8.958100 -19.288300
N -11.449000 -8.261300 -18.199500
C -11.332100 -10.854100 -20.765900
N -11.158900 -12.986800 -23.713800
C -11.103800 -10.259300 -19.581900
H -10.952500 -11.707100 -20.941200
C -10.588400 -8.727100 -17.276800
H -10.562900 -10.693000 -18.933400
N -9.875500 -8.989600 -16.405400
18
Fragment
N -18.613300 -6.036700 -31.852000
H -18.138800 -7.213200 -29.118200
C -17.947000 -5.558900 -31.042900
H -17.778000 -8.212800 -27.100600
C -17.571600 -6.794600 -28.481800
C -17.353800 -7.385700 -27.296200
C -17.123500 -4.950900 -30.033300
C -16.949700 -5.524300 -28.799200
C -16.483000 -3.721500 -30.413200
C -16.478700 -6.778900 -26.308500
N -16.249200 -7.475700 -25.219700
C -16.132400 -4.882900 -27.786100
N -15.959200 -2.750200 -30.734000
C -15.904000 -5.477700 -26.602100
H -15.752700 -4.029900 -27.961300
C -15.388700 -7.009900 -24.296900
H -15.363100 -5.044000 -25.953600
N -14.675800 -6.747400 -23.425600
36
Fragment
N -13.813100 -9.700300 -24.831900
H -13.338600 -8.523800 -22.098100
C -13.146800 -10.178100 -24.022700
H -12.977800 -7.524200 -20.080500
C -12.771400 -8.942400 -21.461600
C -12.553600 -8.351300 -20.276100
C -12.323200 -10.786100 -23.013100
C -12.149500 -10.212700 -21.779100
C -11.682800 -12.015500 -23.393000
C -11.678500 -8.958100 -19.288300
N -11.449000 -8.261300 -18.199500
C -11.332100 -10.854100 -20.765900
N -11.158900 -12.986800 -23.713800
C -11.103800 -10.259300 -19.581900
H -10.952500 -11.707100 -20.941200
C -10.588400 -8.727100 -17.276800
H -10.562900 -10.693000 -18.933400
N -9.875500 -8.989600 -16.405400
N -18.613300 -6.036700 -31.852000
H -18.138800 -7.213200 -29.118200
C -17.947000 -5.558900 -31.042900
H -17.778000 -8.212800 -27.100600
C -17.571600 -6.794600 -28.481800
C -17.353800 -7.385700 -27.296200
C -17.123500 -4.950900 -30.033300
C -16.949700 -5.524300 -28.799200
C -16.483000 -3.721500 -30.413200
C -16.478700 -6.778900 -26.308500
N -16.249200 -7.475700 -25.219700
C -16.132400 -4.882900 -27.786100
N -15.959200 -2.750200 -30.734000
C -15.904000 -5.477700 -26.602100
H -15.752700 -4.029900 -27.961300
C -15.388700 -7.009900 -24.296900
H -15.363100 -5.044000 -25.953600
N -14.675800 -6.747400 -23.425600
