18
Fragment
N -13.813100 -9.700300 -24.831900
H -13.338600 -8.523800 -22.098100
C -13.146800 -10.178100 -24.022700
H -12.977800 -7.524200 -20.080500
C -12.771400 -8.942400 -21.461600
C -12.553600 -8.351300 -20.276100
C -12.323200 -10.786100 -23.013100
C -12.149500 -10.212700 -21.779100
C -11.682800 -12.015500 -23.393000
C -11.678500 -8.958100 -19.288300
N -11.449000 -8.261300 -18.199500
C -11.332100 -10.854100 -20.765900
N -11.158900 -12.986800 -23.713800
C -11.103800 -10.259300 -19.581900
H -10.952500 -11.707100 -20.941200
C -10.588400 -8.727100 -17.276800
H -10.562900 -10.693000 -18.933400
N -9.875500 -8.989600 -16.405400
18
Fragment
N -13.813100 -3.405500 -24.831900
H -13.338600 -2.229000 -22.098100
C -13.146800 -3.883300 -24.022700
H -12.977800 -1.229400 -20.080500
C -12.771400 -2.647600 -21.461600
C -12.553600 -2.056500 -20.276100
C -12.323200 -4.491300 -23.013100
C -12.149500 -3.917900 -21.779100
C -11.682800 -5.720700 -23.393000
C -11.678500 -2.663300 -19.288300
N -11.449000 -1.966500 -18.199500
C -11.332100 -4.559300 -20.765900
N -11.158900 -6.692000 -23.713800
C -11.103800 -3.964500 -19.581900
H -10.952500 -5.412300 -20.941200
C -10.588400 -2.432300 -17.276800
H -10.562900 -4.398200 -18.933400
N -9.875500 -2.694800 -16.405400
36
Fragment
N -13.813100 -9.700300 -24.831900
H -13.338600 -8.523800 -22.098100
C -13.146800 -10.178100 -24.022700
H -12.977800 -7.524200 -20.080500
C -12.771400 -8.942400 -21.461600
C -12.553600 -8.351300 -20.276100
C -12.323200 -10.786100 -23.013100
C -12.149500 -10.212700 -21.779100
C -11.682800 -12.015500 -23.393000
C -11.678500 -8.958100 -19.288300
N -11.449000 -8.261300 -18.199500
C -11.332100 -10.854100 -20.765900
N -11.158900 -12.986800 -23.713800
C -11.103800 -10.259300 -19.581900
H -10.952500 -11.707100 -20.941200
C -10.588400 -8.727100 -17.276800
H -10.562900 -10.693000 -18.933400
N -9.875500 -8.989600 -16.405400
N -13.813100 -3.405500 -24.831900
H -13.338600 -2.229000 -22.098100
C -13.146800 -3.883300 -24.022700
H -12.977800 -1.229400 -20.080500
C -12.771400 -2.647600 -21.461600
C -12.553600 -2.056500 -20.276100
C -12.323200 -4.491300 -23.013100
C -12.149500 -3.917900 -21.779100
C -11.682800 -5.720700 -23.393000
C -11.678500 -2.663300 -19.288300
N -11.449000 -1.966500 -18.199500
C -11.332100 -4.559300 -20.765900
N -11.158900 -6.692000 -23.713800
C -11.103800 -3.964500 -19.581900
H -10.952500 -5.412300 -20.941200
C -10.588400 -2.432300 -17.276800
H -10.562900 -4.398200 -18.933400
N -9.875500 -2.694800 -16.405400
