39
Fragment
H -10.256700 -4.799900 -17.683100
H -10.236100 -6.257600 -18.140200
O -9.784900 -10.237800 -15.918800
C -9.630000 -5.503300 -17.792200
N -9.574200 -8.053300 -16.616900
H -9.441000 -11.352400 -14.410900
C -9.389200 -9.082700 -15.757000
H -9.021700 -5.323600 -18.455800
H -9.020600 -12.306400 -13.413800
N -9.013100 -11.530500 -13.663300
C -8.987100 -7.003500 -15.996300
N -8.970700 -5.788800 -16.523200
H -8.828000 -3.994000 -15.747700
C -8.615600 -8.535600 -14.559200
N -8.407300 -7.229500 -14.762100
C -8.285900 -4.678200 -15.881300
C -8.280900 -10.605100 -13.088800
H -8.228100 -12.633800 -11.431200
C -8.128400 -9.215600 -13.441000
H -7.933100 -4.914700 -14.955000
H -7.547100 -4.378900 -16.414500
N -7.527300 -10.859400 -11.982100
C -7.315300 -12.192100 -11.421000
C -7.257200 -8.643800 -12.422700
H -7.043500 -6.654800 -12.816200
C -6.891300 -9.683300 -11.546800
H -6.876600 -12.059000 -10.469800
C -6.754700 -7.368700 -12.202000
O -6.529000 -12.999300 -12.254400
C -6.048000 -9.493200 -10.479400
C -5.909000 -7.161700 -11.119200
H -5.804700 -10.201600 -9.876400
C -5.556600 -8.208400 -10.274300
H -5.549200 -6.281200 -10.934300
C -5.182300 -12.580100 -12.346100
H -5.028200 -11.768500 -12.654800
H -5.018500 -8.007600 -9.512600
H -4.852200 -12.419000 -11.312700
H -4.664200 -13.185400 -12.840300
3
Fragment
H -6.742200 -12.494800 -7.743800
O -5.978400 -12.860200 -8.132300
H -5.321400 -12.572900 -7.552000
42
Fragment
H -10.256700 -4.799900 -17.683100
H -10.236100 -6.257600 -18.140200
O -9.784900 -10.237800 -15.918800
C -9.630000 -5.503300 -17.792200
N -9.574200 -8.053300 -16.616900
H -9.441000 -11.352400 -14.410900
C -9.389200 -9.082700 -15.757000
H -9.021700 -5.323600 -18.455800
H -9.020600 -12.306400 -13.413800
N -9.013100 -11.530500 -13.663300
C -8.987100 -7.003500 -15.996300
N -8.970700 -5.788800 -16.523200
H -8.828000 -3.994000 -15.747700
C -8.615600 -8.535600 -14.559200
N -8.407300 -7.229500 -14.762100
C -8.285900 -4.678200 -15.881300
C -8.280900 -10.605100 -13.088800
H -8.228100 -12.633800 -11.431200
C -8.128400 -9.215600 -13.441000
H -7.933100 -4.914700 -14.955000
H -7.547100 -4.378900 -16.414500
N -7.527300 -10.859400 -11.982100
C -7.315300 -12.192100 -11.421000
C -7.257200 -8.643800 -12.422700
H -7.043500 -6.654800 -12.816200
C -6.891300 -9.683300 -11.546800
H -6.876600 -12.059000 -10.469800
C -6.754700 -7.368700 -12.202000
O -6.529000 -12.999300 -12.254400
C -6.048000 -9.493200 -10.479400
C -5.909000 -7.161700 -11.119200
H -5.804700 -10.201600 -9.876400
C -5.556600 -8.208400 -10.274300
H -5.549200 -6.281200 -10.934300
C -5.182300 -12.580100 -12.346100
H -5.028200 -11.768500 -12.654800
H -5.018500 -8.007600 -9.512600
H -4.852200 -12.419000 -11.312700
H -4.664200 -13.185400 -12.840300
H -6.742200 -12.494800 -7.743800
O -5.978400 -12.860200 -8.132300
H -5.321400 -12.572900 -7.552000
