39
Fragment
H -10.256700 -4.799900 -17.683100
H -10.236100 -6.257600 -18.140200
O -9.784900 -10.237800 -15.918800
C -9.630000 -5.503300 -17.792200
N -9.574200 -8.053300 -16.616900
H -9.441000 -11.352400 -14.410900
C -9.389200 -9.082700 -15.757000
H -9.021700 -5.323600 -18.455800
H -9.020600 -12.306400 -13.413800
N -9.013100 -11.530500 -13.663300
C -8.987100 -7.003500 -15.996300
N -8.970700 -5.788800 -16.523200
H -8.828000 -3.994000 -15.747700
C -8.615600 -8.535600 -14.559200
N -8.407300 -7.229500 -14.762100
C -8.285900 -4.678200 -15.881300
C -8.280900 -10.605100 -13.088800
H -8.228100 -12.633800 -11.431200
C -8.128400 -9.215600 -13.441000
H -7.933100 -4.914700 -14.955000
H -7.547100 -4.378900 -16.414500
N -7.527300 -10.859400 -11.982100
C -7.315300 -12.192100 -11.421000
C -7.257200 -8.643800 -12.422700
H -7.043500 -6.654800 -12.816200
C -6.891300 -9.683300 -11.546800
H -6.876600 -12.059000 -10.469800
C -6.754700 -7.368700 -12.202000
O -6.529000 -12.999300 -12.254400
C -6.048000 -9.493200 -10.479400
C -5.909000 -7.161700 -11.119200
H -5.804700 -10.201600 -9.876400
C -5.556600 -8.208400 -10.274300
H -5.549200 -6.281200 -10.934300
C -5.182300 -12.580100 -12.346100
H -5.028200 -11.768500 -12.654800
H -5.018500 -8.007600 -9.512600
H -4.852200 -12.419000 -11.312700
H -4.664200 -13.185400 -12.840300
39
Fragment
H -16.056200 -10.000800 -18.613100
H -15.868300 -10.767100 -20.140700
H -15.702000 -15.178500 -21.940800
H -15.692200 -11.417700 -18.798700
C -15.538200 -10.606100 -19.107300
H -15.171300 -16.905000 -20.519200
C -15.163800 -14.977800 -21.179100
H -14.915700 -12.984600 -21.577000
C -14.811500 -16.024500 -20.334200
C -14.672500 -13.692900 -20.974000
O -14.191500 -10.186900 -19.199100
C -13.965700 -15.817500 -19.251400
H -13.843900 -11.127200 -20.983600
C -13.829200 -13.502900 -19.906600
H -13.676900 -16.531400 -18.637200
C -13.463200 -14.542300 -19.030700
C -13.405100 -10.994100 -20.032400
N -13.193100 -12.326800 -19.471300
H -13.173400 -18.807300 -15.038900
H -12.787400 -18.271500 -16.498400
C -12.592100 -13.970600 -18.012400
H -12.492300 -10.552400 -20.022200
C -12.439500 -12.581000 -18.364600
C -12.434600 -18.508000 -15.572100
N -12.313100 -15.956600 -16.691300
C -12.104800 -14.650600 -16.894300
H -11.892500 -19.192200 -15.705700
N -11.749700 -17.397300 -14.930200
C -11.733400 -16.182700 -15.457100
N -11.707400 -11.655600 -17.790200
H -11.699900 -10.879800 -18.039600
H -11.698800 -17.862600 -12.997600
C -11.331300 -14.103400 -15.696400
H -11.279500 -11.833800 -17.042500
N -11.146300 -15.132900 -14.836500
C -11.090400 -17.682900 -13.661200
O -10.935500 -12.948400 -15.534600
H -10.484300 -16.928600 -13.313200
H -10.463800 -18.386200 -13.770300
78
Fragment
H -10.256700 -4.799900 -17.683100
H -10.236100 -6.257600 -18.140200
O -9.784900 -10.237800 -15.918800
C -9.630000 -5.503300 -17.792200
N -9.574200 -8.053300 -16.616900
H -9.441000 -11.352400 -14.410900
C -9.389200 -9.082700 -15.757000
H -9.021700 -5.323600 -18.455800
H -9.020600 -12.306400 -13.413800
N -9.013100 -11.530500 -13.663300
C -8.987100 -7.003500 -15.996300
N -8.970700 -5.788800 -16.523200
H -8.828000 -3.994000 -15.747700
C -8.615600 -8.535600 -14.559200
N -8.407300 -7.229500 -14.762100
C -8.285900 -4.678200 -15.881300
C -8.280900 -10.605100 -13.088800
H -8.228100 -12.633800 -11.431200
C -8.128400 -9.215600 -13.441000
H -7.933100 -4.914700 -14.955000
H -7.547100 -4.378900 -16.414500
N -7.527300 -10.859400 -11.982100
C -7.315300 -12.192100 -11.421000
C -7.257200 -8.643800 -12.422700
H -7.043500 -6.654800 -12.816200
C -6.891300 -9.683300 -11.546800
H -6.876600 -12.059000 -10.469800
C -6.754700 -7.368700 -12.202000
O -6.529000 -12.999300 -12.254400
C -6.048000 -9.493200 -10.479400
C -5.909000 -7.161700 -11.119200
H -5.804700 -10.201600 -9.876400
C -5.556600 -8.208400 -10.274300
H -5.549200 -6.281200 -10.934300
C -5.182300 -12.580100 -12.346100
H -5.028200 -11.768500 -12.654800
H -5.018500 -8.007600 -9.512600
H -4.852200 -12.419000 -11.312700
H -4.664200 -13.185400 -12.840300
H -16.056200 -10.000800 -18.613100
H -15.868300 -10.767100 -20.140700
H -15.702000 -15.178500 -21.940800
H -15.692200 -11.417700 -18.798700
C -15.538200 -10.606100 -19.107300
H -15.171300 -16.905000 -20.519200
C -15.163800 -14.977800 -21.179100
H -14.915700 -12.984600 -21.577000
C -14.811500 -16.024500 -20.334200
C -14.672500 -13.692900 -20.974000
O -14.191500 -10.186900 -19.199100
C -13.965700 -15.817500 -19.251400
H -13.843900 -11.127200 -20.983600
C -13.829200 -13.502900 -19.906600
H -13.676900 -16.531400 -18.637200
C -13.463200 -14.542300 -19.030700
C -13.405100 -10.994100 -20.032400
N -13.193100 -12.326800 -19.471300
H -13.173400 -18.807300 -15.038900
H -12.787400 -18.271500 -16.498400
C -12.592100 -13.970600 -18.012400
H -12.492300 -10.552400 -20.022200
C -12.439500 -12.581000 -18.364600
C -12.434600 -18.508000 -15.572100
N -12.313100 -15.956600 -16.691300
C -12.104800 -14.650600 -16.894300
H -11.892500 -19.192200 -15.705700
N -11.749700 -17.397300 -14.930200
C -11.733400 -16.182700 -15.457100
N -11.707400 -11.655600 -17.790200
H -11.699900 -10.879800 -18.039600
H -11.698800 -17.862600 -12.997600
C -11.331300 -14.103400 -15.696400
H -11.279500 -11.833800 -17.042500
N -11.146300 -15.132900 -14.836500
C -11.090400 -17.682900 -13.661200
O -10.935500 -12.948400 -15.534600
H -10.484300 -16.928600 -13.313200
H -10.463800 -18.386200 -13.770300
