39
Fragment
H -10.256700 -4.799900 -17.683100
H -10.236100 -6.257600 -18.140200
O -9.784900 -10.237800 -15.918800
C -9.630000 -5.503300 -17.792200
N -9.574200 -8.053300 -16.616900
H -9.441000 -11.352400 -14.410900
C -9.389200 -9.082700 -15.757000
H -9.021700 -5.323600 -18.455800
H -9.020600 -12.306400 -13.413800
N -9.013100 -11.530500 -13.663300
C -8.987100 -7.003500 -15.996300
N -8.970700 -5.788800 -16.523200
H -8.828000 -3.994000 -15.747700
C -8.615600 -8.535600 -14.559200
N -8.407300 -7.229500 -14.762100
C -8.285900 -4.678200 -15.881300
C -8.280900 -10.605100 -13.088800
H -8.228100 -12.633800 -11.431200
C -8.128400 -9.215600 -13.441000
H -7.933100 -4.914700 -14.955000
H -7.547100 -4.378900 -16.414500
N -7.527300 -10.859400 -11.982100
C -7.315300 -12.192100 -11.421000
C -7.257200 -8.643800 -12.422700
H -7.043500 -6.654800 -12.816200
C -6.891300 -9.683300 -11.546800
H -6.876600 -12.059000 -10.469800
C -6.754700 -7.368700 -12.202000
O -6.529000 -12.999300 -12.254400
C -6.048000 -9.493200 -10.479400
C -5.909000 -7.161700 -11.119200
H -5.804700 -10.201600 -9.876400
C -5.556600 -8.208400 -10.274300
H -5.549200 -6.281200 -10.934300
C -5.182300 -12.580100 -12.346100
H -5.028200 -11.768500 -12.654800
H -5.018500 -8.007600 -9.512600
H -4.852200 -12.419000 -11.312700
H -4.664200 -13.185400 -12.840300
39
Fragment
H -8.833300 -1.111200 -18.613100
H -8.645400 -1.877500 -20.140700
H -8.479100 -6.288900 -21.940800
H -8.469300 -2.528100 -18.798700
C -8.315200 -1.716500 -19.107300
H -7.948400 -8.015400 -20.519200
C -7.940900 -6.088100 -21.179100
H -7.692800 -4.094900 -21.577000
C -7.588500 -7.134900 -20.334200
C -7.449600 -4.803300 -20.974000
O -6.968500 -1.297200 -19.199100
C -6.742800 -6.927900 -19.251400
H -6.620900 -2.237500 -20.983600
C -6.606300 -4.613200 -19.906600
H -6.454000 -7.641800 -18.637200
C -6.240300 -5.652700 -19.030700
C -6.182200 -2.104500 -20.032400
N -5.970200 -3.437200 -19.471300
H -5.950400 -9.917700 -15.038900
H -5.564400 -9.381800 -16.498400
C -5.369100 -5.081000 -18.012400
H -5.269400 -1.662700 -20.022200
C -5.216600 -3.691400 -18.364600
C -5.211700 -9.618400 -15.572100
N -5.090200 -7.067000 -16.691300
C -4.881900 -5.760900 -16.894300
H -4.669600 -10.302600 -15.705700
N -4.526800 -8.507700 -14.930200
C -4.510400 -7.293100 -15.457100
N -4.484400 -2.766000 -17.790200
H -4.476900 -1.990100 -18.039600
H -4.475900 -8.972900 -12.997600
C -4.108400 -5.213800 -15.696400
H -4.056600 -2.944200 -17.042500
N -3.923300 -6.243200 -14.836500
C -3.867500 -8.793300 -13.661200
O -3.712600 -4.058800 -15.534600
H -3.261400 -8.039000 -13.313200
H -3.240800 -9.496600 -13.770300
78
Fragment
H -10.256700 -4.799900 -17.683100
H -10.236100 -6.257600 -18.140200
O -9.784900 -10.237800 -15.918800
C -9.630000 -5.503300 -17.792200
N -9.574200 -8.053300 -16.616900
H -9.441000 -11.352400 -14.410900
C -9.389200 -9.082700 -15.757000
H -9.021700 -5.323600 -18.455800
H -9.020600 -12.306400 -13.413800
N -9.013100 -11.530500 -13.663300
C -8.987100 -7.003500 -15.996300
N -8.970700 -5.788800 -16.523200
H -8.828000 -3.994000 -15.747700
C -8.615600 -8.535600 -14.559200
N -8.407300 -7.229500 -14.762100
C -8.285900 -4.678200 -15.881300
C -8.280900 -10.605100 -13.088800
H -8.228100 -12.633800 -11.431200
C -8.128400 -9.215600 -13.441000
H -7.933100 -4.914700 -14.955000
H -7.547100 -4.378900 -16.414500
N -7.527300 -10.859400 -11.982100
C -7.315300 -12.192100 -11.421000
C -7.257200 -8.643800 -12.422700
H -7.043500 -6.654800 -12.816200
C -6.891300 -9.683300 -11.546800
H -6.876600 -12.059000 -10.469800
C -6.754700 -7.368700 -12.202000
O -6.529000 -12.999300 -12.254400
C -6.048000 -9.493200 -10.479400
C -5.909000 -7.161700 -11.119200
H -5.804700 -10.201600 -9.876400
C -5.556600 -8.208400 -10.274300
H -5.549200 -6.281200 -10.934300
C -5.182300 -12.580100 -12.346100
H -5.028200 -11.768500 -12.654800
H -5.018500 -8.007600 -9.512600
H -4.852200 -12.419000 -11.312700
H -4.664200 -13.185400 -12.840300
H -8.833300 -1.111200 -18.613100
H -8.645400 -1.877500 -20.140700
H -8.479100 -6.288900 -21.940800
H -8.469300 -2.528100 -18.798700
C -8.315200 -1.716500 -19.107300
H -7.948400 -8.015400 -20.519200
C -7.940900 -6.088100 -21.179100
H -7.692800 -4.094900 -21.577000
C -7.588500 -7.134900 -20.334200
C -7.449600 -4.803300 -20.974000
O -6.968500 -1.297200 -19.199100
C -6.742800 -6.927900 -19.251400
H -6.620900 -2.237500 -20.983600
C -6.606300 -4.613200 -19.906600
H -6.454000 -7.641800 -18.637200
C -6.240300 -5.652700 -19.030700
C -6.182200 -2.104500 -20.032400
N -5.970200 -3.437200 -19.471300
H -5.950400 -9.917700 -15.038900
H -5.564400 -9.381800 -16.498400
C -5.369100 -5.081000 -18.012400
H -5.269400 -1.662700 -20.022200
C -5.216600 -3.691400 -18.364600
C -5.211700 -9.618400 -15.572100
N -5.090200 -7.067000 -16.691300
C -4.881900 -5.760900 -16.894300
H -4.669600 -10.302600 -15.705700
N -4.526800 -8.507700 -14.930200
C -4.510400 -7.293100 -15.457100
N -4.484400 -2.766000 -17.790200
H -4.476900 -1.990100 -18.039600
H -4.475900 -8.972900 -12.997600
C -4.108400 -5.213800 -15.696400
H -4.056600 -2.944200 -17.042500
N -3.923300 -6.243200 -14.836500
C -3.867500 -8.793300 -13.661200
O -3.712600 -4.058800 -15.534600
H -3.261400 -8.039000 -13.313200
H -3.240800 -9.496600 -13.770300
