39
Fragment
H -10.256700 -4.799900 -17.683100
H -10.236100 -6.257600 -18.140200
O -9.784900 -10.237800 -15.918800
C -9.630000 -5.503300 -17.792200
N -9.574200 -8.053300 -16.616900
H -9.441000 -11.352400 -14.410900
C -9.389200 -9.082700 -15.757000
H -9.021700 -5.323600 -18.455800
H -9.020600 -12.306400 -13.413800
N -9.013100 -11.530500 -13.663300
C -8.987100 -7.003500 -15.996300
N -8.970700 -5.788800 -16.523200
H -8.828000 -3.994000 -15.747700
C -8.615600 -8.535600 -14.559200
N -8.407300 -7.229500 -14.762100
C -8.285900 -4.678200 -15.881300
C -8.280900 -10.605100 -13.088800
H -8.228100 -12.633800 -11.431200
C -8.128400 -9.215600 -13.441000
H -7.933100 -4.914700 -14.955000
H -7.547100 -4.378900 -16.414500
N -7.527300 -10.859400 -11.982100
C -7.315300 -12.192100 -11.421000
C -7.257200 -8.643800 -12.422700
H -7.043500 -6.654800 -12.816200
C -6.891300 -9.683300 -11.546800
H -6.876600 -12.059000 -10.469800
C -6.754700 -7.368700 -12.202000
O -6.529000 -12.999300 -12.254400
C -6.048000 -9.493200 -10.479400
C -5.909000 -7.161700 -11.119200
H -5.804700 -10.201600 -9.876400
C -5.556600 -8.208400 -10.274300
H -5.549200 -6.281200 -10.934300
C -5.182300 -12.580100 -12.346100
H -5.028200 -11.768500 -12.654800
H -5.018500 -8.007600 -9.512600
H -4.852200 -12.419000 -11.312700
H -4.664200 -13.185400 -12.840300
39
Fragment
H -4.743300 -8.924000 -7.198600
H -4.722700 -10.381700 -7.655800
O -4.271500 -14.361900 -5.434300
C -4.116600 -9.627400 -7.307800
N -4.060700 -12.177400 -6.132500
H -3.927500 -15.476500 -3.926400
C -3.875700 -13.206800 -5.272500
H -3.508200 -9.447700 -7.971300
H -3.507200 -16.430500 -2.929400
N -3.499700 -15.654700 -3.178800
C -3.473700 -11.127600 -5.511800
N -3.457300 -9.912900 -6.038700
H -3.314500 -8.118100 -5.263200
C -3.102200 -12.659700 -4.074700
N -2.893900 -11.353600 -4.277700
C -2.772400 -8.802300 -5.396900
C -2.767500 -14.729200 -2.604300
H -2.714700 -16.757900 -0.946700
C -2.615000 -13.339700 -2.956500
H -2.419700 -9.038800 -4.470600
H -2.033700 -8.503000 -5.930000
N -2.013900 -14.983500 -1.497600
C -1.801900 -16.316200 -0.936600
C -1.743800 -12.767900 -1.938300
H -1.530100 -10.778900 -2.331700
C -1.377800 -13.807400 -1.062300
H -1.363200 -16.183100 0.014700
C -1.241300 -11.492800 -1.717600
O -1.015500 -17.123400 -1.769900
C -0.534500 -13.617300 0.005000
C -0.395600 -11.285800 -0.634700
H -0.291300 -14.325700 0.608100
C -0.043200 -12.332500 0.210200
H -0.035700 -10.405300 -0.449800
C 0.331100 -16.704200 -1.861600
H 0.485200 -15.892600 -2.170300
H 0.495000 -12.131700 0.971900
H 0.661300 -16.543100 -0.828300
H 0.849200 -17.309500 -2.355900
78
Fragment
H -10.256700 -4.799900 -17.683100
H -10.236100 -6.257600 -18.140200
O -9.784900 -10.237800 -15.918800
C -9.630000 -5.503300 -17.792200
N -9.574200 -8.053300 -16.616900
H -9.441000 -11.352400 -14.410900
C -9.389200 -9.082700 -15.757000
H -9.021700 -5.323600 -18.455800
H -9.020600 -12.306400 -13.413800
N -9.013100 -11.530500 -13.663300
C -8.987100 -7.003500 -15.996300
N -8.970700 -5.788800 -16.523200
H -8.828000 -3.994000 -15.747700
C -8.615600 -8.535600 -14.559200
N -8.407300 -7.229500 -14.762100
C -8.285900 -4.678200 -15.881300
C -8.280900 -10.605100 -13.088800
H -8.228100 -12.633800 -11.431200
C -8.128400 -9.215600 -13.441000
H -7.933100 -4.914700 -14.955000
H -7.547100 -4.378900 -16.414500
N -7.527300 -10.859400 -11.982100
C -7.315300 -12.192100 -11.421000
C -7.257200 -8.643800 -12.422700
H -7.043500 -6.654800 -12.816200
C -6.891300 -9.683300 -11.546800
H -6.876600 -12.059000 -10.469800
C -6.754700 -7.368700 -12.202000
O -6.529000 -12.999300 -12.254400
C -6.048000 -9.493200 -10.479400
C -5.909000 -7.161700 -11.119200
H -5.804700 -10.201600 -9.876400
C -5.556600 -8.208400 -10.274300
H -5.549200 -6.281200 -10.934300
C -5.182300 -12.580100 -12.346100
H -5.028200 -11.768500 -12.654800
H -5.018500 -8.007600 -9.512600
H -4.852200 -12.419000 -11.312700
H -4.664200 -13.185400 -12.840300
H -4.743300 -8.924000 -7.198600
H -4.722700 -10.381700 -7.655800
O -4.271500 -14.361900 -5.434300
C -4.116600 -9.627400 -7.307800
N -4.060700 -12.177400 -6.132500
H -3.927500 -15.476500 -3.926400
C -3.875700 -13.206800 -5.272500
H -3.508200 -9.447700 -7.971300
H -3.507200 -16.430500 -2.929400
N -3.499700 -15.654700 -3.178800
C -3.473700 -11.127600 -5.511800
N -3.457300 -9.912900 -6.038700
H -3.314500 -8.118100 -5.263200
C -3.102200 -12.659700 -4.074700
N -2.893900 -11.353600 -4.277700
C -2.772400 -8.802300 -5.396900
C -2.767500 -14.729200 -2.604300
H -2.714700 -16.757900 -0.946700
C -2.615000 -13.339700 -2.956500
H -2.419700 -9.038800 -4.470600
H -2.033700 -8.503000 -5.930000
N -2.013900 -14.983500 -1.497600
C -1.801900 -16.316200 -0.936600
C -1.743800 -12.767900 -1.938300
H -1.530100 -10.778900 -2.331700
C -1.377800 -13.807400 -1.062300
H -1.363200 -16.183100 0.014700
C -1.241300 -11.492800 -1.717600
O -1.015500 -17.123400 -1.769900
C -0.534500 -13.617300 0.005000
C -0.395600 -11.285800 -0.634700
H -0.291300 -14.325700 0.608100
C -0.043200 -12.332500 0.210200
H -0.035700 -10.405300 -0.449800
C 0.331100 -16.704200 -1.861600
H 0.485200 -15.892600 -2.170300
H 0.495000 -12.131700 0.971900
H 0.661300 -16.543100 -0.828300
H 0.849200 -17.309500 -2.355900
