31
Fragment
H -10.921800 -18.853600 -19.571500
O -10.723200 -16.882900 -19.322300
H -10.588800 -16.269000 -20.046600
C -10.191500 -18.186600 -19.602200
H -9.806200 -18.195300 -20.514600
O -9.722600 -18.649000 -17.282100
H -9.546300 -21.347100 -17.637900
H -9.529900 -19.946200 -15.776700
C -9.130400 -18.561100 -18.608600
C -8.990700 -19.611100 -16.549500
H -8.943700 -20.396000 -19.659300
O -8.830900 -17.767500 -14.599300
C -8.759300 -20.735000 -17.570500
C -8.529300 -19.947500 -18.867000
H -8.405300 -17.871700 -18.611700
C -7.725000 -18.130200 -15.050800
N -7.702600 -19.077200 -16.084200
O -7.553300 -21.443900 -17.368500
O -7.086600 -19.907500 -18.955200
N -6.574300 -17.639900 -14.558500
C -6.559400 -20.486900 -17.756300
C -6.495900 -19.448700 -16.648000
H -5.428800 -21.688300 -18.653500
C -5.407900 -18.010700 -15.103000
C -5.337700 -18.927100 -16.201200
N -5.307100 -21.034800 -18.054900
H -4.973300 -21.359200 -17.371800
H -4.506600 -19.158500 -16.598700
H -4.428200 -16.949100 -13.968500
N -4.296000 -17.493600 -14.590700
H -3.509700 -17.749900 -14.906100
31
Fragment
H -18.892500 -23.235100 -19.921200
N -18.106200 -22.978700 -20.236600
H -17.974000 -22.434300 -20.858700
H -17.895600 -24.643700 -18.228600
H -17.428900 -26.844300 -17.455400
N -17.095100 -26.519900 -16.772400
C -17.064500 -24.412200 -18.626000
C -16.994300 -23.495900 -19.724200
H -16.973400 -27.173400 -16.173800
C -15.906300 -24.933800 -18.179300
C -15.842800 -25.972100 -17.070900
N -15.827900 -23.125100 -20.268800
O -15.315600 -25.392600 -15.872000
O -14.848900 -26.929000 -17.458800
N -14.699600 -24.562400 -18.743100
C -14.677200 -23.615300 -19.776400
H -13.996900 -23.356900 -16.215600
C -13.872900 -25.432700 -15.960200
C -13.642900 -26.220100 -17.256800
O -13.571300 -23.252600 -20.227900
H -13.458500 -25.881100 -15.168000
C -13.411500 -25.096200 -18.277800
C -13.271800 -24.046200 -16.218600
H -12.872300 -25.431300 -19.050500
H -12.855900 -26.832300 -17.189300
O -12.679600 -24.134100 -17.545100
H -12.596000 -23.680500 -14.312600
C -12.210700 -23.671700 -15.225100
H -11.813400 -21.754100 -14.780700
O -11.679000 -22.368000 -15.505000
H -11.480400 -24.338700 -15.255700
62
Fragment
H -10.921800 -18.853600 -19.571500
O -10.723200 -16.882900 -19.322300
H -10.588800 -16.269000 -20.046600
C -10.191500 -18.186600 -19.602200
H -9.806200 -18.195300 -20.514600
O -9.722600 -18.649000 -17.282100
H -9.546300 -21.347100 -17.637900
H -9.529900 -19.946200 -15.776700
C -9.130400 -18.561100 -18.608600
C -8.990700 -19.611100 -16.549500
H -8.943700 -20.396000 -19.659300
O -8.830900 -17.767500 -14.599300
C -8.759300 -20.735000 -17.570500
C -8.529300 -19.947500 -18.867000
H -8.405300 -17.871700 -18.611700
C -7.725000 -18.130200 -15.050800
N -7.702600 -19.077200 -16.084200
O -7.553300 -21.443900 -17.368500
O -7.086600 -19.907500 -18.955200
N -6.574300 -17.639900 -14.558500
C -6.559400 -20.486900 -17.756300
C -6.495900 -19.448700 -16.648000
H -5.428800 -21.688300 -18.653500
C -5.407900 -18.010700 -15.103000
C -5.337700 -18.927100 -16.201200
N -5.307100 -21.034800 -18.054900
H -4.973300 -21.359200 -17.371800
H -4.506600 -19.158500 -16.598700
H -4.428200 -16.949100 -13.968500
N -4.296000 -17.493600 -14.590700
H -3.509700 -17.749900 -14.906100
H -18.892500 -23.235100 -19.921200
N -18.106200 -22.978700 -20.236600
H -17.974000 -22.434300 -20.858700
H -17.895600 -24.643700 -18.228600
H -17.428900 -26.844300 -17.455400
N -17.095100 -26.519900 -16.772400
C -17.064500 -24.412200 -18.626000
C -16.994300 -23.495900 -19.724200
H -16.973400 -27.173400 -16.173800
C -15.906300 -24.933800 -18.179300
C -15.842800 -25.972100 -17.070900
N -15.827900 -23.125100 -20.268800
O -15.315600 -25.392600 -15.872000
O -14.848900 -26.929000 -17.458800
N -14.699600 -24.562400 -18.743100
C -14.677200 -23.615300 -19.776400
H -13.996900 -23.356900 -16.215600
C -13.872900 -25.432700 -15.960200
C -13.642900 -26.220100 -17.256800
O -13.571300 -23.252600 -20.227900
H -13.458500 -25.881100 -15.168000
C -13.411500 -25.096200 -18.277800
C -13.271800 -24.046200 -16.218600
H -12.872300 -25.431300 -19.050500
H -12.855900 -26.832300 -17.189300
O -12.679600 -24.134100 -17.545100
H -12.596000 -23.680500 -14.312600
C -12.210700 -23.671700 -15.225100
H -11.813400 -21.754100 -14.780700
O -11.679000 -22.368000 -15.505000
H -11.480400 -24.338700 -15.255700
