31
Fragment
H -10.921800 -18.853600 -19.571500
O -10.723200 -16.882900 -19.322300
H -10.588800 -16.269000 -20.046600
C -10.191500 -18.186600 -19.602200
H -9.806200 -18.195300 -20.514600
O -9.722600 -18.649000 -17.282100
H -9.546300 -21.347100 -17.637900
H -9.529900 -19.946200 -15.776700
C -9.130400 -18.561100 -18.608600
C -8.990700 -19.611100 -16.549500
H -8.943700 -20.396000 -19.659300
O -8.830900 -17.767500 -14.599300
C -8.759300 -20.735000 -17.570500
C -8.529300 -19.947500 -18.867000
H -8.405300 -17.871700 -18.611700
C -7.725000 -18.130200 -15.050800
N -7.702600 -19.077200 -16.084200
O -7.553300 -21.443900 -17.368500
O -7.086600 -19.907500 -18.955200
N -6.574300 -17.639900 -14.558500
C -6.559400 -20.486900 -17.756300
C -6.495900 -19.448700 -16.648000
H -5.428800 -21.688300 -18.653500
C -5.407900 -18.010700 -15.103000
C -5.337700 -18.927100 -16.201200
N -5.307100 -21.034800 -18.054900
H -4.973300 -21.359200 -17.371800
H -4.506600 -19.158500 -16.598700
H -4.428200 -16.949100 -13.968500
N -4.296000 -17.493600 -14.590700
H -3.509700 -17.749900 -14.906100
31
Fragment
H -18.892500 -12.264800 -19.921200
N -18.106200 -12.008400 -20.236600
H -17.974000 -11.464000 -20.858700
H -17.895600 -13.673400 -18.228600
H -17.428900 -15.874000 -17.455400
N -17.095100 -15.549600 -16.772400
C -17.064500 -13.441900 -18.626000
C -16.994300 -12.525600 -19.724200
H -16.973400 -16.203100 -16.173800
C -15.906300 -13.963500 -18.179300
C -15.842800 -15.001800 -17.070900
N -15.827900 -12.154800 -20.268800
O -15.315600 -14.422300 -15.872000
O -14.848900 -15.958700 -17.458800
N -14.699600 -13.592100 -18.743100
C -14.677200 -12.645000 -19.776400
H -13.996900 -12.386600 -16.215600
C -13.872900 -14.462400 -15.960200
C -13.642900 -15.249800 -17.256800
O -13.571300 -12.282300 -20.227900
H -13.458500 -14.910800 -15.168000
C -13.411500 -14.125900 -18.277800
C -13.271800 -13.075900 -16.218600
H -12.872300 -14.461000 -19.050500
H -12.855900 -15.862000 -17.189300
O -12.679600 -13.163800 -17.545100
H -12.596000 -12.710200 -14.312600
C -12.210700 -12.701400 -15.225100
H -11.813400 -10.783800 -14.780700
O -11.679000 -11.397700 -15.505000
H -11.480400 -13.368400 -15.255700
62
Fragment
H -10.921800 -18.853600 -19.571500
O -10.723200 -16.882900 -19.322300
H -10.588800 -16.269000 -20.046600
C -10.191500 -18.186600 -19.602200
H -9.806200 -18.195300 -20.514600
O -9.722600 -18.649000 -17.282100
H -9.546300 -21.347100 -17.637900
H -9.529900 -19.946200 -15.776700
C -9.130400 -18.561100 -18.608600
C -8.990700 -19.611100 -16.549500
H -8.943700 -20.396000 -19.659300
O -8.830900 -17.767500 -14.599300
C -8.759300 -20.735000 -17.570500
C -8.529300 -19.947500 -18.867000
H -8.405300 -17.871700 -18.611700
C -7.725000 -18.130200 -15.050800
N -7.702600 -19.077200 -16.084200
O -7.553300 -21.443900 -17.368500
O -7.086600 -19.907500 -18.955200
N -6.574300 -17.639900 -14.558500
C -6.559400 -20.486900 -17.756300
C -6.495900 -19.448700 -16.648000
H -5.428800 -21.688300 -18.653500
C -5.407900 -18.010700 -15.103000
C -5.337700 -18.927100 -16.201200
N -5.307100 -21.034800 -18.054900
H -4.973300 -21.359200 -17.371800
H -4.506600 -19.158500 -16.598700
H -4.428200 -16.949100 -13.968500
N -4.296000 -17.493600 -14.590700
H -3.509700 -17.749900 -14.906100
H -18.892500 -12.264800 -19.921200
N -18.106200 -12.008400 -20.236600
H -17.974000 -11.464000 -20.858700
H -17.895600 -13.673400 -18.228600
H -17.428900 -15.874000 -17.455400
N -17.095100 -15.549600 -16.772400
C -17.064500 -13.441900 -18.626000
C -16.994300 -12.525600 -19.724200
H -16.973400 -16.203100 -16.173800
C -15.906300 -13.963500 -18.179300
C -15.842800 -15.001800 -17.070900
N -15.827900 -12.154800 -20.268800
O -15.315600 -14.422300 -15.872000
O -14.848900 -15.958700 -17.458800
N -14.699600 -13.592100 -18.743100
C -14.677200 -12.645000 -19.776400
H -13.996900 -12.386600 -16.215600
C -13.872900 -14.462400 -15.960200
C -13.642900 -15.249800 -17.256800
O -13.571300 -12.282300 -20.227900
H -13.458500 -14.910800 -15.168000
C -13.411500 -14.125900 -18.277800
C -13.271800 -13.075900 -16.218600
H -12.872300 -14.461000 -19.050500
H -12.855900 -15.862000 -17.189300
O -12.679600 -13.163800 -17.545100
H -12.596000 -12.710200 -14.312600
C -12.210700 -12.701400 -15.225100
H -11.813400 -10.783800 -14.780700
O -11.679000 -11.397700 -15.505000
H -11.480400 -13.368400 -15.255700
