31
Fragment
H -10.921800 -18.853600 -19.571500
O -10.723200 -16.882900 -19.322300
H -10.588800 -16.269000 -20.046600
C -10.191500 -18.186600 -19.602200
H -9.806200 -18.195300 -20.514600
O -9.722600 -18.649000 -17.282100
H -9.546300 -21.347100 -17.637900
H -9.529900 -19.946200 -15.776700
C -9.130400 -18.561100 -18.608600
C -8.990700 -19.611100 -16.549500
H -8.943700 -20.396000 -19.659300
O -8.830900 -17.767500 -14.599300
C -8.759300 -20.735000 -17.570500
C -8.529300 -19.947500 -18.867000
H -8.405300 -17.871700 -18.611700
C -7.725000 -18.130200 -15.050800
N -7.702600 -19.077200 -16.084200
O -7.553300 -21.443900 -17.368500
O -7.086600 -19.907500 -18.955200
N -6.574300 -17.639900 -14.558500
C -6.559400 -20.486900 -17.756300
C -6.495900 -19.448700 -16.648000
H -5.428800 -21.688300 -18.653500
C -5.407900 -18.010700 -15.103000
C -5.337700 -18.927100 -16.201200
N -5.307100 -21.034800 -18.054900
H -4.973300 -21.359200 -17.371800
H -4.506600 -19.158500 -16.598700
H -4.428200 -16.949100 -13.968500
N -4.296000 -17.493600 -14.590700
H -3.509700 -17.749900 -14.906100
31
Fragment
H -3.957700 -23.235100 -19.921200
N -3.171400 -22.978700 -20.236600
H -3.039200 -22.434300 -20.858700
H -2.960800 -24.643700 -18.228600
H -2.494100 -26.844300 -17.455400
N -2.160300 -26.519900 -16.772400
C -2.129700 -24.412200 -18.626000
C -2.059500 -23.495900 -19.724200
H -2.038600 -27.173400 -16.173800
C -0.971500 -24.933800 -18.179300
C -0.908000 -25.972100 -17.070900
N -0.893100 -23.125100 -20.268800
O -0.380800 -25.392600 -15.872000
O 0.085900 -26.929000 -17.458800
N 0.235200 -24.562400 -18.743100
C 0.257600 -23.615300 -19.776400
H 0.937900 -23.356900 -16.215600
C 1.061900 -25.432700 -15.960200
C 1.291900 -26.220100 -17.256800
O 1.363500 -23.252600 -20.227900
H 1.476300 -25.881100 -15.168000
C 1.523300 -25.096200 -18.277800
C 1.663000 -24.046200 -16.218600
H 2.062500 -25.431300 -19.050500
H 2.078900 -26.832300 -17.189300
O 2.255200 -24.134100 -17.545100
H 2.338800 -23.680500 -14.312600
C 2.724100 -23.671700 -15.225100
H 3.121400 -21.754100 -14.780700
O 3.255800 -22.368000 -15.505000
H 3.454400 -24.338700 -15.255700
62
Fragment
H -10.921800 -18.853600 -19.571500
O -10.723200 -16.882900 -19.322300
H -10.588800 -16.269000 -20.046600
C -10.191500 -18.186600 -19.602200
H -9.806200 -18.195300 -20.514600
O -9.722600 -18.649000 -17.282100
H -9.546300 -21.347100 -17.637900
H -9.529900 -19.946200 -15.776700
C -9.130400 -18.561100 -18.608600
C -8.990700 -19.611100 -16.549500
H -8.943700 -20.396000 -19.659300
O -8.830900 -17.767500 -14.599300
C -8.759300 -20.735000 -17.570500
C -8.529300 -19.947500 -18.867000
H -8.405300 -17.871700 -18.611700
C -7.725000 -18.130200 -15.050800
N -7.702600 -19.077200 -16.084200
O -7.553300 -21.443900 -17.368500
O -7.086600 -19.907500 -18.955200
N -6.574300 -17.639900 -14.558500
C -6.559400 -20.486900 -17.756300
C -6.495900 -19.448700 -16.648000
H -5.428800 -21.688300 -18.653500
C -5.407900 -18.010700 -15.103000
C -5.337700 -18.927100 -16.201200
N -5.307100 -21.034800 -18.054900
H -4.973300 -21.359200 -17.371800
H -4.506600 -19.158500 -16.598700
H -4.428200 -16.949100 -13.968500
N -4.296000 -17.493600 -14.590700
H -3.509700 -17.749900 -14.906100
H -3.957700 -23.235100 -19.921200
N -3.171400 -22.978700 -20.236600
H -3.039200 -22.434300 -20.858700
H -2.960800 -24.643700 -18.228600
H -2.494100 -26.844300 -17.455400
N -2.160300 -26.519900 -16.772400
C -2.129700 -24.412200 -18.626000
C -2.059500 -23.495900 -19.724200
H -2.038600 -27.173400 -16.173800
C -0.971500 -24.933800 -18.179300
C -0.908000 -25.972100 -17.070900
N -0.893100 -23.125100 -20.268800
O -0.380800 -25.392600 -15.872000
O 0.085900 -26.929000 -17.458800
N 0.235200 -24.562400 -18.743100
C 0.257600 -23.615300 -19.776400
H 0.937900 -23.356900 -16.215600
C 1.061900 -25.432700 -15.960200
C 1.291900 -26.220100 -17.256800
O 1.363500 -23.252600 -20.227900
H 1.476300 -25.881100 -15.168000
C 1.523300 -25.096200 -18.277800
C 1.663000 -24.046200 -16.218600
H 2.062500 -25.431300 -19.050500
H 2.078900 -26.832300 -17.189300
O 2.255200 -24.134100 -17.545100
H 2.338800 -23.680500 -14.312600
C 2.724100 -23.671700 -15.225100
H 3.121400 -21.754100 -14.780700
O 3.255800 -22.368000 -15.505000
H 3.454400 -24.338700 -15.255700
