31
Fragment
H -10.921800 -18.853600 -19.571500
O -10.723200 -16.882900 -19.322300
H -10.588800 -16.269000 -20.046600
C -10.191500 -18.186600 -19.602200
H -9.806200 -18.195300 -20.514600
O -9.722600 -18.649000 -17.282100
H -9.546300 -21.347100 -17.637900
H -9.529900 -19.946200 -15.776700
C -9.130400 -18.561100 -18.608600
C -8.990700 -19.611100 -16.549500
H -8.943700 -20.396000 -19.659300
O -8.830900 -17.767500 -14.599300
C -8.759300 -20.735000 -17.570500
C -8.529300 -19.947500 -18.867000
H -8.405300 -17.871700 -18.611700
C -7.725000 -18.130200 -15.050800
N -7.702600 -19.077200 -16.084200
O -7.553300 -21.443900 -17.368500
O -7.086600 -19.907500 -18.955200
N -6.574300 -17.639900 -14.558500
C -6.559400 -20.486900 -17.756300
C -6.495900 -19.448700 -16.648000
H -5.428800 -21.688300 -18.653500
C -5.407900 -18.010700 -15.103000
C -5.337700 -18.927100 -16.201200
N -5.307100 -21.034800 -18.054900
H -4.973300 -21.359200 -17.371800
H -4.506600 -19.158500 -16.598700
H -4.428200 -16.949100 -13.968500
N -4.296000 -17.493600 -14.590700
H -3.509700 -17.749900 -14.906100
31
Fragment
H -15.158800 -15.161000 -7.940600
N -14.372500 -15.417300 -7.625200
H -14.240300 -15.961800 -7.003100
H -14.161900 -13.752400 -9.633200
H -13.695200 -11.551700 -10.406400
N -13.361400 -11.876100 -11.089400
C -13.330800 -13.983800 -9.235800
C -13.260600 -14.900200 -8.137600
H -13.239700 -11.222600 -11.688000
C -12.172600 -13.462200 -9.682500
C -12.109100 -12.424000 -10.790900
N -12.094200 -15.271000 -7.593000
O -11.581900 -13.003400 -11.989800
O -11.115200 -11.467000 -10.403000
N -10.965900 -13.833700 -9.118700
C -10.943500 -14.780700 -8.085400
H -10.263200 -15.039200 -11.646200
C -10.139200 -12.963400 -11.901600
C -9.909200 -12.175900 -10.605000
O -9.837600 -15.143400 -7.633900
H -9.724800 -12.514900 -12.693800
C -9.677800 -13.299800 -9.584000
C -9.538100 -14.349800 -11.643200
H -9.138600 -12.964700 -8.811300
H -9.122200 -11.563800 -10.672500
O -8.945900 -14.261900 -10.316700
H -8.862300 -14.715600 -13.549200
C -8.477000 -14.724300 -12.636700
H -8.079700 -16.641900 -13.081100
O -7.945300 -16.028000 -12.356800
H -7.746700 -14.057300 -12.606100
62
Fragment
H -10.921800 -18.853600 -19.571500
O -10.723200 -16.882900 -19.322300
H -10.588800 -16.269000 -20.046600
C -10.191500 -18.186600 -19.602200
H -9.806200 -18.195300 -20.514600
O -9.722600 -18.649000 -17.282100
H -9.546300 -21.347100 -17.637900
H -9.529900 -19.946200 -15.776700
C -9.130400 -18.561100 -18.608600
C -8.990700 -19.611100 -16.549500
H -8.943700 -20.396000 -19.659300
O -8.830900 -17.767500 -14.599300
C -8.759300 -20.735000 -17.570500
C -8.529300 -19.947500 -18.867000
H -8.405300 -17.871700 -18.611700
C -7.725000 -18.130200 -15.050800
N -7.702600 -19.077200 -16.084200
O -7.553300 -21.443900 -17.368500
O -7.086600 -19.907500 -18.955200
N -6.574300 -17.639900 -14.558500
C -6.559400 -20.486900 -17.756300
C -6.495900 -19.448700 -16.648000
H -5.428800 -21.688300 -18.653500
C -5.407900 -18.010700 -15.103000
C -5.337700 -18.927100 -16.201200
N -5.307100 -21.034800 -18.054900
H -4.973300 -21.359200 -17.371800
H -4.506600 -19.158500 -16.598700
H -4.428200 -16.949100 -13.968500
N -4.296000 -17.493600 -14.590700
H -3.509700 -17.749900 -14.906100
H -15.158800 -15.161000 -7.940600
N -14.372500 -15.417300 -7.625200
H -14.240300 -15.961800 -7.003100
H -14.161900 -13.752400 -9.633200
H -13.695200 -11.551700 -10.406400
N -13.361400 -11.876100 -11.089400
C -13.330800 -13.983800 -9.235800
C -13.260600 -14.900200 -8.137600
H -13.239700 -11.222600 -11.688000
C -12.172600 -13.462200 -9.682500
C -12.109100 -12.424000 -10.790900
N -12.094200 -15.271000 -7.593000
O -11.581900 -13.003400 -11.989800
O -11.115200 -11.467000 -10.403000
N -10.965900 -13.833700 -9.118700
C -10.943500 -14.780700 -8.085400
H -10.263200 -15.039200 -11.646200
C -10.139200 -12.963400 -11.901600
C -9.909200 -12.175900 -10.605000
O -9.837600 -15.143400 -7.633900
H -9.724800 -12.514900 -12.693800
C -9.677800 -13.299800 -9.584000
C -9.538100 -14.349800 -11.643200
H -9.138600 -12.964700 -8.811300
H -9.122200 -11.563800 -10.672500
O -8.945900 -14.261900 -10.316700
H -8.862300 -14.715600 -13.549200
C -8.477000 -14.724300 -12.636700
H -8.079700 -16.641900 -13.081100
O -7.945300 -16.028000 -12.356800
H -7.746700 -14.057300 -12.606100
