23
Fragment
H -25.150300 -23.538400 -7.217900
H -24.356200 -22.195500 -7.052700
C -24.303300 -23.152300 -6.983200
H -24.078500 -23.396000 -6.081900
O -23.271700 -23.650200 -7.892900
C -22.037200 -23.173400 -7.701300
O -21.713800 -22.375100 -6.847200
H -21.341100 -24.706300 -8.867600
H -21.282600 -23.320600 -9.599600
C -21.127000 -23.767200 -8.752900
N -20.159100 -25.106200 -6.675000
C -19.748300 -25.874700 -5.684900
N -19.707000 -23.636000 -8.391600
N -19.499400 -26.578700 -4.789100
H -19.241600 -22.348200 -9.858100
C -19.233800 -24.382500 -7.334600
C -18.880900 -22.844800 -9.159900
C -17.846100 -24.302100 -7.059600
C -17.549100 -22.779800 -8.914200
H -17.491100 -24.780000 -6.345500
C -17.022000 -23.528800 -7.833300
H -16.993100 -22.255600 -9.443700
H -16.111100 -23.495500 -7.648200
23
Fragment
H -25.814000 -23.538400 -2.255100
H -25.019900 -22.195500 -2.089800
C -24.967000 -23.152300 -2.020400
H -24.742200 -23.396000 -1.119100
O -23.935400 -23.650200 -2.930000
C -22.700900 -23.173400 -2.738500
O -22.377500 -22.375100 -1.884400
H -22.004800 -24.706300 -3.904700
H -21.946300 -23.320600 -4.636800
C -21.790700 -23.767200 -3.790100
N -20.822700 -25.106200 -1.712200
C -20.412000 -25.874700 -0.722100
N -20.370700 -23.636000 -3.428800
N -20.163000 -26.578700 0.173700
H -19.905300 -22.348200 -4.895300
C -19.897400 -24.382500 -2.371700
C -19.544600 -22.844800 -4.197100
C -18.509800 -24.302100 -2.096800
C -18.212800 -22.779800 -3.951400
H -18.154800 -24.780000 -1.382600
C -17.685700 -23.528800 -2.870500
H -17.656800 -22.255600 -4.480900
H -16.774800 -23.495500 -2.685400
46
Fragment
H -25.150300 -23.538400 -7.217900
H -24.356200 -22.195500 -7.052700
C -24.303300 -23.152300 -6.983200
H -24.078500 -23.396000 -6.081900
O -23.271700 -23.650200 -7.892900
C -22.037200 -23.173400 -7.701300
O -21.713800 -22.375100 -6.847200
H -21.341100 -24.706300 -8.867600
H -21.282600 -23.320600 -9.599600
C -21.127000 -23.767200 -8.752900
N -20.159100 -25.106200 -6.675000
C -19.748300 -25.874700 -5.684900
N -19.707000 -23.636000 -8.391600
N -19.499400 -26.578700 -4.789100
H -19.241600 -22.348200 -9.858100
C -19.233800 -24.382500 -7.334600
C -18.880900 -22.844800 -9.159900
C -17.846100 -24.302100 -7.059600
C -17.549100 -22.779800 -8.914200
H -17.491100 -24.780000 -6.345500
C -17.022000 -23.528800 -7.833300
H -16.993100 -22.255600 -9.443700
H -16.111100 -23.495500 -7.648200
H -25.814000 -23.538400 -2.255100
H -25.019900 -22.195500 -2.089800
C -24.967000 -23.152300 -2.020400
H -24.742200 -23.396000 -1.119100
O -23.935400 -23.650200 -2.930000
C -22.700900 -23.173400 -2.738500
O -22.377500 -22.375100 -1.884400
H -22.004800 -24.706300 -3.904700
H -21.946300 -23.320600 -4.636800
C -21.790700 -23.767200 -3.790100
N -20.822700 -25.106200 -1.712200
C -20.412000 -25.874700 -0.722100
N -20.370700 -23.636000 -3.428800
N -20.163000 -26.578700 0.173700
H -19.905300 -22.348200 -4.895300
C -19.897400 -24.382500 -2.371700
C -19.544600 -22.844800 -4.197100
C -18.509800 -24.302100 -2.096800
C -18.212800 -22.779800 -3.951400
H -18.154800 -24.780000 -1.382600
C -17.685700 -23.528800 -2.870500
H -17.656800 -22.255600 -4.480900
H -16.774800 -23.495500 -2.685400
