23
Fragment
H -25.150300 -23.538400 -7.217900
H -24.356200 -22.195500 -7.052700
C -24.303300 -23.152300 -6.983200
H -24.078500 -23.396000 -6.081900
O -23.271700 -23.650200 -7.892900
C -22.037200 -23.173400 -7.701300
O -21.713800 -22.375100 -6.847200
H -21.341100 -24.706300 -8.867600
H -21.282600 -23.320600 -9.599600
C -21.127000 -23.767200 -8.752900
N -20.159100 -25.106200 -6.675000
C -19.748300 -25.874700 -5.684900
N -19.707000 -23.636000 -8.391600
N -19.499400 -26.578700 -4.789100
H -19.241600 -22.348200 -9.858100
C -19.233800 -24.382500 -7.334600
C -18.880900 -22.844800 -9.159900
C -17.846100 -24.302100 -7.059600
C -17.549100 -22.779800 -8.914200
H -17.491100 -24.780000 -6.345500
C -17.022000 -23.528800 -7.833300
H -16.993100 -22.255600 -9.443700
H -16.111100 -23.495500 -7.648200
3
Fragment
H -14.755900 -21.180200 -7.077000
O -14.725000 -20.858300 -7.864600
H -14.674300 -20.024300 -7.776700
26
Fragment
H -25.150300 -23.538400 -7.217900
H -24.356200 -22.195500 -7.052700
C -24.303300 -23.152300 -6.983200
H -24.078500 -23.396000 -6.081900
O -23.271700 -23.650200 -7.892900
C -22.037200 -23.173400 -7.701300
O -21.713800 -22.375100 -6.847200
H -21.341100 -24.706300 -8.867600
H -21.282600 -23.320600 -9.599600
C -21.127000 -23.767200 -8.752900
N -20.159100 -25.106200 -6.675000
C -19.748300 -25.874700 -5.684900
N -19.707000 -23.636000 -8.391600
N -19.499400 -26.578700 -4.789100
H -19.241600 -22.348200 -9.858100
C -19.233800 -24.382500 -7.334600
C -18.880900 -22.844800 -9.159900
C -17.846100 -24.302100 -7.059600
C -17.549100 -22.779800 -8.914200
H -17.491100 -24.780000 -6.345500
C -17.022000 -23.528800 -7.833300
H -16.993100 -22.255600 -9.443700
H -16.111100 -23.495500 -7.648200
H -14.755900 -21.180200 -7.077000
O -14.725000 -20.858300 -7.864600
H -14.674300 -20.024300 -7.776700
