23
Fragment
H -25.150300 -23.538400 -7.217900
H -24.356200 -22.195500 -7.052700
C -24.303300 -23.152300 -6.983200
H -24.078500 -23.396000 -6.081900
O -23.271700 -23.650200 -7.892900
C -22.037200 -23.173400 -7.701300
O -21.713800 -22.375100 -6.847200
H -21.341100 -24.706300 -8.867600
H -21.282600 -23.320600 -9.599600
C -21.127000 -23.767200 -8.752900
N -20.159100 -25.106200 -6.675000
C -19.748300 -25.874700 -5.684900
N -19.707000 -23.636000 -8.391600
N -19.499400 -26.578700 -4.789100
H -19.241600 -22.348200 -9.858100
C -19.233800 -24.382500 -7.334600
C -18.880900 -22.844800 -9.159900
C -17.846100 -24.302100 -7.059600
C -17.549100 -22.779800 -8.914200
H -17.491100 -24.780000 -6.345500
C -17.022000 -23.528800 -7.833300
H -16.993100 -22.255600 -9.443700
H -16.111100 -23.495500 -7.648200
23
Fragment
H -24.818400 -19.336600 -9.699300
H -24.024300 -20.679500 -9.534100
C -23.971500 -19.722700 -9.464600
H -23.746700 -19.479000 -8.563300
O -22.939900 -19.224800 -10.374300
C -21.705300 -19.701600 -10.182700
O -21.382000 -20.499900 -9.328600
H -21.009200 -18.168700 -11.349000
H -20.950800 -19.554400 -12.081000
C -20.795100 -19.107800 -11.234300
N -19.827200 -17.768800 -9.156400
C -19.416500 -17.000300 -8.166300
N -19.375200 -19.239000 -10.873000
N -19.167500 -16.296300 -7.270500
H -18.909800 -20.526800 -12.339600
C -18.901900 -18.492500 -9.816000
C -18.549100 -20.030200 -11.641300
C -17.514300 -18.572900 -9.541000
C -17.217200 -20.095200 -11.395600
H -17.159200 -18.095000 -8.826900
C -16.690200 -19.346200 -10.314700
H -16.661300 -20.619400 -11.925200
H -15.779300 -19.379500 -10.129600
46
Fragment
H -25.150300 -23.538400 -7.217900
H -24.356200 -22.195500 -7.052700
C -24.303300 -23.152300 -6.983200
H -24.078500 -23.396000 -6.081900
O -23.271700 -23.650200 -7.892900
C -22.037200 -23.173400 -7.701300
O -21.713800 -22.375100 -6.847200
H -21.341100 -24.706300 -8.867600
H -21.282600 -23.320600 -9.599600
C -21.127000 -23.767200 -8.752900
N -20.159100 -25.106200 -6.675000
C -19.748300 -25.874700 -5.684900
N -19.707000 -23.636000 -8.391600
N -19.499400 -26.578700 -4.789100
H -19.241600 -22.348200 -9.858100
C -19.233800 -24.382500 -7.334600
C -18.880900 -22.844800 -9.159900
C -17.846100 -24.302100 -7.059600
C -17.549100 -22.779800 -8.914200
H -17.491100 -24.780000 -6.345500
C -17.022000 -23.528800 -7.833300
H -16.993100 -22.255600 -9.443700
H -16.111100 -23.495500 -7.648200
H -24.818400 -19.336600 -9.699300
H -24.024300 -20.679500 -9.534100
C -23.971500 -19.722700 -9.464600
H -23.746700 -19.479000 -8.563300
O -22.939900 -19.224800 -10.374300
C -21.705300 -19.701600 -10.182700
O -21.382000 -20.499900 -9.328600
H -21.009200 -18.168700 -11.349000
H -20.950800 -19.554400 -12.081000
C -20.795100 -19.107800 -11.234300
N -19.827200 -17.768800 -9.156400
C -19.416500 -17.000300 -8.166300
N -19.375200 -19.239000 -10.873000
N -19.167500 -16.296300 -7.270500
H -18.909800 -20.526800 -12.339600
C -18.901900 -18.492500 -9.816000
C -18.549100 -20.030200 -11.641300
C -17.514300 -18.572900 -9.541000
C -17.217200 -20.095200 -11.395600
H -17.159200 -18.095000 -8.826900
C -16.690200 -19.346200 -10.314700
H -16.661300 -20.619400 -11.925200
H -15.779300 -19.379500 -10.129600
