23
Fragment
H -25.150300 -23.538400 -7.217900
H -24.356200 -22.195500 -7.052700
C -24.303300 -23.152300 -6.983200
H -24.078500 -23.396000 -6.081900
O -23.271700 -23.650200 -7.892900
C -22.037200 -23.173400 -7.701300
O -21.713800 -22.375100 -6.847200
H -21.341100 -24.706300 -8.867600
H -21.282600 -23.320600 -9.599600
C -21.127000 -23.767200 -8.752900
N -20.159100 -25.106200 -6.675000
C -19.748300 -25.874700 -5.684900
N -19.707000 -23.636000 -8.391600
N -19.499400 -26.578700 -4.789100
H -19.241600 -22.348200 -9.858100
C -19.233800 -24.382500 -7.334600
C -18.880900 -22.844800 -9.159900
C -17.846100 -24.302100 -7.059600
C -17.549100 -22.779800 -8.914200
H -17.491100 -24.780000 -6.345500
C -17.022000 -23.528800 -7.833300
H -16.993100 -22.255600 -9.443700
H -16.111100 -23.495500 -7.648200
23
Fragment
H -24.486600 -23.538400 -12.180700
H -23.692500 -22.195500 -12.015500
C -23.639700 -23.152300 -11.946000
H -23.414800 -23.396000 -11.044800
O -22.608000 -23.650200 -12.855700
C -21.373500 -23.173400 -12.664100
O -21.050100 -22.375100 -11.810000
H -20.677400 -24.706300 -13.830400
H -20.618900 -23.320600 -14.562400
C -20.463300 -23.767200 -13.715700
N -19.495400 -25.106200 -11.637800
C -19.084700 -25.874700 -10.647700
N -19.043300 -23.636000 -13.354500
N -18.835700 -26.578700 -9.751900
H -18.578000 -22.348200 -14.821000
C -18.570100 -24.382500 -12.297400
C -18.217200 -22.844800 -14.122700
C -17.182400 -24.302100 -12.022400
C -16.885400 -22.779800 -13.877000
H -16.827400 -24.780000 -11.308300
C -16.358400 -23.528800 -12.796100
H -16.329400 -22.255600 -14.406600
H -15.447400 -23.495500 -12.611000
46
Fragment
H -25.150300 -23.538400 -7.217900
H -24.356200 -22.195500 -7.052700
C -24.303300 -23.152300 -6.983200
H -24.078500 -23.396000 -6.081900
O -23.271700 -23.650200 -7.892900
C -22.037200 -23.173400 -7.701300
O -21.713800 -22.375100 -6.847200
H -21.341100 -24.706300 -8.867600
H -21.282600 -23.320600 -9.599600
C -21.127000 -23.767200 -8.752900
N -20.159100 -25.106200 -6.675000
C -19.748300 -25.874700 -5.684900
N -19.707000 -23.636000 -8.391600
N -19.499400 -26.578700 -4.789100
H -19.241600 -22.348200 -9.858100
C -19.233800 -24.382500 -7.334600
C -18.880900 -22.844800 -9.159900
C -17.846100 -24.302100 -7.059600
C -17.549100 -22.779800 -8.914200
H -17.491100 -24.780000 -6.345500
C -17.022000 -23.528800 -7.833300
H -16.993100 -22.255600 -9.443700
H -16.111100 -23.495500 -7.648200
H -24.486600 -23.538400 -12.180700
H -23.692500 -22.195500 -12.015500
C -23.639700 -23.152300 -11.946000
H -23.414800 -23.396000 -11.044800
O -22.608000 -23.650200 -12.855700
C -21.373500 -23.173400 -12.664100
O -21.050100 -22.375100 -11.810000
H -20.677400 -24.706300 -13.830400
H -20.618900 -23.320600 -14.562400
C -20.463300 -23.767200 -13.715700
N -19.495400 -25.106200 -11.637800
C -19.084700 -25.874700 -10.647700
N -19.043300 -23.636000 -13.354500
N -18.835700 -26.578700 -9.751900
H -18.578000 -22.348200 -14.821000
C -18.570100 -24.382500 -12.297400
C -18.217200 -22.844800 -14.122700
C -17.182400 -24.302100 -12.022400
C -16.885400 -22.779800 -13.877000
H -16.827400 -24.780000 -11.308300
C -16.358400 -23.528800 -12.796100
H -16.329400 -22.255600 -14.406600
H -15.447400 -23.495500 -12.611000
