23
Fragment
H -25.150300 -23.538400 -7.217900
H -24.356200 -22.195500 -7.052700
C -24.303300 -23.152300 -6.983200
H -24.078500 -23.396000 -6.081900
O -23.271700 -23.650200 -7.892900
C -22.037200 -23.173400 -7.701300
O -21.713800 -22.375100 -6.847200
H -21.341100 -24.706300 -8.867600
H -21.282600 -23.320600 -9.599600
C -21.127000 -23.767200 -8.752900
N -20.159100 -25.106200 -6.675000
C -19.748300 -25.874700 -5.684900
N -19.707000 -23.636000 -8.391600
N -19.499400 -26.578700 -4.789100
H -19.241600 -22.348200 -9.858100
C -19.233800 -24.382500 -7.334600
C -18.880900 -22.844800 -9.159900
C -17.846100 -24.302100 -7.059600
C -17.549100 -22.779800 -8.914200
H -17.491100 -24.780000 -6.345500
C -17.022000 -23.528800 -7.833300
H -16.993100 -22.255600 -9.443700
H -16.111100 -23.495500 -7.648200
23
Fragment
H -17.747800 -27.954500 -7.240300
H -16.865900 -29.194400 -5.444700
C -16.836900 -27.921200 -7.055100
H -16.367900 -26.670000 -8.543000
C -16.309900 -28.670200 -5.974200
C -16.012900 -27.147900 -7.828800
C -14.978000 -28.605200 -5.728600
C -14.625200 -27.067500 -7.553900
H -14.617300 -29.101800 -5.030300
N -14.359600 -24.871300 -10.099300
N -14.152000 -27.814000 -6.496800
C -14.110600 -25.575300 -9.203500
N -13.699900 -26.343800 -8.213500
C -12.732000 -27.682800 -6.135500
H -12.576300 -28.129400 -5.288900
H -12.517900 -26.743700 -6.020900
O -12.145200 -29.074900 -8.041300
C -11.821800 -28.276600 -7.187200
O -10.587300 -27.799800 -6.995600
H -9.780400 -28.054000 -8.806500
C -9.555600 -28.297700 -7.905300
H -9.502800 -29.254500 -7.835800
H -8.708700 -27.911600 -7.670500
46
Fragment
H -25.150300 -23.538400 -7.217900
H -24.356200 -22.195500 -7.052700
C -24.303300 -23.152300 -6.983200
H -24.078500 -23.396000 -6.081900
O -23.271700 -23.650200 -7.892900
C -22.037200 -23.173400 -7.701300
O -21.713800 -22.375100 -6.847200
H -21.341100 -24.706300 -8.867600
H -21.282600 -23.320600 -9.599600
C -21.127000 -23.767200 -8.752900
N -20.159100 -25.106200 -6.675000
C -19.748300 -25.874700 -5.684900
N -19.707000 -23.636000 -8.391600
N -19.499400 -26.578700 -4.789100
H -19.241600 -22.348200 -9.858100
C -19.233800 -24.382500 -7.334600
C -18.880900 -22.844800 -9.159900
C -17.846100 -24.302100 -7.059600
C -17.549100 -22.779800 -8.914200
H -17.491100 -24.780000 -6.345500
C -17.022000 -23.528800 -7.833300
H -16.993100 -22.255600 -9.443700
H -16.111100 -23.495500 -7.648200
H -17.747800 -27.954500 -7.240300
H -16.865900 -29.194400 -5.444700
C -16.836900 -27.921200 -7.055100
H -16.367900 -26.670000 -8.543000
C -16.309900 -28.670200 -5.974200
C -16.012900 -27.147900 -7.828800
C -14.978000 -28.605200 -5.728600
C -14.625200 -27.067500 -7.553900
H -14.617300 -29.101800 -5.030300
N -14.359600 -24.871300 -10.099300
N -14.152000 -27.814000 -6.496800
C -14.110600 -25.575300 -9.203500
N -13.699900 -26.343800 -8.213500
C -12.732000 -27.682800 -6.135500
H -12.576300 -28.129400 -5.288900
H -12.517900 -26.743700 -6.020900
O -12.145200 -29.074900 -8.041300
C -11.821800 -28.276600 -7.187200
O -10.587300 -27.799800 -6.995600
H -9.780400 -28.054000 -8.806500
C -9.555600 -28.297700 -7.905300
H -9.502800 -29.254500 -7.835800
H -8.708700 -27.911600 -7.670500
