19
Fragment
H -13.925900 -37.129700 -6.749500
N -13.414800 -39.050400 -7.285500
C -13.331300 -37.679100 -7.209100
C -12.379900 -39.430400 -8.015500
C -12.245300 -37.249800 -7.910100
H -12.183800 -40.315800 -8.221600
H -11.965700 -36.369000 -8.019700
N -11.642300 -38.377000 -8.424800
H -10.458300 -39.201700 -9.785700
C -10.432200 -38.418000 -9.213100
H -10.406100 -37.634300 -9.785700
N -9.222100 -38.459000 -8.424800
H -8.898700 -40.467000 -8.019700
H -8.680600 -36.520200 -8.221600
C -8.619100 -39.586200 -7.910100
C -8.484500 -37.405600 -8.015500
C -7.533100 -39.156900 -7.209100
N -7.449600 -37.785600 -7.285500
H -6.938500 -39.706300 -6.749500
17
Fragment
H -18.097800 -43.688900 -4.109100
H -17.523000 -45.899300 -4.537300
C -17.346700 -43.878500 -4.622500
C -17.010700 -45.200100 -4.874800
H -16.818800 -41.952500 -4.946600
C -16.580900 -42.833800 -5.122000
O -16.080200 -47.751000 -5.351600
C -15.896600 -45.441300 -5.640400
N -15.521000 -46.846700 -5.929700
C -15.452200 -43.119600 -5.889400
C -15.107900 -44.433700 -6.157600
O -15.031400 -40.815000 -6.243700
O -14.640500 -47.050300 -6.745700
C -14.581100 -42.027800 -6.488000
H -14.526800 -40.262100 -6.580700
H -14.361000 -44.634000 -6.674800
O -13.565000 -42.282600 -7.108400
36
Fragment
H -13.925900 -37.129700 -6.749500
N -13.414800 -39.050400 -7.285500
C -13.331300 -37.679100 -7.209100
C -12.379900 -39.430400 -8.015500
C -12.245300 -37.249800 -7.910100
H -12.183800 -40.315800 -8.221600
H -11.965700 -36.369000 -8.019700
N -11.642300 -38.377000 -8.424800
H -10.458300 -39.201700 -9.785700
C -10.432200 -38.418000 -9.213100
H -10.406100 -37.634300 -9.785700
N -9.222100 -38.459000 -8.424800
H -8.898700 -40.467000 -8.019700
H -8.680600 -36.520200 -8.221600
C -8.619100 -39.586200 -7.910100
C -8.484500 -37.405600 -8.015500
C -7.533100 -39.156900 -7.209100
N -7.449600 -37.785600 -7.285500
H -6.938500 -39.706300 -6.749500
H -18.097800 -43.688900 -4.109100
H -17.523000 -45.899300 -4.537300
C -17.346700 -43.878500 -4.622500
C -17.010700 -45.200100 -4.874800
H -16.818800 -41.952500 -4.946600
C -16.580900 -42.833800 -5.122000
O -16.080200 -47.751000 -5.351600
C -15.896600 -45.441300 -5.640400
N -15.521000 -46.846700 -5.929700
C -15.452200 -43.119600 -5.889400
C -15.107900 -44.433700 -6.157600
O -15.031400 -40.815000 -6.243700
O -14.640500 -47.050300 -6.745700
C -14.581100 -42.027800 -6.488000
H -14.526800 -40.262100 -6.580700
H -14.361000 -44.634000 -6.674800
O -13.565000 -42.282600 -7.108400
