19
Fragment
H -13.925900 -37.129700 -6.749500
N -13.414800 -39.050400 -7.285500
C -13.331300 -37.679100 -7.209100
C -12.379900 -39.430400 -8.015500
C -12.245300 -37.249800 -7.910100
H -12.183800 -40.315800 -8.221600
H -11.965700 -36.369000 -8.019700
N -11.642300 -38.377000 -8.424800
H -10.458300 -39.201700 -9.785700
C -10.432200 -38.418000 -9.213100
H -10.406100 -37.634300 -9.785700
N -9.222100 -38.459000 -8.424800
H -8.898700 -40.467000 -8.019700
H -8.680600 -36.520200 -8.221600
C -8.619100 -39.586200 -7.910100
C -8.484500 -37.405600 -8.015500
C -7.533100 -39.156900 -7.209100
N -7.449600 -37.785600 -7.285500
H -6.938500 -39.706300 -6.749500
17
Fragment
O -7.299400 -34.553400 -7.108400
H -6.503400 -32.202000 -6.674800
H -6.337600 -36.573900 -6.580700
C -6.283300 -34.808200 -6.488000
O -6.223900 -29.785700 -6.745700
O -5.833000 -36.021000 -6.243700
C -5.756500 -32.402300 -6.157600
C -5.412200 -33.716400 -5.889400
N -5.343400 -29.989300 -5.929700
C -4.967800 -31.394700 -5.640400
O -4.784200 -29.085000 -5.351600
C -4.283500 -34.002200 -5.122000
H -4.045600 -34.883500 -4.946600
C -3.853700 -31.635900 -4.874800
C -3.517700 -32.957500 -4.622500
H -3.341400 -30.936700 -4.537300
H -2.766600 -33.147100 -4.109100
36
Fragment
H -13.925900 -37.129700 -6.749500
N -13.414800 -39.050400 -7.285500
C -13.331300 -37.679100 -7.209100
C -12.379900 -39.430400 -8.015500
C -12.245300 -37.249800 -7.910100
H -12.183800 -40.315800 -8.221600
H -11.965700 -36.369000 -8.019700
N -11.642300 -38.377000 -8.424800
H -10.458300 -39.201700 -9.785700
C -10.432200 -38.418000 -9.213100
H -10.406100 -37.634300 -9.785700
N -9.222100 -38.459000 -8.424800
H -8.898700 -40.467000 -8.019700
H -8.680600 -36.520200 -8.221600
C -8.619100 -39.586200 -7.910100
C -8.484500 -37.405600 -8.015500
C -7.533100 -39.156900 -7.209100
N -7.449600 -37.785600 -7.285500
H -6.938500 -39.706300 -6.749500
O -7.299400 -34.553400 -7.108400
H -6.503400 -32.202000 -6.674800
H -6.337600 -36.573900 -6.580700
C -6.283300 -34.808200 -6.488000
O -6.223900 -29.785700 -6.745700
O -5.833000 -36.021000 -6.243700
C -5.756500 -32.402300 -6.157600
C -5.412200 -33.716400 -5.889400
N -5.343400 -29.989300 -5.929700
C -4.967800 -31.394700 -5.640400
O -4.784200 -29.085000 -5.351600
C -4.283500 -34.002200 -5.122000
H -4.045600 -34.883500 -4.946600
C -3.853700 -31.635900 -4.874800
C -3.517700 -32.957500 -4.622500
H -3.341400 -30.936700 -4.537300
H -2.766600 -33.147100 -4.109100
