19
Fragment
H -13.925900 -37.129700 -6.749500
N -13.414800 -39.050400 -7.285500
C -13.331300 -37.679100 -7.209100
C -12.379900 -39.430400 -8.015500
C -12.245300 -37.249800 -7.910100
H -12.183800 -40.315800 -8.221600
H -11.965700 -36.369000 -8.019700
N -11.642300 -38.377000 -8.424800
H -10.458300 -39.201700 -9.785700
C -10.432200 -38.418000 -9.213100
H -10.406100 -37.634300 -9.785700
N -9.222100 -38.459000 -8.424800
H -8.898700 -40.467000 -8.019700
H -8.680600 -36.520200 -8.221600
C -8.619100 -39.586200 -7.910100
C -8.484500 -37.405600 -8.015500
C -7.533100 -39.156900 -7.209100
N -7.449600 -37.785600 -7.285500
H -6.938500 -39.706300 -6.749500
17
Fragment
O -12.515500 -29.476600 -7.108400
H -11.719500 -31.828000 -6.674800
H -11.553700 -27.456100 -6.580700
C -11.499400 -29.221800 -6.488000
O -11.440000 -34.244300 -6.745700
O -11.049100 -28.009000 -6.243700
C -10.972600 -31.627700 -6.157600
C -10.628300 -30.313600 -5.889400
N -10.559500 -34.040700 -5.929700
C -10.183900 -32.635300 -5.640400
O -10.000300 -34.945000 -5.351600
C -9.499600 -30.027800 -5.122000
H -9.261700 -29.146500 -4.946600
C -9.069800 -32.394100 -4.874800
C -8.733800 -31.072500 -4.622500
H -8.557500 -33.093300 -4.537300
H -7.982700 -30.882900 -4.109100
36
Fragment
H -13.925900 -37.129700 -6.749500
N -13.414800 -39.050400 -7.285500
C -13.331300 -37.679100 -7.209100
C -12.379900 -39.430400 -8.015500
C -12.245300 -37.249800 -7.910100
H -12.183800 -40.315800 -8.221600
H -11.965700 -36.369000 -8.019700
N -11.642300 -38.377000 -8.424800
H -10.458300 -39.201700 -9.785700
C -10.432200 -38.418000 -9.213100
H -10.406100 -37.634300 -9.785700
N -9.222100 -38.459000 -8.424800
H -8.898700 -40.467000 -8.019700
H -8.680600 -36.520200 -8.221600
C -8.619100 -39.586200 -7.910100
C -8.484500 -37.405600 -8.015500
C -7.533100 -39.156900 -7.209100
N -7.449600 -37.785600 -7.285500
H -6.938500 -39.706300 -6.749500
O -12.515500 -29.476600 -7.108400
H -11.719500 -31.828000 -6.674800
H -11.553700 -27.456100 -6.580700
C -11.499400 -29.221800 -6.488000
O -11.440000 -34.244300 -6.745700
O -11.049100 -28.009000 -6.243700
C -10.972600 -31.627700 -6.157600
C -10.628300 -30.313600 -5.889400
N -10.559500 -34.040700 -5.929700
C -10.183900 -32.635300 -5.640400
O -10.000300 -34.945000 -5.351600
C -9.499600 -30.027800 -5.122000
H -9.261700 -29.146500 -4.946600
C -9.069800 -32.394100 -4.874800
C -8.733800 -31.072500 -4.622500
H -8.557500 -33.093300 -4.537300
H -7.982700 -30.882900 -4.109100
