19
Fragment
H -13.925900 -37.129700 -6.749500
N -13.414800 -39.050400 -7.285500
C -13.331300 -37.679100 -7.209100
C -12.379900 -39.430400 -8.015500
C -12.245300 -37.249800 -7.910100
H -12.183800 -40.315800 -8.221600
H -11.965700 -36.369000 -8.019700
N -11.642300 -38.377000 -8.424800
H -10.458300 -39.201700 -9.785700
C -10.432200 -38.418000 -9.213100
H -10.406100 -37.634300 -9.785700
N -9.222100 -38.459000 -8.424800
H -8.898700 -40.467000 -8.019700
H -8.680600 -36.520200 -8.221600
C -8.619100 -39.586200 -7.910100
C -8.484500 -37.405600 -8.015500
C -7.533100 -39.156900 -7.209100
N -7.449600 -37.785600 -7.285500
H -6.938500 -39.706300 -6.749500
17
Fragment
H -12.881700 -45.953100 -4.109100
H -12.306900 -43.742700 -4.537300
C -12.130600 -45.763500 -4.622500
C -11.794600 -44.441900 -4.874800
H -11.602700 -47.689500 -4.946600
C -11.364800 -46.808200 -5.122000
O -10.864100 -41.891000 -5.351600
C -10.680500 -44.200700 -5.640400
N -10.304900 -42.795300 -5.929700
C -10.236100 -46.522400 -5.889400
C -9.891800 -45.208300 -6.157600
O -9.815300 -48.827000 -6.243700
O -9.424400 -42.591700 -6.745700
C -9.365000 -47.614200 -6.488000
H -9.310700 -49.379900 -6.580700
H -9.144900 -45.008000 -6.674800
O -8.348900 -47.359400 -7.108400
36
Fragment
H -13.925900 -37.129700 -6.749500
N -13.414800 -39.050400 -7.285500
C -13.331300 -37.679100 -7.209100
C -12.379900 -39.430400 -8.015500
C -12.245300 -37.249800 -7.910100
H -12.183800 -40.315800 -8.221600
H -11.965700 -36.369000 -8.019700
N -11.642300 -38.377000 -8.424800
H -10.458300 -39.201700 -9.785700
C -10.432200 -38.418000 -9.213100
H -10.406100 -37.634300 -9.785700
N -9.222100 -38.459000 -8.424800
H -8.898700 -40.467000 -8.019700
H -8.680600 -36.520200 -8.221600
C -8.619100 -39.586200 -7.910100
C -8.484500 -37.405600 -8.015500
C -7.533100 -39.156900 -7.209100
N -7.449600 -37.785600 -7.285500
H -6.938500 -39.706300 -6.749500
H -12.881700 -45.953100 -4.109100
H -12.306900 -43.742700 -4.537300
C -12.130600 -45.763500 -4.622500
C -11.794600 -44.441900 -4.874800
H -11.602700 -47.689500 -4.946600
C -11.364800 -46.808200 -5.122000
O -10.864100 -41.891000 -5.351600
C -10.680500 -44.200700 -5.640400
N -10.304900 -42.795300 -5.929700
C -10.236100 -46.522400 -5.889400
C -9.891800 -45.208300 -6.157600
O -9.815300 -48.827000 -6.243700
O -9.424400 -42.591700 -6.745700
C -9.365000 -47.614200 -6.488000
H -9.310700 -49.379900 -6.580700
H -9.144900 -45.008000 -6.674800
O -8.348900 -47.359400 -7.108400
