19
Fragment
H -13.925900 -37.129700 -6.749500
N -13.414800 -39.050400 -7.285500
C -13.331300 -37.679100 -7.209100
C -12.379900 -39.430400 -8.015500
C -12.245300 -37.249800 -7.910100
H -12.183800 -40.315800 -8.221600
H -11.965700 -36.369000 -8.019700
N -11.642300 -38.377000 -8.424800
H -10.458300 -39.201700 -9.785700
C -10.432200 -38.418000 -9.213100
H -10.406100 -37.634300 -9.785700
N -9.222100 -38.459000 -8.424800
H -8.898700 -40.467000 -8.019700
H -8.680600 -36.520200 -8.221600
C -8.619100 -39.586200 -7.910100
C -8.484500 -37.405600 -8.015500
C -7.533100 -39.156900 -7.209100
N -7.449600 -37.785600 -7.285500
H -6.938500 -39.706300 -6.749500
19
Fragment
H -13.925900 -37.129700 -2.551800
N -13.414800 -39.050400 -3.087800
C -13.331300 -37.679100 -3.011400
C -12.379900 -39.430400 -3.817800
C -12.245300 -37.249800 -3.712400
H -12.183800 -40.315800 -4.023900
H -11.965700 -36.369000 -3.822000
N -11.642300 -38.377000 -4.227100
H -10.458300 -39.201700 -5.588000
C -10.432200 -38.418000 -5.015400
H -10.406100 -37.634300 -5.588000
N -9.222100 -38.459000 -4.227100
H -8.898700 -40.467000 -3.822000
H -8.680600 -36.520200 -4.023900
C -8.619100 -39.586200 -3.712400
C -8.484500 -37.405600 -3.817800
C -7.533100 -39.156900 -3.011400
N -7.449600 -37.785600 -3.087800
H -6.938500 -39.706300 -2.551800
38
Fragment
H -13.925900 -37.129700 -6.749500
N -13.414800 -39.050400 -7.285500
C -13.331300 -37.679100 -7.209100
C -12.379900 -39.430400 -8.015500
C -12.245300 -37.249800 -7.910100
H -12.183800 -40.315800 -8.221600
H -11.965700 -36.369000 -8.019700
N -11.642300 -38.377000 -8.424800
H -10.458300 -39.201700 -9.785700
C -10.432200 -38.418000 -9.213100
H -10.406100 -37.634300 -9.785700
N -9.222100 -38.459000 -8.424800
H -8.898700 -40.467000 -8.019700
H -8.680600 -36.520200 -8.221600
C -8.619100 -39.586200 -7.910100
C -8.484500 -37.405600 -8.015500
C -7.533100 -39.156900 -7.209100
N -7.449600 -37.785600 -7.285500
H -6.938500 -39.706300 -6.749500
H -13.925900 -37.129700 -2.551800
N -13.414800 -39.050400 -3.087800
C -13.331300 -37.679100 -3.011400
C -12.379900 -39.430400 -3.817800
C -12.245300 -37.249800 -3.712400
H -12.183800 -40.315800 -4.023900
H -11.965700 -36.369000 -3.822000
N -11.642300 -38.377000 -4.227100
H -10.458300 -39.201700 -5.588000
C -10.432200 -38.418000 -5.015400
H -10.406100 -37.634300 -5.588000
N -9.222100 -38.459000 -4.227100
H -8.898700 -40.467000 -3.822000
H -8.680600 -36.520200 -4.023900
C -8.619100 -39.586200 -3.712400
C -8.484500 -37.405600 -3.817800
C -7.533100 -39.156900 -3.011400
N -7.449600 -37.785600 -3.087800
H -6.938500 -39.706300 -2.551800
