19
Fragment
H -13.925900 -37.129700 -6.749500
N -13.414800 -39.050400 -7.285500
C -13.331300 -37.679100 -7.209100
C -12.379900 -39.430400 -8.015500
C -12.245300 -37.249800 -7.910100
H -12.183800 -40.315800 -8.221600
H -11.965700 -36.369000 -8.019700
N -11.642300 -38.377000 -8.424800
H -10.458300 -39.201700 -9.785700
C -10.432200 -38.418000 -9.213100
H -10.406100 -37.634300 -9.785700
N -9.222100 -38.459000 -8.424800
H -8.898700 -40.467000 -8.019700
H -8.680600 -36.520200 -8.221600
C -8.619100 -39.586200 -7.910100
C -8.484500 -37.405600 -8.015500
C -7.533100 -39.156900 -7.209100
N -7.449600 -37.785600 -7.285500
H -6.938500 -39.706300 -6.749500
17
Fragment
H -12.881700 -45.953100 -8.306800
H -12.306900 -43.742700 -8.735000
C -12.130600 -45.763500 -8.820200
C -11.794600 -44.441900 -9.072500
H -11.602700 -47.689500 -9.144300
C -11.364800 -46.808200 -9.319700
O -10.864100 -41.891000 -9.549300
C -10.680500 -44.200700 -9.838100
N -10.304900 -42.795300 -10.127400
C -10.236100 -46.522400 -10.087100
C -9.891800 -45.208300 -10.355300
O -9.815300 -48.827000 -10.441400
O -9.424400 -42.591700 -10.943400
C -9.365000 -47.614200 -10.685700
H -9.310700 -49.379900 -10.778400
H -9.144900 -45.008000 -10.872500
O -8.348900 -47.359400 -11.306100
36
Fragment
H -13.925900 -37.129700 -6.749500
N -13.414800 -39.050400 -7.285500
C -13.331300 -37.679100 -7.209100
C -12.379900 -39.430400 -8.015500
C -12.245300 -37.249800 -7.910100
H -12.183800 -40.315800 -8.221600
H -11.965700 -36.369000 -8.019700
N -11.642300 -38.377000 -8.424800
H -10.458300 -39.201700 -9.785700
C -10.432200 -38.418000 -9.213100
H -10.406100 -37.634300 -9.785700
N -9.222100 -38.459000 -8.424800
H -8.898700 -40.467000 -8.019700
H -8.680600 -36.520200 -8.221600
C -8.619100 -39.586200 -7.910100
C -8.484500 -37.405600 -8.015500
C -7.533100 -39.156900 -7.209100
N -7.449600 -37.785600 -7.285500
H -6.938500 -39.706300 -6.749500
H -12.881700 -45.953100 -8.306800
H -12.306900 -43.742700 -8.735000
C -12.130600 -45.763500 -8.820200
C -11.794600 -44.441900 -9.072500
H -11.602700 -47.689500 -9.144300
C -11.364800 -46.808200 -9.319700
O -10.864100 -41.891000 -9.549300
C -10.680500 -44.200700 -9.838100
N -10.304900 -42.795300 -10.127400
C -10.236100 -46.522400 -10.087100
C -9.891800 -45.208300 -10.355300
O -9.815300 -48.827000 -10.441400
O -9.424400 -42.591700 -10.943400
C -9.365000 -47.614200 -10.685700
H -9.310700 -49.379900 -10.778400
H -9.144900 -45.008000 -10.872500
O -8.348900 -47.359400 -11.306100
