20
Fragment
N -23.654900 -15.507800 -25.105800
C -22.728600 -15.392300 -24.279700
N -22.428200 -15.860500 -20.975200
C -22.146300 -15.587900 -22.033700
C -21.801500 -15.253700 -23.327500
H -21.037900 -14.357000 -25.561400
C -20.758200 -14.260400 -23.565600
C -20.447000 -14.075600 -24.895800
H -20.084600 -13.967300 -21.677300
C -19.874700 -13.844600 -22.574200
C -19.247000 -13.467300 -25.257000
H -19.036100 -13.345400 -26.154400
C -18.673100 -13.236300 -22.935500
C -18.361900 -13.051500 -24.265700
H -18.082700 -12.955600 -22.270200
C -17.225900 -12.227600 -24.570900
C -16.910200 -11.942700 -25.973900
N -16.499500 -11.449900 -26.870100
C -16.256000 -11.771800 -23.627200
N -15.496600 -11.412200 -22.886500
20
Fragment
N -25.335700 -7.592200 -18.104800
C -24.409400 -7.707700 -17.278600
N -24.109000 -7.239500 -13.974100
C -23.827100 -7.512100 -15.032700
C -23.482300 -7.846300 -16.326500
H -22.718800 -8.743000 -18.560400
C -22.439000 -8.839600 -16.564500
C -22.127800 -9.024400 -17.894700
H -21.765400 -9.132700 -14.676200
C -21.555600 -9.255400 -15.573200
C -20.927800 -9.632700 -18.256000
H -20.716900 -9.754600 -19.153400
C -20.353900 -9.863700 -15.934400
C -20.042700 -10.048500 -17.264600
H -19.763500 -10.144400 -15.269200
C -18.906700 -10.872400 -17.569900
C -18.591000 -11.157300 -18.972900
N -18.180300 -11.650100 -19.869000
C -17.936800 -11.328200 -16.626100
N -17.177400 -11.687800 -15.885400
40
Fragment
N -23.654900 -15.507800 -25.105800
C -22.728600 -15.392300 -24.279700
N -22.428200 -15.860500 -20.975200
C -22.146300 -15.587900 -22.033700
C -21.801500 -15.253700 -23.327500
H -21.037900 -14.357000 -25.561400
C -20.758200 -14.260400 -23.565600
C -20.447000 -14.075600 -24.895800
H -20.084600 -13.967300 -21.677300
C -19.874700 -13.844600 -22.574200
C -19.247000 -13.467300 -25.257000
H -19.036100 -13.345400 -26.154400
C -18.673100 -13.236300 -22.935500
C -18.361900 -13.051500 -24.265700
H -18.082700 -12.955600 -22.270200
C -17.225900 -12.227600 -24.570900
C -16.910200 -11.942700 -25.973900
N -16.499500 -11.449900 -26.870100
C -16.256000 -11.771800 -23.627200
N -15.496600 -11.412200 -22.886500
N -25.335700 -7.592200 -18.104800
C -24.409400 -7.707700 -17.278600
N -24.109000 -7.239500 -13.974100
C -23.827100 -7.512100 -15.032700
C -23.482300 -7.846300 -16.326500
H -22.718800 -8.743000 -18.560400
C -22.439000 -8.839600 -16.564500
C -22.127800 -9.024400 -17.894700
H -21.765400 -9.132700 -14.676200
C -21.555600 -9.255400 -15.573200
C -20.927800 -9.632700 -18.256000
H -20.716900 -9.754600 -19.153400
C -20.353900 -9.863700 -15.934400
C -20.042700 -10.048500 -17.264600
H -19.763500 -10.144400 -15.269200
C -18.906700 -10.872400 -17.569900
C -18.591000 -11.157300 -18.972900
N -18.180300 -11.650100 -19.869000
C -17.936800 -11.328200 -16.626100
N -17.177400 -11.687800 -15.885400
