20
Fragment
N -23.654900 -15.507800 -25.105800
C -22.728600 -15.392300 -24.279700
N -22.428200 -15.860500 -20.975200
C -22.146300 -15.587900 -22.033700
C -21.801500 -15.253700 -23.327500
H -21.037900 -14.357000 -25.561400
C -20.758200 -14.260400 -23.565600
C -20.447000 -14.075600 -24.895800
H -20.084600 -13.967300 -21.677300
C -19.874700 -13.844600 -22.574200
C -19.247000 -13.467300 -25.257000
H -19.036100 -13.345400 -26.154400
C -18.673100 -13.236300 -22.935500
C -18.361900 -13.051500 -24.265700
H -18.082700 -12.955600 -22.270200
C -17.225900 -12.227600 -24.570900
C -16.910200 -11.942700 -25.973900
N -16.499500 -11.449900 -26.870100
C -16.256000 -11.771800 -23.627200
N -15.496600 -11.412200 -22.886500
20
Fragment
N -16.477500 -7.800100 -26.758100
C -15.627300 -7.261100 -27.108100
H -14.544500 -6.195500 -25.189300
C -14.290500 -7.014700 -27.584200
C -13.994200 -7.412800 -28.927000
N -13.762600 -7.721600 -29.980000
C -13.723400 -5.929000 -25.539900
C -13.405800 -6.198500 -26.856100
H -13.030800 -5.069800 -23.838600
C -12.817200 -5.251400 -24.725000
C -12.178900 -5.790400 -27.377000
H -11.966100 -5.974000 -28.263400
C -11.590300 -4.851000 -25.245800
C -11.274300 -5.120500 -26.562000
N -11.194300 -3.503500 -22.081400
C -10.964700 -3.888500 -23.173500
C -10.761000 -4.008600 -24.517700
H -10.452500 -4.848300 -26.912800
C -9.393600 -3.863900 -24.937800
N -8.308900 -3.750700 -25.273800
40
Fragment
N -23.654900 -15.507800 -25.105800
C -22.728600 -15.392300 -24.279700
N -22.428200 -15.860500 -20.975200
C -22.146300 -15.587900 -22.033700
C -21.801500 -15.253700 -23.327500
H -21.037900 -14.357000 -25.561400
C -20.758200 -14.260400 -23.565600
C -20.447000 -14.075600 -24.895800
H -20.084600 -13.967300 -21.677300
C -19.874700 -13.844600 -22.574200
C -19.247000 -13.467300 -25.257000
H -19.036100 -13.345400 -26.154400
C -18.673100 -13.236300 -22.935500
C -18.361900 -13.051500 -24.265700
H -18.082700 -12.955600 -22.270200
C -17.225900 -12.227600 -24.570900
C -16.910200 -11.942700 -25.973900
N -16.499500 -11.449900 -26.870100
C -16.256000 -11.771800 -23.627200
N -15.496600 -11.412200 -22.886500
N -16.477500 -7.800100 -26.758100
C -15.627300 -7.261100 -27.108100
H -14.544500 -6.195500 -25.189300
C -14.290500 -7.014700 -27.584200
C -13.994200 -7.412800 -28.927000
N -13.762600 -7.721600 -29.980000
C -13.723400 -5.929000 -25.539900
C -13.405800 -6.198500 -26.856100
H -13.030800 -5.069800 -23.838600
C -12.817200 -5.251400 -24.725000
C -12.178900 -5.790400 -27.377000
H -11.966100 -5.974000 -28.263400
C -11.590300 -4.851000 -25.245800
C -11.274300 -5.120500 -26.562000
N -11.194300 -3.503500 -22.081400
C -10.964700 -3.888500 -23.173500
C -10.761000 -4.008600 -24.517700
H -10.452500 -4.848300 -26.912800
C -9.393600 -3.863900 -24.937800
N -8.308900 -3.750700 -25.273800
