20
Fragment
N -23.654900 -15.507800 -25.105800
C -22.728600 -15.392300 -24.279700
N -22.428200 -15.860500 -20.975200
C -22.146300 -15.587900 -22.033700
C -21.801500 -15.253700 -23.327500
H -21.037900 -14.357000 -25.561400
C -20.758200 -14.260400 -23.565600
C -20.447000 -14.075600 -24.895800
H -20.084600 -13.967300 -21.677300
C -19.874700 -13.844600 -22.574200
C -19.247000 -13.467300 -25.257000
H -19.036100 -13.345400 -26.154400
C -18.673100 -13.236300 -22.935500
C -18.361900 -13.051500 -24.265700
H -18.082700 -12.955600 -22.270200
C -17.225900 -12.227600 -24.570900
C -16.910200 -11.942700 -25.973900
N -16.499500 -11.449900 -26.870100
C -16.256000 -11.771800 -23.627200
N -15.496600 -11.412200 -22.886500
20
Fragment
H -32.381500 -13.259700 -18.280100
H -31.688700 -12.556500 -20.379500
C -31.535300 -13.490400 -18.590600
C -31.119400 -13.066900 -19.848000
H -30.962100 -14.529200 -16.954900
C -30.684400 -14.245000 -17.796700
C -29.853700 -13.405700 -20.312900
H -29.576300 -13.122800 -21.154000
C -29.419100 -14.586900 -18.260200
C -29.002800 -14.165700 -19.519000
H -28.921200 -15.516300 -16.782200
O -28.561000 -15.338400 -17.502700
O -28.034100 -15.122800 -22.141600
N -27.705200 -14.522200 -19.974000
C -27.310800 -15.033500 -21.141800
H -27.073900 -14.389600 -19.406000
C -25.893400 -15.515500 -21.227200
H -25.756700 -16.213400 -20.577500
H -25.724400 -15.860500 -22.104700
H -25.296300 -14.789100 -21.043400
40
Fragment
N -23.654900 -15.507800 -25.105800
C -22.728600 -15.392300 -24.279700
N -22.428200 -15.860500 -20.975200
C -22.146300 -15.587900 -22.033700
C -21.801500 -15.253700 -23.327500
H -21.037900 -14.357000 -25.561400
C -20.758200 -14.260400 -23.565600
C -20.447000 -14.075600 -24.895800
H -20.084600 -13.967300 -21.677300
C -19.874700 -13.844600 -22.574200
C -19.247000 -13.467300 -25.257000
H -19.036100 -13.345400 -26.154400
C -18.673100 -13.236300 -22.935500
C -18.361900 -13.051500 -24.265700
H -18.082700 -12.955600 -22.270200
C -17.225900 -12.227600 -24.570900
C -16.910200 -11.942700 -25.973900
N -16.499500 -11.449900 -26.870100
C -16.256000 -11.771800 -23.627200
N -15.496600 -11.412200 -22.886500
H -32.381500 -13.259700 -18.280100
H -31.688700 -12.556500 -20.379500
C -31.535300 -13.490400 -18.590600
C -31.119400 -13.066900 -19.848000
H -30.962100 -14.529200 -16.954900
C -30.684400 -14.245000 -17.796700
C -29.853700 -13.405700 -20.312900
H -29.576300 -13.122800 -21.154000
C -29.419100 -14.586900 -18.260200
C -29.002800 -14.165700 -19.519000
H -28.921200 -15.516300 -16.782200
O -28.561000 -15.338400 -17.502700
O -28.034100 -15.122800 -22.141600
N -27.705200 -14.522200 -19.974000
C -27.310800 -15.033500 -21.141800
H -27.073900 -14.389600 -19.406000
C -25.893400 -15.515500 -21.227200
H -25.756700 -16.213400 -20.577500
H -25.724400 -15.860500 -22.104700
H -25.296300 -14.789100 -21.043400
