20
Fragment
N -23.654900 -15.507800 -25.105800
C -22.728600 -15.392300 -24.279700
N -22.428200 -15.860500 -20.975200
C -22.146300 -15.587900 -22.033700
C -21.801500 -15.253700 -23.327500
H -21.037900 -14.357000 -25.561400
C -20.758200 -14.260400 -23.565600
C -20.447000 -14.075600 -24.895800
H -20.084600 -13.967300 -21.677300
C -19.874700 -13.844600 -22.574200
C -19.247000 -13.467300 -25.257000
H -19.036100 -13.345400 -26.154400
C -18.673100 -13.236300 -22.935500
C -18.361900 -13.051500 -24.265700
H -18.082700 -12.955600 -22.270200
C -17.225900 -12.227600 -24.570900
C -16.910200 -11.942700 -25.973900
N -16.499500 -11.449900 -26.870100
C -16.256000 -11.771800 -23.627200
N -15.496600 -11.412200 -22.886500
20
Fragment
H -14.400700 -9.840300 -25.281100
H -13.707900 -10.543500 -27.380600
C -13.554500 -9.609600 -25.591700
C -13.138600 -10.033100 -26.849100
H -12.981300 -8.570800 -23.956000
C -12.703600 -8.855000 -24.797800
C -11.872900 -9.694300 -27.313900
H -11.595500 -9.977200 -28.155100
C -11.438300 -8.513100 -25.261200
C -11.021900 -8.934300 -26.520000
H -10.940400 -7.583700 -23.783300
O -10.580200 -7.761600 -24.503700
O -10.053300 -7.977200 -29.142600
N -9.724400 -8.577800 -26.975100
C -9.330000 -8.066500 -28.142900
H -9.093100 -8.710400 -26.407000
C -7.912500 -7.584500 -28.228300
H -7.775900 -6.886600 -27.578600
H -7.743600 -7.239500 -29.105800
H -7.315400 -8.310900 -28.044400
40
Fragment
N -23.654900 -15.507800 -25.105800
C -22.728600 -15.392300 -24.279700
N -22.428200 -15.860500 -20.975200
C -22.146300 -15.587900 -22.033700
C -21.801500 -15.253700 -23.327500
H -21.037900 -14.357000 -25.561400
C -20.758200 -14.260400 -23.565600
C -20.447000 -14.075600 -24.895800
H -20.084600 -13.967300 -21.677300
C -19.874700 -13.844600 -22.574200
C -19.247000 -13.467300 -25.257000
H -19.036100 -13.345400 -26.154400
C -18.673100 -13.236300 -22.935500
C -18.361900 -13.051500 -24.265700
H -18.082700 -12.955600 -22.270200
C -17.225900 -12.227600 -24.570900
C -16.910200 -11.942700 -25.973900
N -16.499500 -11.449900 -26.870100
C -16.256000 -11.771800 -23.627200
N -15.496600 -11.412200 -22.886500
H -14.400700 -9.840300 -25.281100
H -13.707900 -10.543500 -27.380600
C -13.554500 -9.609600 -25.591700
C -13.138600 -10.033100 -26.849100
H -12.981300 -8.570800 -23.956000
C -12.703600 -8.855000 -24.797800
C -11.872900 -9.694300 -27.313900
H -11.595500 -9.977200 -28.155100
C -11.438300 -8.513100 -25.261200
C -11.021900 -8.934300 -26.520000
H -10.940400 -7.583700 -23.783300
O -10.580200 -7.761600 -24.503700
O -10.053300 -7.977200 -29.142600
N -9.724400 -8.577800 -26.975100
C -9.330000 -8.066500 -28.142900
H -9.093100 -8.710400 -26.407000
C -7.912500 -7.584500 -28.228300
H -7.775900 -6.886600 -27.578600
H -7.743600 -7.239500 -29.105800
H -7.315400 -8.310900 -28.044400
