16
Fragment
N -4.415500 -5.829600 -25.234200
H -4.191300 -7.179500 -28.429900
C -4.064400 -6.733600 -25.846000
C -3.785800 -7.895400 -27.996700
N -3.733400 -9.052100 -31.249300
C -3.623700 -7.870700 -26.616300
C -3.557500 -9.059200 -30.107500
C -3.337700 -8.989300 -28.730200
C -3.016200 -8.940600 -25.969300
C -2.835400 -8.848600 -24.569600
C -2.736400 -10.059400 -28.081600
N -2.701400 -8.782500 -23.469400
C -2.568500 -10.034700 -26.701100
C -2.424600 -11.271300 -28.829500
H -2.165500 -10.750600 -26.268300
N -1.937500 -12.132500 -29.390000
20
Fragment
H -2.068800 -8.760800 -16.174400
O -1.775000 -8.552000 -18.809200
C -1.198200 -9.236100 -17.947600
C -1.172900 -8.819000 -16.507900
H -1.172300 -9.643900 -20.733900
H -0.966000 -10.855500 -22.701700
C -0.836600 -10.511300 -20.713300
H -0.744900 -7.961500 -16.431800
C -0.711300 -11.237600 -21.892000
H -0.680100 -9.466200 -15.996700
N -0.569100 -10.379700 -18.264700
C -0.462600 -11.082700 -19.502600
C -0.213700 -12.534500 -21.859900
H -0.159900 -10.753900 -17.607300
H -0.132700 -13.020000 -22.649100
C 0.036500 -12.379600 -19.470600
C 0.160000 -13.105100 -20.649200
O 0.390500 -12.902600 -18.266300
H 0.494400 -13.973000 -20.628900
H 0.702300 -13.657900 -18.377100
36
Fragment
N -4.415500 -5.829600 -25.234200
H -4.191300 -7.179500 -28.429900
C -4.064400 -6.733600 -25.846000
C -3.785800 -7.895400 -27.996700
N -3.733400 -9.052100 -31.249300
C -3.623700 -7.870700 -26.616300
C -3.557500 -9.059200 -30.107500
C -3.337700 -8.989300 -28.730200
C -3.016200 -8.940600 -25.969300
C -2.835400 -8.848600 -24.569600
C -2.736400 -10.059400 -28.081600
N -2.701400 -8.782500 -23.469400
C -2.568500 -10.034700 -26.701100
C -2.424600 -11.271300 -28.829500
H -2.165500 -10.750600 -26.268300
N -1.937500 -12.132500 -29.390000
H -2.068800 -8.760800 -16.174400
O -1.775000 -8.552000 -18.809200
C -1.198200 -9.236100 -17.947600
C -1.172900 -8.819000 -16.507900
H -1.172300 -9.643900 -20.733900
H -0.966000 -10.855500 -22.701700
C -0.836600 -10.511300 -20.713300
H -0.744900 -7.961500 -16.431800
C -0.711300 -11.237600 -21.892000
H -0.680100 -9.466200 -15.996700
N -0.569100 -10.379700 -18.264700
C -0.462600 -11.082700 -19.502600
C -0.213700 -12.534500 -21.859900
H -0.159900 -10.753900 -17.607300
H -0.132700 -13.020000 -22.649100
C 0.036500 -12.379600 -19.470600
C 0.160000 -13.105100 -20.649200
O 0.390500 -12.902600 -18.266300
H 0.494400 -13.973000 -20.628900
H 0.702300 -13.657900 -18.377100
