16
Fragment
N -4.415500 -5.829600 -25.234200
H -4.191300 -7.179500 -28.429900
C -4.064400 -6.733600 -25.846000
C -3.785800 -7.895400 -27.996700
N -3.733400 -9.052100 -31.249300
C -3.623700 -7.870700 -26.616300
C -3.557500 -9.059200 -30.107500
C -3.337700 -8.989300 -28.730200
C -3.016200 -8.940600 -25.969300
C -2.835400 -8.848600 -24.569600
C -2.736400 -10.059400 -28.081600
N -2.701400 -8.782500 -23.469400
C -2.568500 -10.034700 -26.701100
C -2.424600 -11.271300 -28.829500
H -2.165500 -10.750600 -26.268300
N -1.937500 -12.132500 -29.390000
20
Fragment
H -6.620900 -6.667400 -32.189000
O -6.327200 -6.458600 -34.823800
C -5.750300 -7.142700 -33.962200
C -5.725000 -6.725600 -32.522500
H -5.724400 -7.550500 -36.748500
H -5.518200 -8.762100 -38.716300
C -5.388800 -8.417900 -36.727900
H -5.297100 -5.868100 -32.446400
C -5.263500 -9.144200 -37.906600
H -5.232300 -7.372800 -32.011300
N -5.121200 -8.286300 -34.279300
C -5.014700 -8.989200 -35.517200
C -4.765900 -10.441100 -37.874500
H -4.712000 -8.660500 -33.621900
H -4.684900 -10.926600 -38.663700
C -4.515700 -10.286100 -35.485200
C -4.392200 -11.011700 -36.663800
O -4.161700 -10.809200 -34.280900
H -4.057700 -11.879600 -36.643500
H -3.849800 -11.564500 -34.391700
36
Fragment
N -4.415500 -5.829600 -25.234200
H -4.191300 -7.179500 -28.429900
C -4.064400 -6.733600 -25.846000
C -3.785800 -7.895400 -27.996700
N -3.733400 -9.052100 -31.249300
C -3.623700 -7.870700 -26.616300
C -3.557500 -9.059200 -30.107500
C -3.337700 -8.989300 -28.730200
C -3.016200 -8.940600 -25.969300
C -2.835400 -8.848600 -24.569600
C -2.736400 -10.059400 -28.081600
N -2.701400 -8.782500 -23.469400
C -2.568500 -10.034700 -26.701100
C -2.424600 -11.271300 -28.829500
H -2.165500 -10.750600 -26.268300
N -1.937500 -12.132500 -29.390000
H -6.620900 -6.667400 -32.189000
O -6.327200 -6.458600 -34.823800
C -5.750300 -7.142700 -33.962200
C -5.725000 -6.725600 -32.522500
H -5.724400 -7.550500 -36.748500
H -5.518200 -8.762100 -38.716300
C -5.388800 -8.417900 -36.727900
H -5.297100 -5.868100 -32.446400
C -5.263500 -9.144200 -37.906600
H -5.232300 -7.372800 -32.011300
N -5.121200 -8.286300 -34.279300
C -5.014700 -8.989200 -35.517200
C -4.765900 -10.441100 -37.874500
H -4.712000 -8.660500 -33.621900
H -4.684900 -10.926600 -38.663700
C -4.515700 -10.286100 -35.485200
C -4.392200 -11.011700 -36.663800
O -4.161700 -10.809200 -34.280900
H -4.057700 -11.879600 -36.643500
H -3.849800 -11.564500 -34.391700
