16
Fragment
N -4.415500 -5.829600 -25.234200
H -4.191300 -7.179500 -28.429900
C -4.064400 -6.733600 -25.846000
C -3.785800 -7.895400 -27.996700
N -3.733400 -9.052100 -31.249300
C -3.623700 -7.870700 -26.616300
C -3.557500 -9.059200 -30.107500
C -3.337700 -8.989300 -28.730200
C -3.016200 -8.940600 -25.969300
C -2.835400 -8.848600 -24.569600
C -2.736400 -10.059400 -28.081600
N -2.701400 -8.782500 -23.469400
C -2.568500 -10.034700 -26.701100
C -2.424600 -11.271300 -28.829500
H -2.165500 -10.750600 -26.268300
N -1.937500 -12.132500 -29.390000
20
Fragment
H -4.507200 -13.920100 -29.666700
H -4.299300 -13.605000 -27.414900
O -4.195300 -14.675400 -29.777600
C -3.964900 -14.472900 -27.394600
C -3.841300 -15.198500 -28.573300
H -3.672100 -14.558000 -25.394700
H -3.645000 -16.824200 -30.436600
C -3.591200 -15.043600 -26.183900
C -3.342300 -16.495400 -28.541200
N -3.235800 -17.198300 -29.779200
H -3.124800 -18.111800 -32.047100
C -3.093600 -16.340500 -26.151800
H -3.059900 -19.616500 -31.612000
C -2.968200 -17.066700 -27.330500
H -2.838900 -16.722500 -25.342100
H -2.632600 -17.934100 -27.309900
C -2.632000 -18.759100 -31.536000
C -2.606700 -18.341900 -30.096200
O -2.029900 -19.026000 -29.234700
H -1.736100 -18.817200 -31.869400
36
Fragment
N -4.415500 -5.829600 -25.234200
H -4.191300 -7.179500 -28.429900
C -4.064400 -6.733600 -25.846000
C -3.785800 -7.895400 -27.996700
N -3.733400 -9.052100 -31.249300
C -3.623700 -7.870700 -26.616300
C -3.557500 -9.059200 -30.107500
C -3.337700 -8.989300 -28.730200
C -3.016200 -8.940600 -25.969300
C -2.835400 -8.848600 -24.569600
C -2.736400 -10.059400 -28.081600
N -2.701400 -8.782500 -23.469400
C -2.568500 -10.034700 -26.701100
C -2.424600 -11.271300 -28.829500
H -2.165500 -10.750600 -26.268300
N -1.937500 -12.132500 -29.390000
H -4.507200 -13.920100 -29.666700
H -4.299300 -13.605000 -27.414900
O -4.195300 -14.675400 -29.777600
C -3.964900 -14.472900 -27.394600
C -3.841300 -15.198500 -28.573300
H -3.672100 -14.558000 -25.394700
H -3.645000 -16.824200 -30.436600
C -3.591200 -15.043600 -26.183900
C -3.342300 -16.495400 -28.541200
N -3.235800 -17.198300 -29.779200
H -3.124800 -18.111800 -32.047100
C -3.093600 -16.340500 -26.151800
H -3.059900 -19.616500 -31.612000
C -2.968200 -17.066700 -27.330500
H -2.838900 -16.722500 -25.342100
H -2.632600 -17.934100 -27.309900
C -2.632000 -18.759100 -31.536000
C -2.606700 -18.341900 -30.096200
O -2.029900 -19.026000 -29.234700
H -1.736100 -18.817200 -31.869400
