16
Fragment
N -4.415500 -5.829600 -25.234200
H -4.191300 -7.179500 -28.429900
C -4.064400 -6.733600 -25.846000
C -3.785800 -7.895400 -27.996700
N -3.733400 -9.052100 -31.249300
C -3.623700 -7.870700 -26.616300
C -3.557500 -9.059200 -30.107500
C -3.337700 -8.989300 -28.730200
C -3.016200 -8.940600 -25.969300
C -2.835400 -8.848600 -24.569600
C -2.736400 -10.059400 -28.081600
N -2.701400 -8.782500 -23.469400
C -2.568500 -10.034700 -26.701100
C -2.424600 -11.271300 -28.829500
H -2.165500 -10.750600 -26.268300
N -1.937500 -12.132500 -29.390000
20
Fragment
H -4.007900 -0.376800 -29.666700
H -3.800000 -0.061700 -27.414900
O -3.696000 -1.132100 -29.777600
C -3.465500 -0.929600 -27.394600
C -3.342000 -1.655200 -28.573300
H -3.172800 -1.014700 -25.394700
H -3.145700 -3.280900 -30.436600
C -3.091800 -1.500300 -26.183900
C -2.842900 -2.952100 -28.541200
N -2.736500 -3.655000 -29.779200
H -2.625400 -4.568500 -32.047100
C -2.594200 -2.797200 -26.151800
H -2.560600 -6.073200 -31.612000
C -2.468900 -3.523400 -27.330500
H -2.339500 -3.179200 -25.342100
H -2.133300 -4.390800 -27.309900
C -2.132700 -5.215800 -31.536000
C -2.107400 -4.798600 -30.096200
O -1.530500 -5.482700 -29.234700
H -1.236800 -5.273900 -31.869400
36
Fragment
N -4.415500 -5.829600 -25.234200
H -4.191300 -7.179500 -28.429900
C -4.064400 -6.733600 -25.846000
C -3.785800 -7.895400 -27.996700
N -3.733400 -9.052100 -31.249300
C -3.623700 -7.870700 -26.616300
C -3.557500 -9.059200 -30.107500
C -3.337700 -8.989300 -28.730200
C -3.016200 -8.940600 -25.969300
C -2.835400 -8.848600 -24.569600
C -2.736400 -10.059400 -28.081600
N -2.701400 -8.782500 -23.469400
C -2.568500 -10.034700 -26.701100
C -2.424600 -11.271300 -28.829500
H -2.165500 -10.750600 -26.268300
N -1.937500 -12.132500 -29.390000
H -4.007900 -0.376800 -29.666700
H -3.800000 -0.061700 -27.414900
O -3.696000 -1.132100 -29.777600
C -3.465500 -0.929600 -27.394600
C -3.342000 -1.655200 -28.573300
H -3.172800 -1.014700 -25.394700
H -3.145700 -3.280900 -30.436600
C -3.091800 -1.500300 -26.183900
C -2.842900 -2.952100 -28.541200
N -2.736500 -3.655000 -29.779200
H -2.625400 -4.568500 -32.047100
C -2.594200 -2.797200 -26.151800
H -2.560600 -6.073200 -31.612000
C -2.468900 -3.523400 -27.330500
H -2.339500 -3.179200 -25.342100
H -2.133300 -4.390800 -27.309900
C -2.132700 -5.215800 -31.536000
C -2.107400 -4.798600 -30.096200
O -1.530500 -5.482700 -29.234700
H -1.236800 -5.273900 -31.869400
