16
Fragment
N -4.415500 -5.829600 -25.234200
H -4.191300 -7.179500 -28.429900
C -4.064400 -6.733600 -25.846000
C -3.785800 -7.895400 -27.996700
N -3.733400 -9.052100 -31.249300
C -3.623700 -7.870700 -26.616300
C -3.557500 -9.059200 -30.107500
C -3.337700 -8.989300 -28.730200
C -3.016200 -8.940600 -25.969300
C -2.835400 -8.848600 -24.569600
C -2.736400 -10.059400 -28.081600
N -2.701400 -8.782500 -23.469400
C -2.568500 -10.034700 -26.701100
C -2.424600 -11.271300 -28.829500
H -2.165500 -10.750600 -26.268300
N -1.937500 -12.132500 -29.390000
20
Fragment
H -3.170600 -13.439100 -32.189000
O -2.876800 -13.230200 -34.823800
C -2.300000 -13.914400 -33.962200
C -2.274700 -13.497200 -32.522500
H -2.274100 -14.322100 -36.748500
H -2.067800 -15.533700 -38.716300
C -1.938500 -15.189600 -36.727900
H -1.846800 -12.639800 -32.446400
C -1.813100 -15.915800 -37.906600
H -1.781900 -14.144500 -32.011300
N -1.670900 -15.058000 -34.279300
C -1.564400 -15.760900 -35.517200
C -1.315600 -17.212700 -37.874500
H -1.261700 -15.432100 -33.621900
H -1.234600 -17.698300 -38.663700
C -1.065400 -17.057800 -35.485200
C -0.941800 -17.783400 -36.663800
O -0.711400 -17.580900 -34.280900
H -0.607400 -18.651200 -36.643500
H -0.399500 -18.336100 -34.391700
36
Fragment
N -4.415500 -5.829600 -25.234200
H -4.191300 -7.179500 -28.429900
C -4.064400 -6.733600 -25.846000
C -3.785800 -7.895400 -27.996700
N -3.733400 -9.052100 -31.249300
C -3.623700 -7.870700 -26.616300
C -3.557500 -9.059200 -30.107500
C -3.337700 -8.989300 -28.730200
C -3.016200 -8.940600 -25.969300
C -2.835400 -8.848600 -24.569600
C -2.736400 -10.059400 -28.081600
N -2.701400 -8.782500 -23.469400
C -2.568500 -10.034700 -26.701100
C -2.424600 -11.271300 -28.829500
H -2.165500 -10.750600 -26.268300
N -1.937500 -12.132500 -29.390000
H -3.170600 -13.439100 -32.189000
O -2.876800 -13.230200 -34.823800
C -2.300000 -13.914400 -33.962200
C -2.274700 -13.497200 -32.522500
H -2.274100 -14.322100 -36.748500
H -2.067800 -15.533700 -38.716300
C -1.938500 -15.189600 -36.727900
H -1.846800 -12.639800 -32.446400
C -1.813100 -15.915800 -37.906600
H -1.781900 -14.144500 -32.011300
N -1.670900 -15.058000 -34.279300
C -1.564400 -15.760900 -35.517200
C -1.315600 -17.212700 -37.874500
H -1.261700 -15.432100 -33.621900
H -1.234600 -17.698300 -38.663700
C -1.065400 -17.057800 -35.485200
C -0.941800 -17.783400 -36.663800
O -0.711400 -17.580900 -34.280900
H -0.607400 -18.651200 -36.643500
H -0.399500 -18.336100 -34.391700
