17
Fragment
H -14.565400 -14.044000 -21.874500
O -14.462900 -14.614900 -22.481300
H -13.936100 -15.454900 -24.700100
C -13.644600 -15.547300 -22.059300
C -13.500100 -16.241900 -24.464600
O -13.446100 -18.522600 -20.848500
C -13.288300 -16.524200 -23.120900
H -13.256500 -16.895900 -26.345700
O -13.201900 -15.595400 -20.936800
C -13.081100 -17.098100 -25.454700
C -12.639500 -17.719200 -22.839500
N -12.463100 -18.176300 -21.458800
C -12.407100 -18.246600 -25.136100
C -12.187900 -18.571000 -23.821900
H -12.097300 -18.806600 -25.811800
H -11.740400 -19.354500 -23.597200
O -11.347500 -18.240400 -21.012000
17
Fragment
H -20.415500 -8.841800 -21.951600
O -20.292400 -9.429000 -21.364700
H -19.771200 -10.329000 -19.193000
C -19.565800 -10.397700 -21.838300
O -19.459700 -13.419900 -23.093400
C -19.387700 -11.136100 -19.449300
C -19.221800 -11.407600 -20.798800
O -19.186500 -10.473500 -22.982900
H -19.130900 -11.827300 -17.583700
C -18.999900 -12.029900 -18.481300
C -18.643000 -12.625700 -21.116200
N -18.480300 -13.039200 -22.506900
C -18.420900 -13.218100 -18.835200
C -18.233400 -13.524900 -20.158200
H -18.154100 -13.818200 -18.177400
H -17.835800 -14.329000 -20.405000
O -17.387600 -13.042400 -22.991200
34
Fragment
H -14.565400 -14.044000 -21.874500
O -14.462900 -14.614900 -22.481300
H -13.936100 -15.454900 -24.700100
C -13.644600 -15.547300 -22.059300
C -13.500100 -16.241900 -24.464600
O -13.446100 -18.522600 -20.848500
C -13.288300 -16.524200 -23.120900
H -13.256500 -16.895900 -26.345700
O -13.201900 -15.595400 -20.936800
C -13.081100 -17.098100 -25.454700
C -12.639500 -17.719200 -22.839500
N -12.463100 -18.176300 -21.458800
C -12.407100 -18.246600 -25.136100
C -12.187900 -18.571000 -23.821900
H -12.097300 -18.806600 -25.811800
H -11.740400 -19.354500 -23.597200
O -11.347500 -18.240400 -21.012000
H -20.415500 -8.841800 -21.951600
O -20.292400 -9.429000 -21.364700
H -19.771200 -10.329000 -19.193000
C -19.565800 -10.397700 -21.838300
O -19.459700 -13.419900 -23.093400
C -19.387700 -11.136100 -19.449300
C -19.221800 -11.407600 -20.798800
O -19.186500 -10.473500 -22.982900
H -19.130900 -11.827300 -17.583700
C -18.999900 -12.029900 -18.481300
C -18.643000 -12.625700 -21.116200
N -18.480300 -13.039200 -22.506900
C -18.420900 -13.218100 -18.835200
C -18.233400 -13.524900 -20.158200
H -18.154100 -13.818200 -18.177400
H -17.835800 -14.329000 -20.405000
O -17.387600 -13.042400 -22.991200
