17
Fragment
H -14.565400 -14.044000 -21.874500
O -14.462900 -14.614900 -22.481300
H -13.936100 -15.454900 -24.700100
C -13.644600 -15.547300 -22.059300
C -13.500100 -16.241900 -24.464600
O -13.446100 -18.522600 -20.848500
C -13.288300 -16.524200 -23.120900
H -13.256500 -16.895900 -26.345700
O -13.201900 -15.595400 -20.936800
C -13.081100 -17.098100 -25.454700
C -12.639500 -17.719200 -22.839500
N -12.463100 -18.176300 -21.458800
C -12.407100 -18.246600 -25.136100
C -12.187900 -18.571000 -23.821900
H -12.097300 -18.806600 -25.811800
H -11.740400 -19.354500 -23.597200
O -11.347500 -18.240400 -21.012000
17
Fragment
O -16.436600 -13.222900 -29.913100
H -16.043700 -14.337000 -27.327900
H -15.686800 -13.789100 -25.113400
C -15.596200 -13.553500 -27.103200
C -15.377000 -13.229100 -25.789100
N -15.321000 -13.158800 -29.466300
C -15.144600 -12.701700 -28.085600
C -14.703000 -12.080600 -25.470400
O -14.582200 -10.577900 -29.988400
H -14.527600 -11.878400 -24.579400
C -14.495800 -11.506700 -27.804200
O -14.338000 -13.505100 -30.076700
C -14.284000 -11.224400 -26.460500
C -14.139600 -10.529800 -28.865800
H -13.848100 -10.437400 -26.225000
O -13.321200 -9.597400 -28.443900
H -13.218800 -9.026500 -29.050600
34
Fragment
H -14.565400 -14.044000 -21.874500
O -14.462900 -14.614900 -22.481300
H -13.936100 -15.454900 -24.700100
C -13.644600 -15.547300 -22.059300
C -13.500100 -16.241900 -24.464600
O -13.446100 -18.522600 -20.848500
C -13.288300 -16.524200 -23.120900
H -13.256500 -16.895900 -26.345700
O -13.201900 -15.595400 -20.936800
C -13.081100 -17.098100 -25.454700
C -12.639500 -17.719200 -22.839500
N -12.463100 -18.176300 -21.458800
C -12.407100 -18.246600 -25.136100
C -12.187900 -18.571000 -23.821900
H -12.097300 -18.806600 -25.811800
H -11.740400 -19.354500 -23.597200
O -11.347500 -18.240400 -21.012000
O -16.436600 -13.222900 -29.913100
H -16.043700 -14.337000 -27.327900
H -15.686800 -13.789100 -25.113400
C -15.596200 -13.553500 -27.103200
C -15.377000 -13.229100 -25.789100
N -15.321000 -13.158800 -29.466300
C -15.144600 -12.701700 -28.085600
C -14.703000 -12.080600 -25.470400
O -14.582200 -10.577900 -29.988400
H -14.527600 -11.878400 -24.579400
C -14.495800 -11.506700 -27.804200
O -14.338000 -13.505100 -30.076700
C -14.284000 -11.224400 -26.460500
C -14.139600 -10.529800 -28.865800
H -13.848100 -10.437400 -26.225000
O -13.321200 -9.597400 -28.443900
H -13.218800 -9.026500 -29.050600
