17
Fragment
H -11.660100 -21.993900 -17.252000
C -11.069900 -22.050000 -16.535000
H -11.015100 -24.062900 -16.440300
H -10.844600 -20.066500 -16.282100
C -10.687200 -23.281000 -16.057600
C -10.579700 -20.894300 -15.951600
O -9.811200 -25.637000 -14.994900
C -9.806700 -23.328200 -15.001500
C -9.700800 -20.954300 -14.884100
O -9.496800 -18.618100 -14.876500
N -9.360900 -24.626700 -14.486300
C -9.302300 -22.184000 -14.386800
C -9.156500 -19.716900 -14.236200
H -9.102600 -17.947700 -14.491900
H -8.718000 -22.243900 -13.666000
O -8.555900 -24.661200 -13.595000
O -8.471200 -19.745300 -13.238800
17
Fragment
O -13.728100 -13.367300 -19.912700
O -13.643500 -18.283200 -19.556600
H -13.481400 -15.865900 -19.485500
H -13.096800 -11.569700 -18.659600
C -13.042900 -13.338900 -18.915300
C -12.897000 -15.806000 -18.764700
N -12.838500 -18.248700 -18.665300
O -12.702600 -12.240100 -18.275000
C -12.498600 -14.576300 -18.267400
C -12.392700 -16.950200 -18.150000
O -12.388200 -19.259000 -18.156600
C -11.619700 -14.516300 -17.200000
C -11.512200 -16.903000 -17.093900
H -11.354800 -13.688500 -16.869400
H -11.184300 -17.684900 -16.711200
C -11.129500 -15.672000 -16.616500
H -10.539300 -15.615900 -15.899500
34
Fragment
H -11.660100 -21.993900 -17.252000
C -11.069900 -22.050000 -16.535000
H -11.015100 -24.062900 -16.440300
H -10.844600 -20.066500 -16.282100
C -10.687200 -23.281000 -16.057600
C -10.579700 -20.894300 -15.951600
O -9.811200 -25.637000 -14.994900
C -9.806700 -23.328200 -15.001500
C -9.700800 -20.954300 -14.884100
O -9.496800 -18.618100 -14.876500
N -9.360900 -24.626700 -14.486300
C -9.302300 -22.184000 -14.386800
C -9.156500 -19.716900 -14.236200
H -9.102600 -17.947700 -14.491900
H -8.718000 -22.243900 -13.666000
O -8.555900 -24.661200 -13.595000
O -8.471200 -19.745300 -13.238800
O -13.728100 -13.367300 -19.912700
O -13.643500 -18.283200 -19.556600
H -13.481400 -15.865900 -19.485500
H -13.096800 -11.569700 -18.659600
C -13.042900 -13.338900 -18.915300
C -12.897000 -15.806000 -18.764700
N -12.838500 -18.248700 -18.665300
O -12.702600 -12.240100 -18.275000
C -12.498600 -14.576300 -18.267400
C -12.392700 -16.950200 -18.150000
O -12.388200 -19.259000 -18.156600
C -11.619700 -14.516300 -17.200000
C -11.512200 -16.903000 -17.093900
H -11.354800 -13.688500 -16.869400
H -11.184300 -17.684900 -16.711200
C -11.129500 -15.672000 -16.616500
H -10.539300 -15.615900 -15.899500
