17
Fragment
H -11.660100 -21.993900 -17.252000
C -11.069900 -22.050000 -16.535000
H -11.015100 -24.062900 -16.440300
H -10.844600 -20.066500 -16.282100
C -10.687200 -23.281000 -16.057600
C -10.579700 -20.894300 -15.951600
O -9.811200 -25.637000 -14.994900
C -9.806700 -23.328200 -15.001500
C -9.700800 -20.954300 -14.884100
O -9.496800 -18.618100 -14.876500
N -9.360900 -24.626700 -14.486300
C -9.302300 -22.184000 -14.386800
C -9.156500 -19.716900 -14.236200
H -9.102600 -17.947700 -14.491900
H -8.718000 -22.243900 -13.666000
O -8.555900 -24.661200 -13.595000
O -8.471200 -19.745300 -13.238800
8
Fragment
H -14.521200 -23.664900 -16.622200
N -14.394200 -21.263000 -16.388200
N -14.360200 -23.461900 -15.801900
H -14.348200 -20.455500 -16.073700
H -14.275400 -24.083300 -15.213700
C -14.244100 -22.187800 -15.443900
H -14.206100 -21.493900 -17.193300
O -14.010000 -21.886600 -14.250400
25
Fragment
H -11.660100 -21.993900 -17.252000
C -11.069900 -22.050000 -16.535000
H -11.015100 -24.062900 -16.440300
H -10.844600 -20.066500 -16.282100
C -10.687200 -23.281000 -16.057600
C -10.579700 -20.894300 -15.951600
O -9.811200 -25.637000 -14.994900
C -9.806700 -23.328200 -15.001500
C -9.700800 -20.954300 -14.884100
O -9.496800 -18.618100 -14.876500
N -9.360900 -24.626700 -14.486300
C -9.302300 -22.184000 -14.386800
C -9.156500 -19.716900 -14.236200
H -9.102600 -17.947700 -14.491900
H -8.718000 -22.243900 -13.666000
O -8.555900 -24.661200 -13.595000
O -8.471200 -19.745300 -13.238800
H -14.521200 -23.664900 -16.622200
N -14.394200 -21.263000 -16.388200
N -14.360200 -23.461900 -15.801900
H -14.348200 -20.455500 -16.073700
H -14.275400 -24.083300 -15.213700
C -14.244100 -22.187800 -15.443900
H -14.206100 -21.493900 -17.193300
O -14.010000 -21.886600 -14.250400
