17
Fragment
H -11.660100 -21.993900 -17.252000
C -11.069900 -22.050000 -16.535000
H -11.015100 -24.062900 -16.440300
H -10.844600 -20.066500 -16.282100
C -10.687200 -23.281000 -16.057600
C -10.579700 -20.894300 -15.951600
O -9.811200 -25.637000 -14.994900
C -9.806700 -23.328200 -15.001500
C -9.700800 -20.954300 -14.884100
O -9.496800 -18.618100 -14.876500
N -9.360900 -24.626700 -14.486300
C -9.302300 -22.184000 -14.386800
C -9.156500 -19.716900 -14.236200
H -9.102600 -17.947700 -14.491900
H -8.718000 -22.243900 -13.666000
O -8.555900 -24.661200 -13.595000
O -8.471200 -19.745300 -13.238800
17
Fragment
H -11.953300 -22.652100 -12.516100
C -11.363100 -22.596000 -11.799100
H -11.308300 -20.583100 -11.704400
H -11.137900 -24.579500 -11.546200
C -10.980400 -21.365000 -11.321700
C -10.873000 -23.751700 -11.215600
O -10.104400 -19.009000 -10.259000
C -10.099900 -21.317800 -10.265600
C -9.994000 -23.691700 -10.148200
O -9.790000 -26.027900 -10.140600
N -9.654100 -20.019300 -9.750300
C -9.595600 -22.462000 -9.650900
C -9.449700 -24.929100 -9.500300
H -9.395900 -26.698300 -9.756000
H -9.011300 -22.402100 -8.930100
O -8.849100 -19.984800 -8.859000
O -8.764500 -24.900700 -8.502900
34
Fragment
H -11.660100 -21.993900 -17.252000
C -11.069900 -22.050000 -16.535000
H -11.015100 -24.062900 -16.440300
H -10.844600 -20.066500 -16.282100
C -10.687200 -23.281000 -16.057600
C -10.579700 -20.894300 -15.951600
O -9.811200 -25.637000 -14.994900
C -9.806700 -23.328200 -15.001500
C -9.700800 -20.954300 -14.884100
O -9.496800 -18.618100 -14.876500
N -9.360900 -24.626700 -14.486300
C -9.302300 -22.184000 -14.386800
C -9.156500 -19.716900 -14.236200
H -9.102600 -17.947700 -14.491900
H -8.718000 -22.243900 -13.666000
O -8.555900 -24.661200 -13.595000
O -8.471200 -19.745300 -13.238800
H -11.953300 -22.652100 -12.516100
C -11.363100 -22.596000 -11.799100
H -11.308300 -20.583100 -11.704400
H -11.137900 -24.579500 -11.546200
C -10.980400 -21.365000 -11.321700
C -10.873000 -23.751700 -11.215600
O -10.104400 -19.009000 -10.259000
C -10.099900 -21.317800 -10.265600
C -9.994000 -23.691700 -10.148200
O -9.790000 -26.027900 -10.140600
N -9.654100 -20.019300 -9.750300
C -9.595600 -22.462000 -9.650900
C -9.449700 -24.929100 -9.500300
H -9.395900 -26.698300 -9.756000
H -9.011300 -22.402100 -8.930100
O -8.849100 -19.984800 -8.859000
O -8.764500 -24.900700 -8.502900
