17
Fragment
H -11.660100 -21.993900 -17.252000
C -11.069900 -22.050000 -16.535000
H -11.015100 -24.062900 -16.440300
H -10.844600 -20.066500 -16.282100
C -10.687200 -23.281000 -16.057600
C -10.579700 -20.894300 -15.951600
O -9.811200 -25.637000 -14.994900
C -9.806700 -23.328200 -15.001500
C -9.700800 -20.954300 -14.884100
O -9.496800 -18.618100 -14.876500
N -9.360900 -24.626700 -14.486300
C -9.302300 -22.184000 -14.386800
C -9.156500 -19.716900 -14.236200
H -9.102600 -17.947700 -14.491900
H -8.718000 -22.243900 -13.666000
O -8.555900 -24.661200 -13.595000
O -8.471200 -19.745300 -13.238800
8
Fragment
H -6.730400 -20.981100 -11.886200
N -6.603500 -23.383000 -11.652300
N -6.569400 -21.184100 -11.066000
H -6.557400 -24.190500 -11.337800
H -6.484600 -20.562700 -10.477800
C -6.453400 -22.458200 -10.707900
H -6.415400 -23.152100 -12.457400
O -6.219200 -22.759400 -9.514500
25
Fragment
H -11.660100 -21.993900 -17.252000
C -11.069900 -22.050000 -16.535000
H -11.015100 -24.062900 -16.440300
H -10.844600 -20.066500 -16.282100
C -10.687200 -23.281000 -16.057600
C -10.579700 -20.894300 -15.951600
O -9.811200 -25.637000 -14.994900
C -9.806700 -23.328200 -15.001500
C -9.700800 -20.954300 -14.884100
O -9.496800 -18.618100 -14.876500
N -9.360900 -24.626700 -14.486300
C -9.302300 -22.184000 -14.386800
C -9.156500 -19.716900 -14.236200
H -9.102600 -17.947700 -14.491900
H -8.718000 -22.243900 -13.666000
O -8.555900 -24.661200 -13.595000
O -8.471200 -19.745300 -13.238800
H -6.730400 -20.981100 -11.886200
N -6.603500 -23.383000 -11.652300
N -6.569400 -21.184100 -11.066000
H -6.557400 -24.190500 -11.337800
H -6.484600 -20.562700 -10.477800
C -6.453400 -22.458200 -10.707900
H -6.415400 -23.152100 -12.457400
O -6.219200 -22.759400 -9.514500
