33
Fragment
H -25.215900 -9.359900 -26.919100
H -24.807400 -8.004500 -28.782800
C -24.323100 -9.169700 -27.182400
C -24.080600 -8.364300 -28.288300
H -23.425300 -10.250200 -25.708000
C -23.258100 -9.696600 -26.461800
C -22.773500 -8.085400 -28.670700
H -22.610500 -7.536100 -29.428400
C -21.952500 -9.418200 -26.837600
C -21.696600 -8.608400 -27.946900
H -21.229300 -9.779700 -26.338800
C -20.311000 -8.295300 -28.342300
N -20.031700 -7.458900 -29.388500
C -19.117400 -8.702900 -27.790600
H -18.988000 -9.286800 -27.052500
N -18.730100 -7.334900 -29.500100
N -18.172400 -8.088200 -28.531900
O -16.762100 -9.837200 -30.073500
C -16.728000 -8.137700 -28.397600
H -16.497100 -8.323600 -27.452900
H -16.350600 -7.253400 -28.633500
C -16.095300 -9.200500 -29.282500
C -14.626200 -9.398200 -29.155000
H -14.464200 -10.462900 -30.897400
H -14.331100 -8.384100 -27.403000
C -13.973800 -10.130100 -30.155000
C -13.895600 -8.895100 -28.075300
C -12.612200 -10.368200 -30.060300
C -12.532400 -9.143200 -27.986400
H -12.169300 -10.865400 -30.737900
H -12.036800 -8.807800 -27.248500
C -11.891600 -9.879700 -28.972900
H -10.959600 -10.051000 -28.906400
20
Fragment
H -32.865700 -5.647300 -30.193700
H -32.376900 -6.586700 -32.030400
O -32.269700 -7.893700 -33.581800
N -32.023300 -5.505800 -30.409500
H -31.978900 -4.695400 -30.730200
N -31.747800 -6.412000 -31.461500
N -31.054500 -8.040000 -33.796400
O -30.632300 -8.508700 -34.859500
C -30.495700 -6.828500 -31.677300
C -30.110400 -7.635000 -32.794400
H -29.647200 -5.888700 -30.051100
C -29.444400 -6.448600 -30.791400
C -28.792500 -8.034900 -32.990900
H -28.556300 -8.554100 -33.750600
C -28.156200 -6.863300 -30.972000
C -27.840200 -7.672200 -32.078100
H -27.479400 -6.607800 -30.356100
N -26.484100 -8.166000 -32.239300
O -26.199500 -8.803000 -33.253300
O -25.674900 -7.931400 -31.338800
53
Fragment
H -25.215900 -9.359900 -26.919100
H -24.807400 -8.004500 -28.782800
C -24.323100 -9.169700 -27.182400
C -24.080600 -8.364300 -28.288300
H -23.425300 -10.250200 -25.708000
C -23.258100 -9.696600 -26.461800
C -22.773500 -8.085400 -28.670700
H -22.610500 -7.536100 -29.428400
C -21.952500 -9.418200 -26.837600
C -21.696600 -8.608400 -27.946900
H -21.229300 -9.779700 -26.338800
C -20.311000 -8.295300 -28.342300
N -20.031700 -7.458900 -29.388500
C -19.117400 -8.702900 -27.790600
H -18.988000 -9.286800 -27.052500
N -18.730100 -7.334900 -29.500100
N -18.172400 -8.088200 -28.531900
O -16.762100 -9.837200 -30.073500
C -16.728000 -8.137700 -28.397600
H -16.497100 -8.323600 -27.452900
H -16.350600 -7.253400 -28.633500
C -16.095300 -9.200500 -29.282500
C -14.626200 -9.398200 -29.155000
H -14.464200 -10.462900 -30.897400
H -14.331100 -8.384100 -27.403000
C -13.973800 -10.130100 -30.155000
C -13.895600 -8.895100 -28.075300
C -12.612200 -10.368200 -30.060300
C -12.532400 -9.143200 -27.986400
H -12.169300 -10.865400 -30.737900
H -12.036800 -8.807800 -27.248500
C -11.891600 -9.879700 -28.972900
H -10.959600 -10.051000 -28.906400
H -32.865700 -5.647300 -30.193700
H -32.376900 -6.586700 -32.030400
O -32.269700 -7.893700 -33.581800
N -32.023300 -5.505800 -30.409500
H -31.978900 -4.695400 -30.730200
N -31.747800 -6.412000 -31.461500
N -31.054500 -8.040000 -33.796400
O -30.632300 -8.508700 -34.859500
C -30.495700 -6.828500 -31.677300
C -30.110400 -7.635000 -32.794400
H -29.647200 -5.888700 -30.051100
C -29.444400 -6.448600 -30.791400
C -28.792500 -8.034900 -32.990900
H -28.556300 -8.554100 -33.750600
C -28.156200 -6.863300 -30.972000
C -27.840200 -7.672200 -32.078100
H -27.479400 -6.607800 -30.356100
N -26.484100 -8.166000 -32.239300
O -26.199500 -8.803000 -33.253300
O -25.674900 -7.931400 -31.338800
