33
Fragment
H -25.215900 -9.359900 -26.919100
H -24.807400 -8.004500 -28.782800
C -24.323100 -9.169700 -27.182400
C -24.080600 -8.364300 -28.288300
H -23.425300 -10.250200 -25.708000
C -23.258100 -9.696600 -26.461800
C -22.773500 -8.085400 -28.670700
H -22.610500 -7.536100 -29.428400
C -21.952500 -9.418200 -26.837600
C -21.696600 -8.608400 -27.946900
H -21.229300 -9.779700 -26.338800
C -20.311000 -8.295300 -28.342300
N -20.031700 -7.458900 -29.388500
C -19.117400 -8.702900 -27.790600
H -18.988000 -9.286800 -27.052500
N -18.730100 -7.334900 -29.500100
N -18.172400 -8.088200 -28.531900
O -16.762100 -9.837200 -30.073500
C -16.728000 -8.137700 -28.397600
H -16.497100 -8.323600 -27.452900
H -16.350600 -7.253400 -28.633500
C -16.095300 -9.200500 -29.282500
C -14.626200 -9.398200 -29.155000
H -14.464200 -10.462900 -30.897400
H -14.331100 -8.384100 -27.403000
C -13.973800 -10.130100 -30.155000
C -13.895600 -8.895100 -28.075300
C -12.612200 -10.368200 -30.060300
C -12.532400 -9.143200 -27.986400
H -12.169300 -10.865400 -30.737900
H -12.036800 -8.807800 -27.248500
C -11.891600 -9.879700 -28.972900
H -10.959600 -10.051000 -28.906400
33
Fragment
H -40.829400 -9.359900 -26.919100
H -40.420900 -8.004500 -28.782800
C -39.936600 -9.169700 -27.182400
C -39.694100 -8.364300 -28.288300
H -39.038800 -10.250200 -25.708000
C -38.871600 -9.696600 -26.461800
C -38.387000 -8.085400 -28.670700
H -38.224000 -7.536100 -29.428400
C -37.566000 -9.418200 -26.837600
C -37.310100 -8.608400 -27.946900
H -36.842800 -9.779700 -26.338800
C -35.924500 -8.295300 -28.342300
N -35.645200 -7.458900 -29.388500
C -34.730900 -8.702900 -27.790600
H -34.601500 -9.286800 -27.052500
N -34.343600 -7.334900 -29.500100
N -33.785900 -8.088200 -28.531900
O -32.375600 -9.837200 -30.073500
C -32.341500 -8.137700 -28.397600
H -32.110600 -8.323600 -27.452900
H -31.964100 -7.253400 -28.633500
C -31.708800 -9.200500 -29.282500
C -30.239700 -9.398200 -29.155000
H -30.077700 -10.462900 -30.897400
H -29.944600 -8.384100 -27.403000
C -29.587300 -10.130100 -30.155000
C -29.509100 -8.895100 -28.075300
C -28.225700 -10.368200 -30.060300
C -28.145900 -9.143200 -27.986400
H -27.782800 -10.865400 -30.737900
H -27.650300 -8.807800 -27.248500
C -27.505100 -9.879700 -28.972900
H -26.573100 -10.051000 -28.906400
66
Fragment
H -25.215900 -9.359900 -26.919100
H -24.807400 -8.004500 -28.782800
C -24.323100 -9.169700 -27.182400
C -24.080600 -8.364300 -28.288300
H -23.425300 -10.250200 -25.708000
C -23.258100 -9.696600 -26.461800
C -22.773500 -8.085400 -28.670700
H -22.610500 -7.536100 -29.428400
C -21.952500 -9.418200 -26.837600
C -21.696600 -8.608400 -27.946900
H -21.229300 -9.779700 -26.338800
C -20.311000 -8.295300 -28.342300
N -20.031700 -7.458900 -29.388500
C -19.117400 -8.702900 -27.790600
H -18.988000 -9.286800 -27.052500
N -18.730100 -7.334900 -29.500100
N -18.172400 -8.088200 -28.531900
O -16.762100 -9.837200 -30.073500
C -16.728000 -8.137700 -28.397600
H -16.497100 -8.323600 -27.452900
H -16.350600 -7.253400 -28.633500
C -16.095300 -9.200500 -29.282500
C -14.626200 -9.398200 -29.155000
H -14.464200 -10.462900 -30.897400
H -14.331100 -8.384100 -27.403000
C -13.973800 -10.130100 -30.155000
C -13.895600 -8.895100 -28.075300
C -12.612200 -10.368200 -30.060300
C -12.532400 -9.143200 -27.986400
H -12.169300 -10.865400 -30.737900
H -12.036800 -8.807800 -27.248500
C -11.891600 -9.879700 -28.972900
H -10.959600 -10.051000 -28.906400
H -40.829400 -9.359900 -26.919100
H -40.420900 -8.004500 -28.782800
C -39.936600 -9.169700 -27.182400
C -39.694100 -8.364300 -28.288300
H -39.038800 -10.250200 -25.708000
C -38.871600 -9.696600 -26.461800
C -38.387000 -8.085400 -28.670700
H -38.224000 -7.536100 -29.428400
C -37.566000 -9.418200 -26.837600
C -37.310100 -8.608400 -27.946900
H -36.842800 -9.779700 -26.338800
C -35.924500 -8.295300 -28.342300
N -35.645200 -7.458900 -29.388500
C -34.730900 -8.702900 -27.790600
H -34.601500 -9.286800 -27.052500
N -34.343600 -7.334900 -29.500100
N -33.785900 -8.088200 -28.531900
O -32.375600 -9.837200 -30.073500
C -32.341500 -8.137700 -28.397600
H -32.110600 -8.323600 -27.452900
H -31.964100 -7.253400 -28.633500
C -31.708800 -9.200500 -29.282500
C -30.239700 -9.398200 -29.155000
H -30.077700 -10.462900 -30.897400
H -29.944600 -8.384100 -27.403000
C -29.587300 -10.130100 -30.155000
C -29.509100 -8.895100 -28.075300
C -28.225700 -10.368200 -30.060300
C -28.145900 -9.143200 -27.986400
H -27.782800 -10.865400 -30.737900
H -27.650300 -8.807800 -27.248500
C -27.505100 -9.879700 -28.972900
H -26.573100 -10.051000 -28.906400
