33
Fragment
H -25.215900 -9.359900 -26.919100
H -24.807400 -8.004500 -28.782800
C -24.323100 -9.169700 -27.182400
C -24.080600 -8.364300 -28.288300
H -23.425300 -10.250200 -25.708000
C -23.258100 -9.696600 -26.461800
C -22.773500 -8.085400 -28.670700
H -22.610500 -7.536100 -29.428400
C -21.952500 -9.418200 -26.837600
C -21.696600 -8.608400 -27.946900
H -21.229300 -9.779700 -26.338800
C -20.311000 -8.295300 -28.342300
N -20.031700 -7.458900 -29.388500
C -19.117400 -8.702900 -27.790600
H -18.988000 -9.286800 -27.052500
N -18.730100 -7.334900 -29.500100
N -18.172400 -8.088200 -28.531900
O -16.762100 -9.837200 -30.073500
C -16.728000 -8.137700 -28.397600
H -16.497100 -8.323600 -27.452900
H -16.350600 -7.253400 -28.633500
C -16.095300 -9.200500 -29.282500
C -14.626200 -9.398200 -29.155000
H -14.464200 -10.462900 -30.897400
H -14.331100 -8.384100 -27.403000
C -13.973800 -10.130100 -30.155000
C -13.895600 -8.895100 -28.075300
C -12.612200 -10.368200 -30.060300
C -12.532400 -9.143200 -27.986400
H -12.169300 -10.865400 -30.737900
H -12.036800 -8.807800 -27.248500
C -11.891600 -9.879700 -28.972900
H -10.959600 -10.051000 -28.906400
20
Fragment
O -27.106200 -6.850200 -22.313400
O -26.581600 -5.978600 -20.398900
N -26.297000 -6.615600 -21.413000
H -25.301700 -8.173800 -23.296100
C -24.940900 -7.109400 -21.574100
C -24.624900 -7.918300 -22.680200
H -24.224800 -6.227500 -19.901600
C -23.988700 -6.746700 -20.661300
C -23.336700 -8.333000 -22.860900
H -23.133900 -8.892900 -23.601100
C -22.670700 -7.146600 -20.857800
C -22.285400 -7.953100 -21.974900
O -22.148800 -6.272900 -18.792800
N -21.726600 -6.741600 -19.855800
N -21.033300 -8.369600 -22.190700
H -20.802200 -10.086200 -22.922000
N -20.757800 -9.275800 -23.242700
O -20.511400 -6.887900 -20.070400
H -20.404200 -8.194900 -21.621800
H -19.915400 -9.134300 -23.458500
53
Fragment
H -25.215900 -9.359900 -26.919100
H -24.807400 -8.004500 -28.782800
C -24.323100 -9.169700 -27.182400
C -24.080600 -8.364300 -28.288300
H -23.425300 -10.250200 -25.708000
C -23.258100 -9.696600 -26.461800
C -22.773500 -8.085400 -28.670700
H -22.610500 -7.536100 -29.428400
C -21.952500 -9.418200 -26.837600
C -21.696600 -8.608400 -27.946900
H -21.229300 -9.779700 -26.338800
C -20.311000 -8.295300 -28.342300
N -20.031700 -7.458900 -29.388500
C -19.117400 -8.702900 -27.790600
H -18.988000 -9.286800 -27.052500
N -18.730100 -7.334900 -29.500100
N -18.172400 -8.088200 -28.531900
O -16.762100 -9.837200 -30.073500
C -16.728000 -8.137700 -28.397600
H -16.497100 -8.323600 -27.452900
H -16.350600 -7.253400 -28.633500
C -16.095300 -9.200500 -29.282500
C -14.626200 -9.398200 -29.155000
H -14.464200 -10.462900 -30.897400
H -14.331100 -8.384100 -27.403000
C -13.973800 -10.130100 -30.155000
C -13.895600 -8.895100 -28.075300
C -12.612200 -10.368200 -30.060300
C -12.532400 -9.143200 -27.986400
H -12.169300 -10.865400 -30.737900
H -12.036800 -8.807800 -27.248500
C -11.891600 -9.879700 -28.972900
H -10.959600 -10.051000 -28.906400
O -27.106200 -6.850200 -22.313400
O -26.581600 -5.978600 -20.398900
N -26.297000 -6.615600 -21.413000
H -25.301700 -8.173800 -23.296100
C -24.940900 -7.109400 -21.574100
C -24.624900 -7.918300 -22.680200
H -24.224800 -6.227500 -19.901600
C -23.988700 -6.746700 -20.661300
C -23.336700 -8.333000 -22.860900
H -23.133900 -8.892900 -23.601100
C -22.670700 -7.146600 -20.857800
C -22.285400 -7.953100 -21.974900
O -22.148800 -6.272900 -18.792800
N -21.726600 -6.741600 -19.855800
N -21.033300 -8.369600 -22.190700
H -20.802200 -10.086200 -22.922000
N -20.757800 -9.275800 -23.242700
O -20.511400 -6.887900 -20.070400
H -20.404200 -8.194900 -21.621800
H -19.915400 -9.134300 -23.458500
