33
Fragment
H -25.215900 -9.359900 -26.919100
H -24.807400 -8.004500 -28.782800
C -24.323100 -9.169700 -27.182400
C -24.080600 -8.364300 -28.288300
H -23.425300 -10.250200 -25.708000
C -23.258100 -9.696600 -26.461800
C -22.773500 -8.085400 -28.670700
H -22.610500 -7.536100 -29.428400
C -21.952500 -9.418200 -26.837600
C -21.696600 -8.608400 -27.946900
H -21.229300 -9.779700 -26.338800
C -20.311000 -8.295300 -28.342300
N -20.031700 -7.458900 -29.388500
C -19.117400 -8.702900 -27.790600
H -18.988000 -9.286800 -27.052500
N -18.730100 -7.334900 -29.500100
N -18.172400 -8.088200 -28.531900
O -16.762100 -9.837200 -30.073500
C -16.728000 -8.137700 -28.397600
H -16.497100 -8.323600 -27.452900
H -16.350600 -7.253400 -28.633500
C -16.095300 -9.200500 -29.282500
C -14.626200 -9.398200 -29.155000
H -14.464200 -10.462900 -30.897400
H -14.331100 -8.384100 -27.403000
C -13.973800 -10.130100 -30.155000
C -13.895600 -8.895100 -28.075300
C -12.612200 -10.368200 -30.060300
C -12.532400 -9.143200 -27.986400
H -12.169300 -10.865400 -30.737900
H -12.036800 -8.807800 -27.248500
C -11.891600 -9.879700 -28.972900
H -10.959600 -10.051000 -28.906400
33
Fragment
H -24.595900 -13.746400 -33.687900
C -23.663900 -13.575100 -33.621300
H -23.518700 -12.503200 -35.345700
H -23.386100 -14.560800 -31.856400
C -23.023100 -12.838600 -34.607800
C -22.943300 -14.063600 -32.534000
C -21.659800 -12.590500 -34.518900
C -21.581700 -13.825500 -32.439200
H -21.224300 -12.079500 -35.191200
H -21.091300 -14.158300 -31.696800
C -20.929200 -13.093600 -33.439300
C -19.460200 -12.895900 -33.311800
H -19.204800 -10.948800 -33.960800
H -19.058400 -12.019000 -35.141300
C -18.827400 -11.833100 -34.196700
O -18.793400 -13.532600 -32.520800
N -17.383000 -11.783600 -34.062400
N -16.825300 -11.030300 -33.094100
H -16.567500 -12.982200 -35.541700
C -16.438100 -12.398300 -34.803700
N -15.523800 -11.154300 -33.205700
C -15.244500 -11.990700 -34.251900
H -14.326100 -13.475100 -36.255500
C -13.858800 -12.303800 -34.647300
C -13.602900 -13.113600 -35.756700
H -12.944900 -11.231500 -33.165800
C -12.781900 -11.780800 -33.923600
C -12.297300 -13.392000 -36.132400
H -12.130200 -13.945600 -36.886300
C -11.474800 -12.059700 -34.305900
C -11.232300 -12.865100 -35.411900
H -10.748000 -11.699900 -33.811400
H -10.339600 -13.055300 -35.675100
66
Fragment
H -25.215900 -9.359900 -26.919100
H -24.807400 -8.004500 -28.782800
C -24.323100 -9.169700 -27.182400
C -24.080600 -8.364300 -28.288300
H -23.425300 -10.250200 -25.708000
C -23.258100 -9.696600 -26.461800
C -22.773500 -8.085400 -28.670700
H -22.610500 -7.536100 -29.428400
C -21.952500 -9.418200 -26.837600
C -21.696600 -8.608400 -27.946900
H -21.229300 -9.779700 -26.338800
C -20.311000 -8.295300 -28.342300
N -20.031700 -7.458900 -29.388500
C -19.117400 -8.702900 -27.790600
H -18.988000 -9.286800 -27.052500
N -18.730100 -7.334900 -29.500100
N -18.172400 -8.088200 -28.531900
O -16.762100 -9.837200 -30.073500
C -16.728000 -8.137700 -28.397600
H -16.497100 -8.323600 -27.452900
H -16.350600 -7.253400 -28.633500
C -16.095300 -9.200500 -29.282500
C -14.626200 -9.398200 -29.155000
H -14.464200 -10.462900 -30.897400
H -14.331100 -8.384100 -27.403000
C -13.973800 -10.130100 -30.155000
C -13.895600 -8.895100 -28.075300
C -12.612200 -10.368200 -30.060300
C -12.532400 -9.143200 -27.986400
H -12.169300 -10.865400 -30.737900
H -12.036800 -8.807800 -27.248500
C -11.891600 -9.879700 -28.972900
H -10.959600 -10.051000 -28.906400
H -24.595900 -13.746400 -33.687900
C -23.663900 -13.575100 -33.621300
H -23.518700 -12.503200 -35.345700
H -23.386100 -14.560800 -31.856400
C -23.023100 -12.838600 -34.607800
C -22.943300 -14.063600 -32.534000
C -21.659800 -12.590500 -34.518900
C -21.581700 -13.825500 -32.439200
H -21.224300 -12.079500 -35.191200
H -21.091300 -14.158300 -31.696800
C -20.929200 -13.093600 -33.439300
C -19.460200 -12.895900 -33.311800
H -19.204800 -10.948800 -33.960800
H -19.058400 -12.019000 -35.141300
C -18.827400 -11.833100 -34.196700
O -18.793400 -13.532600 -32.520800
N -17.383000 -11.783600 -34.062400
N -16.825300 -11.030300 -33.094100
H -16.567500 -12.982200 -35.541700
C -16.438100 -12.398300 -34.803700
N -15.523800 -11.154300 -33.205700
C -15.244500 -11.990700 -34.251900
H -14.326100 -13.475100 -36.255500
C -13.858800 -12.303800 -34.647300
C -13.602900 -13.113600 -35.756700
H -12.944900 -11.231500 -33.165800
C -12.781900 -11.780800 -33.923600
C -12.297300 -13.392000 -36.132400
H -12.130200 -13.945600 -36.886300
C -11.474800 -12.059700 -34.305900
C -11.232300 -12.865100 -35.411900
H -10.748000 -11.699900 -33.811400
H -10.339600 -13.055300 -35.675100
