33
Fragment
H -25.215900 -9.359900 -26.919100
H -24.807400 -8.004500 -28.782800
C -24.323100 -9.169700 -27.182400
C -24.080600 -8.364300 -28.288300
H -23.425300 -10.250200 -25.708000
C -23.258100 -9.696600 -26.461800
C -22.773500 -8.085400 -28.670700
H -22.610500 -7.536100 -29.428400
C -21.952500 -9.418200 -26.837600
C -21.696600 -8.608400 -27.946900
H -21.229300 -9.779700 -26.338800
C -20.311000 -8.295300 -28.342300
N -20.031700 -7.458900 -29.388500
C -19.117400 -8.702900 -27.790600
H -18.988000 -9.286800 -27.052500
N -18.730100 -7.334900 -29.500100
N -18.172400 -8.088200 -28.531900
O -16.762100 -9.837200 -30.073500
C -16.728000 -8.137700 -28.397600
H -16.497100 -8.323600 -27.452900
H -16.350600 -7.253400 -28.633500
C -16.095300 -9.200500 -29.282500
C -14.626200 -9.398200 -29.155000
H -14.464200 -10.462900 -30.897400
H -14.331100 -8.384100 -27.403000
C -13.973800 -10.130100 -30.155000
C -13.895600 -8.895100 -28.075300
C -12.612200 -10.368200 -30.060300
C -12.532400 -9.143200 -27.986400
H -12.169300 -10.865400 -30.737900
H -12.036800 -8.807800 -27.248500
C -11.891600 -9.879700 -28.972900
H -10.959600 -10.051000 -28.906400
20
Fragment
H -18.864400 -12.829700 -21.251600
H -18.375500 -11.890300 -23.088300
O -18.268300 -10.583300 -24.639800
N -18.022000 -12.971200 -21.467500
H -17.977600 -13.781600 -21.788200
N -17.746400 -12.065000 -22.519400
N -17.053200 -10.437000 -24.854400
O -16.630900 -9.968300 -25.917400
C -16.494300 -11.648500 -22.735300
C -16.109000 -10.842000 -23.852300
H -15.645900 -12.588300 -21.109100
C -15.443100 -12.028400 -21.849300
C -14.791100 -10.442100 -24.048900
H -14.555000 -9.922900 -24.808600
C -14.154900 -11.613700 -22.030000
C -13.838800 -10.804800 -23.136100
H -13.478100 -11.869200 -21.414000
N -12.482800 -10.311000 -23.297200
O -12.198200 -9.674000 -24.311200
O -11.673500 -10.545600 -22.396800
53
Fragment
H -25.215900 -9.359900 -26.919100
H -24.807400 -8.004500 -28.782800
C -24.323100 -9.169700 -27.182400
C -24.080600 -8.364300 -28.288300
H -23.425300 -10.250200 -25.708000
C -23.258100 -9.696600 -26.461800
C -22.773500 -8.085400 -28.670700
H -22.610500 -7.536100 -29.428400
C -21.952500 -9.418200 -26.837600
C -21.696600 -8.608400 -27.946900
H -21.229300 -9.779700 -26.338800
C -20.311000 -8.295300 -28.342300
N -20.031700 -7.458900 -29.388500
C -19.117400 -8.702900 -27.790600
H -18.988000 -9.286800 -27.052500
N -18.730100 -7.334900 -29.500100
N -18.172400 -8.088200 -28.531900
O -16.762100 -9.837200 -30.073500
C -16.728000 -8.137700 -28.397600
H -16.497100 -8.323600 -27.452900
H -16.350600 -7.253400 -28.633500
C -16.095300 -9.200500 -29.282500
C -14.626200 -9.398200 -29.155000
H -14.464200 -10.462900 -30.897400
H -14.331100 -8.384100 -27.403000
C -13.973800 -10.130100 -30.155000
C -13.895600 -8.895100 -28.075300
C -12.612200 -10.368200 -30.060300
C -12.532400 -9.143200 -27.986400
H -12.169300 -10.865400 -30.737900
H -12.036800 -8.807800 -27.248500
C -11.891600 -9.879700 -28.972900
H -10.959600 -10.051000 -28.906400
H -18.864400 -12.829700 -21.251600
H -18.375500 -11.890300 -23.088300
O -18.268300 -10.583300 -24.639800
N -18.022000 -12.971200 -21.467500
H -17.977600 -13.781600 -21.788200
N -17.746400 -12.065000 -22.519400
N -17.053200 -10.437000 -24.854400
O -16.630900 -9.968300 -25.917400
C -16.494300 -11.648500 -22.735300
C -16.109000 -10.842000 -23.852300
H -15.645900 -12.588300 -21.109100
C -15.443100 -12.028400 -21.849300
C -14.791100 -10.442100 -24.048900
H -14.555000 -9.922900 -24.808600
C -14.154900 -11.613700 -22.030000
C -13.838800 -10.804800 -23.136100
H -13.478100 -11.869200 -21.414000
N -12.482800 -10.311000 -23.297200
O -12.198200 -9.674000 -24.311200
O -11.673500 -10.545600 -22.396800
