33
Fragment
H -25.215900 -9.359900 -26.919100
H -24.807400 -8.004500 -28.782800
C -24.323100 -9.169700 -27.182400
C -24.080600 -8.364300 -28.288300
H -23.425300 -10.250200 -25.708000
C -23.258100 -9.696600 -26.461800
C -22.773500 -8.085400 -28.670700
H -22.610500 -7.536100 -29.428400
C -21.952500 -9.418200 -26.837600
C -21.696600 -8.608400 -27.946900
H -21.229300 -9.779700 -26.338800
C -20.311000 -8.295300 -28.342300
N -20.031700 -7.458900 -29.388500
C -19.117400 -8.702900 -27.790600
H -18.988000 -9.286800 -27.052500
N -18.730100 -7.334900 -29.500100
N -18.172400 -8.088200 -28.531900
O -16.762100 -9.837200 -30.073500
C -16.728000 -8.137700 -28.397600
H -16.497100 -8.323600 -27.452900
H -16.350600 -7.253400 -28.633500
C -16.095300 -9.200500 -29.282500
C -14.626200 -9.398200 -29.155000
H -14.464200 -10.462900 -30.897400
H -14.331100 -8.384100 -27.403000
C -13.973800 -10.130100 -30.155000
C -13.895600 -8.895100 -28.075300
C -12.612200 -10.368200 -30.060300
C -12.532400 -9.143200 -27.986400
H -12.169300 -10.865400 -30.737900
H -12.036800 -8.807800 -27.248500
C -11.891600 -9.879700 -28.972900
H -10.959600 -10.051000 -28.906400
20
Fragment
H -17.252200 -13.038100 -30.193700
H -16.763400 -13.977500 -32.030400
O -16.656200 -15.284500 -33.581800
N -16.409800 -12.896600 -30.409500
H -16.365400 -12.086200 -30.730200
N -16.134300 -13.802800 -31.461500
N -15.441000 -15.430800 -33.796400
O -15.018800 -15.899500 -34.859500
C -14.882200 -14.219300 -31.677300
C -14.496900 -15.025800 -32.794400
H -14.033700 -13.279500 -30.051100
C -13.830900 -13.839400 -30.791400
C -13.179000 -15.425700 -32.990900
H -12.942800 -15.944900 -33.750600
C -12.542700 -14.254100 -30.972000
C -12.226700 -15.063000 -32.078100
H -11.865900 -13.998600 -30.356100
N -10.870600 -15.556800 -32.239300
O -10.586000 -16.193800 -33.253300
O -10.061400 -15.322200 -31.338800
53
Fragment
H -25.215900 -9.359900 -26.919100
H -24.807400 -8.004500 -28.782800
C -24.323100 -9.169700 -27.182400
C -24.080600 -8.364300 -28.288300
H -23.425300 -10.250200 -25.708000
C -23.258100 -9.696600 -26.461800
C -22.773500 -8.085400 -28.670700
H -22.610500 -7.536100 -29.428400
C -21.952500 -9.418200 -26.837600
C -21.696600 -8.608400 -27.946900
H -21.229300 -9.779700 -26.338800
C -20.311000 -8.295300 -28.342300
N -20.031700 -7.458900 -29.388500
C -19.117400 -8.702900 -27.790600
H -18.988000 -9.286800 -27.052500
N -18.730100 -7.334900 -29.500100
N -18.172400 -8.088200 -28.531900
O -16.762100 -9.837200 -30.073500
C -16.728000 -8.137700 -28.397600
H -16.497100 -8.323600 -27.452900
H -16.350600 -7.253400 -28.633500
C -16.095300 -9.200500 -29.282500
C -14.626200 -9.398200 -29.155000
H -14.464200 -10.462900 -30.897400
H -14.331100 -8.384100 -27.403000
C -13.973800 -10.130100 -30.155000
C -13.895600 -8.895100 -28.075300
C -12.612200 -10.368200 -30.060300
C -12.532400 -9.143200 -27.986400
H -12.169300 -10.865400 -30.737900
H -12.036800 -8.807800 -27.248500
C -11.891600 -9.879700 -28.972900
H -10.959600 -10.051000 -28.906400
H -17.252200 -13.038100 -30.193700
H -16.763400 -13.977500 -32.030400
O -16.656200 -15.284500 -33.581800
N -16.409800 -12.896600 -30.409500
H -16.365400 -12.086200 -30.730200
N -16.134300 -13.802800 -31.461500
N -15.441000 -15.430800 -33.796400
O -15.018800 -15.899500 -34.859500
C -14.882200 -14.219300 -31.677300
C -14.496900 -15.025800 -32.794400
H -14.033700 -13.279500 -30.051100
C -13.830900 -13.839400 -30.791400
C -13.179000 -15.425700 -32.990900
H -12.942800 -15.944900 -33.750600
C -12.542700 -14.254100 -30.972000
C -12.226700 -15.063000 -32.078100
H -11.865900 -13.998600 -30.356100
N -10.870600 -15.556800 -32.239300
O -10.586000 -16.193800 -33.253300
O -10.061400 -15.322200 -31.338800
