20
Fragment
H -12.808300 -3.085100 -19.492200
N -12.501600 -3.491300 -21.486700
N -12.395100 -3.655400 -20.115900
O -12.372200 -3.791900 -17.529600
N -12.213400 -3.928400 -26.527300
O -12.183600 -4.016200 -24.283000
O -12.006700 -3.792300 -28.717700
C -11.869300 -4.505700 -21.950800
C -11.835200 -4.586100 -25.458700
N -11.772700 -4.891800 -17.563200
N -11.767600 -4.457000 -27.714800
C -11.705100 -4.762700 -19.819300
C -11.671000 -4.843100 -23.327200
O -11.533600 -5.556500 -16.560300
O -11.356700 -5.332600 -20.995000
N -11.326900 -5.420400 -18.750800
O -11.168100 -5.556900 -27.748400
N -11.145200 -5.693400 -25.162100
N -11.038700 -5.857500 -23.791300
H -10.732000 -6.263700 -25.785800
20
Fragment
H -15.750800 -8.600900 -25.151900
N -15.444100 -8.194700 -27.146400
N -15.337600 -8.030600 -25.775600
O -15.314700 -7.894100 -23.189400
N -15.156000 -7.757600 -32.187000
O -15.126100 -7.669800 -29.942800
O -14.949200 -7.893700 -34.377400
C -14.811800 -7.180300 -27.610500
C -14.777700 -7.099900 -31.118400
N -14.715200 -6.794200 -23.223000
N -14.710100 -7.229000 -33.374500
C -14.647600 -6.923300 -25.479100
C -14.613500 -6.842900 -28.987000
O -14.476100 -6.129500 -22.220100
O -14.299200 -6.353400 -26.654700
N -14.269400 -6.265600 -24.410500
O -14.110700 -6.129100 -33.408100
N -14.087800 -5.992600 -30.821900
N -13.981200 -5.828500 -29.451100
H -13.674500 -5.422300 -31.445600
40
Fragment
H -12.808300 -3.085100 -19.492200
N -12.501600 -3.491300 -21.486700
N -12.395100 -3.655400 -20.115900
O -12.372200 -3.791900 -17.529600
N -12.213400 -3.928400 -26.527300
O -12.183600 -4.016200 -24.283000
O -12.006700 -3.792300 -28.717700
C -11.869300 -4.505700 -21.950800
C -11.835200 -4.586100 -25.458700
N -11.772700 -4.891800 -17.563200
N -11.767600 -4.457000 -27.714800
C -11.705100 -4.762700 -19.819300
C -11.671000 -4.843100 -23.327200
O -11.533600 -5.556500 -16.560300
O -11.356700 -5.332600 -20.995000
N -11.326900 -5.420400 -18.750800
O -11.168100 -5.556900 -27.748400
N -11.145200 -5.693400 -25.162100
N -11.038700 -5.857500 -23.791300
H -10.732000 -6.263700 -25.785800
H -15.750800 -8.600900 -25.151900
N -15.444100 -8.194700 -27.146400
N -15.337600 -8.030600 -25.775600
O -15.314700 -7.894100 -23.189400
N -15.156000 -7.757600 -32.187000
O -15.126100 -7.669800 -29.942800
O -14.949200 -7.893700 -34.377400
C -14.811800 -7.180300 -27.610500
C -14.777700 -7.099900 -31.118400
N -14.715200 -6.794200 -23.223000
N -14.710100 -7.229000 -33.374500
C -14.647600 -6.923300 -25.479100
C -14.613500 -6.842900 -28.987000
O -14.476100 -6.129500 -22.220100
O -14.299200 -6.353400 -26.654700
N -14.269400 -6.265600 -24.410500
O -14.110700 -6.129100 -33.408100
N -14.087800 -5.992600 -30.821900
N -13.981200 -5.828500 -29.451100
H -13.674500 -5.422300 -31.445600
