20
Fragment
H -12.808300 -3.085100 -19.492200
N -12.501600 -3.491300 -21.486700
N -12.395100 -3.655400 -20.115900
O -12.372200 -3.791900 -17.529600
N -12.213400 -3.928400 -26.527300
O -12.183600 -4.016200 -24.283000
O -12.006700 -3.792300 -28.717700
C -11.869300 -4.505700 -21.950800
C -11.835200 -4.586100 -25.458700
N -11.772700 -4.891800 -17.563200
N -11.767600 -4.457000 -27.714800
C -11.705100 -4.762700 -19.819300
C -11.671000 -4.843100 -23.327200
O -11.533600 -5.556500 -16.560300
O -11.356700 -5.332600 -20.995000
N -11.326900 -5.420400 -18.750800
O -11.168100 -5.556900 -27.748400
N -11.145200 -5.693400 -25.162100
N -11.038700 -5.857500 -23.791300
H -10.732000 -6.263700 -25.785800
20
Fragment
H -9.310200 -3.085100 -30.811700
N -9.003500 -3.491300 -32.806200
N -8.896900 -3.655400 -31.435400
O -8.874000 -3.791900 -28.849100
N -8.715300 -3.928400 -37.846800
O -8.685500 -4.016200 -35.602500
O -8.508600 -3.792300 -40.037200
C -8.371200 -4.505700 -33.270300
C -8.337100 -4.586100 -36.778200
N -8.274600 -4.891800 -28.882700
N -8.269500 -4.457000 -39.034300
C -8.207000 -4.762700 -31.138800
C -8.172900 -4.843100 -34.646700
O -8.035500 -5.556500 -27.879800
O -7.858600 -5.332600 -32.314500
N -7.828800 -5.420400 -30.070300
O -7.670000 -5.556900 -39.067900
N -7.647100 -5.693400 -36.481600
N -7.540600 -5.857500 -35.110800
H -7.233900 -6.263700 -37.105300
40
Fragment
H -12.808300 -3.085100 -19.492200
N -12.501600 -3.491300 -21.486700
N -12.395100 -3.655400 -20.115900
O -12.372200 -3.791900 -17.529600
N -12.213400 -3.928400 -26.527300
O -12.183600 -4.016200 -24.283000
O -12.006700 -3.792300 -28.717700
C -11.869300 -4.505700 -21.950800
C -11.835200 -4.586100 -25.458700
N -11.772700 -4.891800 -17.563200
N -11.767600 -4.457000 -27.714800
C -11.705100 -4.762700 -19.819300
C -11.671000 -4.843100 -23.327200
O -11.533600 -5.556500 -16.560300
O -11.356700 -5.332600 -20.995000
N -11.326900 -5.420400 -18.750800
O -11.168100 -5.556900 -27.748400
N -11.145200 -5.693400 -25.162100
N -11.038700 -5.857500 -23.791300
H -10.732000 -6.263700 -25.785800
H -9.310200 -3.085100 -30.811700
N -9.003500 -3.491300 -32.806200
N -8.896900 -3.655400 -31.435400
O -8.874000 -3.791900 -28.849100
N -8.715300 -3.928400 -37.846800
O -8.685500 -4.016200 -35.602500
O -8.508600 -3.792300 -40.037200
C -8.371200 -4.505700 -33.270300
C -8.337100 -4.586100 -36.778200
N -8.274600 -4.891800 -28.882700
N -8.269500 -4.457000 -39.034300
C -8.207000 -4.762700 -31.138800
C -8.172900 -4.843100 -34.646700
O -8.035500 -5.556500 -27.879800
O -7.858600 -5.332600 -32.314500
N -7.828800 -5.420400 -30.070300
O -7.670000 -5.556900 -39.067900
N -7.647100 -5.693400 -36.481600
N -7.540600 -5.857500 -35.110800
H -7.233900 -6.263700 -37.105300
