20
Fragment
H -12.808300 -3.085100 -19.492200
N -12.501600 -3.491300 -21.486700
N -12.395100 -3.655400 -20.115900
O -12.372200 -3.791900 -17.529600
N -12.213400 -3.928400 -26.527300
O -12.183600 -4.016200 -24.283000
O -12.006700 -3.792300 -28.717700
C -11.869300 -4.505700 -21.950800
C -11.835200 -4.586100 -25.458700
N -11.772700 -4.891800 -17.563200
N -11.767600 -4.457000 -27.714800
C -11.705100 -4.762700 -19.819300
C -11.671000 -4.843100 -23.327200
O -11.533600 -5.556500 -16.560300
O -11.356700 -5.332600 -20.995000
N -11.326900 -5.420400 -18.750800
O -11.168100 -5.556900 -27.748400
N -11.145200 -5.693400 -25.162100
N -11.038700 -5.857500 -23.791300
H -10.732000 -6.263700 -25.785800
20
Fragment
H -9.865800 -3.926500 -13.832400
N -9.559000 -3.520300 -15.826900
N -9.452500 -3.356200 -14.456100
O -9.429600 -3.219700 -11.869900
N -9.270900 -3.083200 -20.867500
O -9.241100 -2.995400 -18.623300
O -9.064100 -3.219300 -23.057900
C -8.926800 -2.505900 -16.291000
C -8.892700 -2.425500 -19.798900
N -8.830100 -2.119800 -11.903500
N -8.825100 -2.554600 -22.055000
C -8.762600 -2.248900 -14.159600
C -8.728500 -2.168500 -17.667500
O -8.591100 -1.455100 -10.900600
O -8.414200 -1.679000 -15.335200
N -8.384300 -1.591200 -13.091000
O -8.225600 -1.454700 -22.088600
N -8.202700 -1.318200 -19.502400
N -8.096200 -1.154100 -18.131600
H -7.789400 -0.747900 -20.126100
40
Fragment
H -12.808300 -3.085100 -19.492200
N -12.501600 -3.491300 -21.486700
N -12.395100 -3.655400 -20.115900
O -12.372200 -3.791900 -17.529600
N -12.213400 -3.928400 -26.527300
O -12.183600 -4.016200 -24.283000
O -12.006700 -3.792300 -28.717700
C -11.869300 -4.505700 -21.950800
C -11.835200 -4.586100 -25.458700
N -11.772700 -4.891800 -17.563200
N -11.767600 -4.457000 -27.714800
C -11.705100 -4.762700 -19.819300
C -11.671000 -4.843100 -23.327200
O -11.533600 -5.556500 -16.560300
O -11.356700 -5.332600 -20.995000
N -11.326900 -5.420400 -18.750800
O -11.168100 -5.556900 -27.748400
N -11.145200 -5.693400 -25.162100
N -11.038700 -5.857500 -23.791300
H -10.732000 -6.263700 -25.785800
H -9.865800 -3.926500 -13.832400
N -9.559000 -3.520300 -15.826900
N -9.452500 -3.356200 -14.456100
O -9.429600 -3.219700 -11.869900
N -9.270900 -3.083200 -20.867500
O -9.241100 -2.995400 -18.623300
O -9.064100 -3.219300 -23.057900
C -8.926800 -2.505900 -16.291000
C -8.892700 -2.425500 -19.798900
N -8.830100 -2.119800 -11.903500
N -8.825100 -2.554600 -22.055000
C -8.762600 -2.248900 -14.159600
C -8.728500 -2.168500 -17.667500
O -8.591100 -1.455100 -10.900600
O -8.414200 -1.679000 -15.335200
N -8.384300 -1.591200 -13.091000
O -8.225600 -1.454700 -22.088600
N -8.202700 -1.318200 -19.502400
N -8.096200 -1.154100 -18.131600
H -7.789400 -0.747900 -20.126100
