12
Fragment
F -1.490600 -30.991800 -13.674700
H -0.371000 -33.140900 -14.416300
C -0.337000 -31.152100 -14.358700
O -0.026600 -28.805400 -14.505100
C 0.113500 -32.366300 -14.678600
C 0.349700 -29.937200 -14.733900
N 1.283900 -32.488900 -15.389800
N 1.531400 -30.192200 -15.438600
H 1.576600 -33.295800 -15.583400
C 2.006100 -31.423000 -15.804400
H 2.016200 -29.494900 -15.668000
O 3.043200 -31.552100 -16.467000
12
Fragment
O 0.224900 -27.413000 -11.061100
H 1.163800 -25.251300 -11.573700
C 1.253200 -27.172400 -11.699300
N 1.676500 -25.882500 -11.908300
F 1.818700 -29.447600 -12.156200
C 2.139700 -28.143700 -12.294900
C 2.801300 -25.454300 -12.575800
O 3.069400 -24.263400 -12.656900
C 3.243600 -27.778200 -12.965200
N 3.569800 -26.450700 -13.103800
H 3.804100 -28.443400 -13.346900
H 4.298700 -26.236400 -13.547800
24
Fragment
F -1.490600 -30.991800 -13.674700
H -0.371000 -33.140900 -14.416300
C -0.337000 -31.152100 -14.358700
O -0.026600 -28.805400 -14.505100
C 0.113500 -32.366300 -14.678600
C 0.349700 -29.937200 -14.733900
N 1.283900 -32.488900 -15.389800
N 1.531400 -30.192200 -15.438600
H 1.576600 -33.295800 -15.583400
C 2.006100 -31.423000 -15.804400
H 2.016200 -29.494900 -15.668000
O 3.043200 -31.552100 -16.467000
O 0.224900 -27.413000 -11.061100
H 1.163800 -25.251300 -11.573700
C 1.253200 -27.172400 -11.699300
N 1.676500 -25.882500 -11.908300
F 1.818700 -29.447600 -12.156200
C 2.139700 -28.143700 -12.294900
C 2.801300 -25.454300 -12.575800
O 3.069400 -24.263400 -12.656900
C 3.243600 -27.778200 -12.965200
N 3.569800 -26.450700 -13.103800
H 3.804100 -28.443400 -13.346900
H 4.298700 -26.236400 -13.547800
