12
Fragment
F -11.436400 -14.686600 -11.294000
H -11.399200 -15.298200 -13.758200
C -10.619800 -15.584200 -13.296600
C -10.485500 -15.344200 -11.991900
H -9.723500 -16.392100 -14.830100
N -9.624000 -16.247600 -13.967600
C -9.326800 -15.755700 -11.243100
O -9.157000 -15.553200 -10.045700
C -8.486500 -16.694300 -13.360500
N -8.395800 -16.423800 -12.013100
H -7.670900 -16.705100 -11.601000
O -7.593900 -17.295600 -13.956100
12
Fragment
F -5.633100 -14.686600 -11.294000
H -5.595900 -15.298200 -13.758200
C -4.816500 -15.584200 -13.296600
C -4.682200 -15.344200 -11.991900
H -3.920200 -16.392100 -14.830100
N -3.820700 -16.247600 -13.967600
C -3.523500 -15.755700 -11.243100
O -3.353700 -15.553200 -10.045700
C -2.683200 -16.694300 -13.360500
N -2.592500 -16.423800 -12.013100
H -1.867600 -16.705100 -11.601000
O -1.790600 -17.295600 -13.956100
24
Fragment
F -11.436400 -14.686600 -11.294000
H -11.399200 -15.298200 -13.758200
C -10.619800 -15.584200 -13.296600
C -10.485500 -15.344200 -11.991900
H -9.723500 -16.392100 -14.830100
N -9.624000 -16.247600 -13.967600
C -9.326800 -15.755700 -11.243100
O -9.157000 -15.553200 -10.045700
C -8.486500 -16.694300 -13.360500
N -8.395800 -16.423800 -12.013100
H -7.670900 -16.705100 -11.601000
O -7.593900 -17.295600 -13.956100
F -5.633100 -14.686600 -11.294000
H -5.595900 -15.298200 -13.758200
C -4.816500 -15.584200 -13.296600
C -4.682200 -15.344200 -11.991900
H -3.920200 -16.392100 -14.830100
N -3.820700 -16.247600 -13.967600
C -3.523500 -15.755700 -11.243100
O -3.353700 -15.553200 -10.045700
C -2.683200 -16.694300 -13.360500
N -2.592500 -16.423800 -12.013100
H -1.867600 -16.705100 -11.601000
O -1.790600 -17.295600 -13.956100
