12
Fragment
F -1.490600 -30.991800 -13.674700
H -0.371000 -33.140900 -14.416300
C -0.337000 -31.152100 -14.358700
O -0.026600 -28.805400 -14.505100
C 0.113500 -32.366300 -14.678600
C 0.349700 -29.937200 -14.733900
N 1.283900 -32.488900 -15.389800
N 1.531400 -30.192200 -15.438600
H 1.576600 -33.295800 -15.583400
C 2.006100 -31.423000 -15.804400
H 2.016200 -29.494900 -15.668000
O 3.043200 -31.552100 -16.467000
24
Fragment
H -1.038700 -23.513600 -14.089100
C -0.298400 -23.903200 -14.538100
N -0.199200 -25.240300 -14.546600
H 0.492300 -22.114600 -15.114600
C 0.614700 -23.057100 -15.144900
C 0.849900 -25.761600 -15.191700
H 0.935800 -26.707900 -15.221100
C 1.721100 -23.608300 -15.803300
C 1.819600 -24.994500 -15.819500
H 2.107400 -20.998900 -16.062200
H 2.549500 -25.415100 -16.259800
C 2.764700 -22.804300 -16.448900
C 2.813700 -21.469100 -16.490100
H 3.028900 -18.858300 -16.679200
H 3.470900 -23.274500 -16.876800
C 3.758700 -19.278900 -17.119500
C 3.857200 -20.665100 -17.135700
H 4.642500 -17.565500 -17.717900
C 4.728400 -18.511800 -17.747300
C 4.963600 -21.216300 -17.794100
H 5.086100 -22.158800 -17.824400
N 5.777600 -19.033100 -18.392400
C 5.876700 -20.370200 -18.400900
H 6.617100 -20.759800 -18.849900
36
Fragment
F -1.490600 -30.991800 -13.674700
H -0.371000 -33.140900 -14.416300
C -0.337000 -31.152100 -14.358700
O -0.026600 -28.805400 -14.505100
C 0.113500 -32.366300 -14.678600
C 0.349700 -29.937200 -14.733900
N 1.283900 -32.488900 -15.389800
N 1.531400 -30.192200 -15.438600
H 1.576600 -33.295800 -15.583400
C 2.006100 -31.423000 -15.804400
H 2.016200 -29.494900 -15.668000
O 3.043200 -31.552100 -16.467000
H -1.038700 -23.513600 -14.089100
C -0.298400 -23.903200 -14.538100
N -0.199200 -25.240300 -14.546600
H 0.492300 -22.114600 -15.114600
C 0.614700 -23.057100 -15.144900
C 0.849900 -25.761600 -15.191700
H 0.935800 -26.707900 -15.221100
C 1.721100 -23.608300 -15.803300
C 1.819600 -24.994500 -15.819500
H 2.107400 -20.998900 -16.062200
H 2.549500 -25.415100 -16.259800
C 2.764700 -22.804300 -16.448900
C 2.813700 -21.469100 -16.490100
H 3.028900 -18.858300 -16.679200
H 3.470900 -23.274500 -16.876800
C 3.758700 -19.278900 -17.119500
C 3.857200 -20.665100 -17.135700
H 4.642500 -17.565500 -17.717900
C 4.728400 -18.511800 -17.747300
C 4.963600 -21.216300 -17.794100
H 5.086100 -22.158800 -17.824400
N 5.777600 -19.033100 -18.392400
C 5.876700 -20.370200 -18.400900
H 6.617100 -20.759800 -18.849900
