12
Fragment
F -1.490600 -30.991800 -13.674700
H -0.371000 -33.140900 -14.416300
C -0.337000 -31.152100 -14.358700
O -0.026600 -28.805400 -14.505100
C 0.113500 -32.366300 -14.678600
C 0.349700 -29.937200 -14.733900
N 1.283900 -32.488900 -15.389800
N 1.531400 -30.192200 -15.438600
H 1.576600 -33.295800 -15.583400
C 2.006100 -31.423000 -15.804400
H 2.016200 -29.494900 -15.668000
O 3.043200 -31.552100 -16.467000
12
Fragment
F 4.422000 -30.991800 -13.674700
H 5.541600 -33.140900 -14.416300
C 5.575600 -31.152100 -14.358700
O 5.886000 -28.805400 -14.505100
C 6.026100 -32.366300 -14.678600
C 6.262300 -29.937200 -14.733900
N 7.196500 -32.488900 -15.389800
N 7.444000 -30.192200 -15.438600
H 7.489200 -33.295800 -15.583400
C 7.918700 -31.423000 -15.804400
H 7.928800 -29.494900 -15.668000
O 8.955800 -31.552100 -16.467000
24
Fragment
F -1.490600 -30.991800 -13.674700
H -0.371000 -33.140900 -14.416300
C -0.337000 -31.152100 -14.358700
O -0.026600 -28.805400 -14.505100
C 0.113500 -32.366300 -14.678600
C 0.349700 -29.937200 -14.733900
N 1.283900 -32.488900 -15.389800
N 1.531400 -30.192200 -15.438600
H 1.576600 -33.295800 -15.583400
C 2.006100 -31.423000 -15.804400
H 2.016200 -29.494900 -15.668000
O 3.043200 -31.552100 -16.467000
F 4.422000 -30.991800 -13.674700
H 5.541600 -33.140900 -14.416300
C 5.575600 -31.152100 -14.358700
O 5.886000 -28.805400 -14.505100
C 6.026100 -32.366300 -14.678600
C 6.262300 -29.937200 -14.733900
N 7.196500 -32.488900 -15.389800
N 7.444000 -30.192200 -15.438600
H 7.489200 -33.295800 -15.583400
C 7.918700 -31.423000 -15.804400
H 7.928800 -29.494900 -15.668000
O 8.955800 -31.552100 -16.467000
