12
Fragment
F -1.490600 -30.991800 -13.674700
H -0.371000 -33.140900 -14.416300
C -0.337000 -31.152100 -14.358700
O -0.026600 -28.805400 -14.505100
C 0.113500 -32.366300 -14.678600
C 0.349700 -29.937200 -14.733900
N 1.283900 -32.488900 -15.389800
N 1.531400 -30.192200 -15.438600
H 1.576600 -33.295800 -15.583400
C 2.006100 -31.423000 -15.804400
H 2.016200 -29.494900 -15.668000
O 3.043200 -31.552100 -16.467000
12
Fragment
O -2.787100 -27.928800 -16.551000
H -1.848200 -30.090400 -17.063500
C -1.758800 -28.169400 -17.189100
N -1.335600 -29.459300 -17.398200
F -1.193300 -25.894200 -17.646100
C -0.872300 -27.198000 -17.784800
C -0.210700 -29.887400 -18.065600
O 0.057400 -31.078400 -18.146800
C 0.231600 -27.563500 -18.455100
N 0.557800 -28.891000 -18.593600
H 0.792100 -26.898300 -18.836700
H 1.286700 -29.105300 -19.037600
24
Fragment
F -1.490600 -30.991800 -13.674700
H -0.371000 -33.140900 -14.416300
C -0.337000 -31.152100 -14.358700
O -0.026600 -28.805400 -14.505100
C 0.113500 -32.366300 -14.678600
C 0.349700 -29.937200 -14.733900
N 1.283900 -32.488900 -15.389800
N 1.531400 -30.192200 -15.438600
H 1.576600 -33.295800 -15.583400
C 2.006100 -31.423000 -15.804400
H 2.016200 -29.494900 -15.668000
O 3.043200 -31.552100 -16.467000
O -2.787100 -27.928800 -16.551000
H -1.848200 -30.090400 -17.063500
C -1.758800 -28.169400 -17.189100
N -1.335600 -29.459300 -17.398200
F -1.193300 -25.894200 -17.646100
C -0.872300 -27.198000 -17.784800
C -0.210700 -29.887400 -18.065600
O 0.057400 -31.078400 -18.146800
C 0.231600 -27.563500 -18.455100
N 0.557800 -28.891000 -18.593600
H 0.792100 -26.898300 -18.836700
H 1.286700 -29.105300 -19.037600
