12
Fragment
F -11.436400 -14.686600 -11.294000
H -11.399200 -15.298200 -13.758200
C -10.619800 -15.584200 -13.296600
C -10.485500 -15.344200 -11.991900
H -9.723500 -16.392100 -14.830100
N -9.624000 -16.247600 -13.967600
C -9.326800 -15.755700 -11.243100
O -9.157000 -15.553200 -10.045700
C -8.486500 -16.694300 -13.360500
N -8.395800 -16.423800 -12.013100
H -7.670900 -16.705100 -11.601000
O -7.593900 -17.295600 -13.956100
12
Fragment
O -9.838600 -16.983000 -16.642500
H -9.761700 -17.573500 -18.997700
N -9.036800 -17.854900 -18.585500
C -8.946000 -17.584300 -17.238100
O -8.275600 -18.725400 -20.552900
C -8.105800 -18.522900 -19.355600
N -7.808500 -18.031100 -16.631100
H -7.709100 -17.886600 -15.768500
C -6.947100 -18.934500 -18.606700
C -6.812800 -18.694400 -17.302000
H -6.033300 -18.980500 -16.840500
F -5.996200 -19.592100 -19.304700
24
Fragment
F -11.436400 -14.686600 -11.294000
H -11.399200 -15.298200 -13.758200
C -10.619800 -15.584200 -13.296600
C -10.485500 -15.344200 -11.991900
H -9.723500 -16.392100 -14.830100
N -9.624000 -16.247600 -13.967600
C -9.326800 -15.755700 -11.243100
O -9.157000 -15.553200 -10.045700
C -8.486500 -16.694300 -13.360500
N -8.395800 -16.423800 -12.013100
H -7.670900 -16.705100 -11.601000
O -7.593900 -17.295600 -13.956100
O -9.838600 -16.983000 -16.642500
H -9.761700 -17.573500 -18.997700
N -9.036800 -17.854900 -18.585500
C -8.946000 -17.584300 -17.238100
O -8.275600 -18.725400 -20.552900
C -8.105800 -18.522900 -19.355600
N -7.808500 -18.031100 -16.631100
H -7.709100 -17.886600 -15.768500
C -6.947100 -18.934500 -18.606700
C -6.812800 -18.694400 -17.302000
H -6.033300 -18.980500 -16.840500
F -5.996200 -19.592100 -19.304700
