12
Fragment
F -11.436400 -14.686600 -11.294000
H -11.399200 -15.298200 -13.758200
C -10.619800 -15.584200 -13.296600
C -10.485500 -15.344200 -11.991900
H -9.723500 -16.392100 -14.830100
N -9.624000 -16.247600 -13.967600
C -9.326800 -15.755700 -11.243100
O -9.157000 -15.553200 -10.045700
C -8.486500 -16.694300 -13.360500
N -8.395800 -16.423800 -12.013100
H -7.670900 -16.705100 -11.601000
O -7.593900 -17.295600 -13.956100
12
Fragment
O -13.712700 -15.724500 -6.442900
H -13.635800 -16.315000 -8.798100
N -12.910900 -16.596400 -8.386000
C -12.820100 -16.325800 -7.038600
O -12.149700 -17.466900 -10.353400
C -11.979800 -17.264500 -9.156000
N -11.682600 -16.772600 -6.431500
H -11.583200 -16.628100 -5.569000
C -10.821200 -17.676000 -8.407200
C -10.686900 -17.435900 -7.102500
H -9.907400 -17.722000 -6.640900
F -9.870300 -18.333600 -9.105100
24
Fragment
F -11.436400 -14.686600 -11.294000
H -11.399200 -15.298200 -13.758200
C -10.619800 -15.584200 -13.296600
C -10.485500 -15.344200 -11.991900
H -9.723500 -16.392100 -14.830100
N -9.624000 -16.247600 -13.967600
C -9.326800 -15.755700 -11.243100
O -9.157000 -15.553200 -10.045700
C -8.486500 -16.694300 -13.360500
N -8.395800 -16.423800 -12.013100
H -7.670900 -16.705100 -11.601000
O -7.593900 -17.295600 -13.956100
O -13.712700 -15.724500 -6.442900
H -13.635800 -16.315000 -8.798100
N -12.910900 -16.596400 -8.386000
C -12.820100 -16.325800 -7.038600
O -12.149700 -17.466900 -10.353400
C -11.979800 -17.264500 -9.156000
N -11.682600 -16.772600 -6.431500
H -11.583200 -16.628100 -5.569000
C -10.821200 -17.676000 -8.407200
C -10.686900 -17.435900 -7.102500
H -9.907400 -17.722000 -6.640900
F -9.870300 -18.333600 -9.105100
