12
Fragment
F -1.490600 -30.991800 -13.674700
H -0.371000 -33.140900 -14.416300
C -0.337000 -31.152100 -14.358700
O -0.026600 -28.805400 -14.505100
C 0.113500 -32.366300 -14.678600
C 0.349700 -29.937200 -14.733900
N 1.283900 -32.488900 -15.389800
N 1.531400 -30.192200 -15.438600
H 1.576600 -33.295800 -15.583400
C 2.006100 -31.423000 -15.804400
H 2.016200 -29.494900 -15.668000
O 3.043200 -31.552100 -16.467000
12
Fragment
O -3.377500 -34.858000 -16.472000
H -2.350500 -36.915200 -17.271000
C -2.340400 -34.987100 -17.134700
H -1.910900 -33.114300 -17.355600
N -1.865700 -36.217900 -17.500400
N -1.618200 -33.921200 -17.549200
C -0.684000 -36.472900 -18.205100
C -0.447800 -34.043800 -18.260400
O -0.307600 -37.604700 -18.433900
C 0.002700 -35.258000 -18.580300
H 0.036700 -33.269200 -18.522700
F 1.156400 -35.418300 -19.264300
24
Fragment
F -1.490600 -30.991800 -13.674700
H -0.371000 -33.140900 -14.416300
C -0.337000 -31.152100 -14.358700
O -0.026600 -28.805400 -14.505100
C 0.113500 -32.366300 -14.678600
C 0.349700 -29.937200 -14.733900
N 1.283900 -32.488900 -15.389800
N 1.531400 -30.192200 -15.438600
H 1.576600 -33.295800 -15.583400
C 2.006100 -31.423000 -15.804400
H 2.016200 -29.494900 -15.668000
O 3.043200 -31.552100 -16.467000
O -3.377500 -34.858000 -16.472000
H -2.350500 -36.915200 -17.271000
C -2.340400 -34.987100 -17.134700
H -1.910900 -33.114300 -17.355600
N -1.865700 -36.217900 -17.500400
N -1.618200 -33.921200 -17.549200
C -0.684000 -36.472900 -18.205100
C -0.447800 -34.043800 -18.260400
O -0.307600 -37.604700 -18.433900
C 0.002700 -35.258000 -18.580300
H 0.036700 -33.269200 -18.522700
F 1.156400 -35.418300 -19.264300
