12
Fragment
F -1.490600 -30.991800 -13.674700
H -0.371000 -33.140900 -14.416300
C -0.337000 -31.152100 -14.358700
O -0.026600 -28.805400 -14.505100
C 0.113500 -32.366300 -14.678600
C 0.349700 -29.937200 -14.733900
N 1.283900 -32.488900 -15.389800
N 1.531400 -30.192200 -15.438600
H 1.576600 -33.295800 -15.583400
C 2.006100 -31.423000 -15.804400
H 2.016200 -29.494900 -15.668000
O 3.043200 -31.552100 -16.467000
12
Fragment
F -7.403200 -30.991800 -13.674700
H -6.283600 -33.140900 -14.416300
C -6.249600 -31.152100 -14.358700
O -5.939200 -28.805400 -14.505100
C -5.799100 -32.366300 -14.678600
C -5.562900 -29.937200 -14.733900
N -4.628700 -32.488900 -15.389800
N -4.381200 -30.192200 -15.438600
H -4.336000 -33.295800 -15.583400
C -3.906500 -31.423000 -15.804400
H -3.896400 -29.494900 -15.668000
O -2.869400 -31.552100 -16.467000
24
Fragment
F -1.490600 -30.991800 -13.674700
H -0.371000 -33.140900 -14.416300
C -0.337000 -31.152100 -14.358700
O -0.026600 -28.805400 -14.505100
C 0.113500 -32.366300 -14.678600
C 0.349700 -29.937200 -14.733900
N 1.283900 -32.488900 -15.389800
N 1.531400 -30.192200 -15.438600
H 1.576600 -33.295800 -15.583400
C 2.006100 -31.423000 -15.804400
H 2.016200 -29.494900 -15.668000
O 3.043200 -31.552100 -16.467000
F -7.403200 -30.991800 -13.674700
H -6.283600 -33.140900 -14.416300
C -6.249600 -31.152100 -14.358700
O -5.939200 -28.805400 -14.505100
C -5.799100 -32.366300 -14.678600
C -5.562900 -29.937200 -14.733900
N -4.628700 -32.488900 -15.389800
N -4.381200 -30.192200 -15.438600
H -4.336000 -33.295800 -15.583400
C -3.906500 -31.423000 -15.804400
H -3.896400 -29.494900 -15.668000
O -2.869400 -31.552100 -16.467000
