33
Fragment
H -5.805600 -13.568700 -19.468400
H -5.566700 -15.498600 -18.239300
C -5.487600 -13.512100 -18.596600
C -5.344300 -14.681600 -17.855200
H -5.267300 -11.488700 -18.578600
C -5.172200 -12.265800 -18.076900
C -4.881000 -14.645000 -16.570500
H -4.822700 -9.728600 -17.819200
H -4.784400 -15.428000 -16.077500
H -4.737700 -7.616200 -12.880500
C -4.709100 -12.238700 -16.775200
H -4.588300 -8.408000 -11.534100
N -4.560200 -9.252600 -17.153400
C -4.554800 -13.403500 -16.012300
H -4.513300 -8.397200 -17.227900
H -4.323800 -6.161000 -11.059100
N -4.301100 -11.207100 -15.898700
C -4.229800 -9.833400 -16.019400
C -4.111000 -7.867400 -12.183200
N -4.078500 -13.133800 -14.743500
C -3.947600 -11.836300 -14.701800
N -3.828300 -9.080700 -15.006500
C -3.590500 -6.614400 -11.504000
C -3.507300 -11.014500 -13.639200
C -3.457500 -9.647800 -13.840900
C -3.130700 -11.631000 -12.417700
O -2.989700 -5.732000 -12.436100
C -2.985300 -8.694000 -12.794400
H -2.938300 -6.862300 -10.829600
N -2.849900 -12.147600 -11.446700
H -2.542800 -9.192900 -12.089900
H -2.331600 -8.094200 -13.186400
H -2.202300 -5.936000 -12.536900
33
Fragment
H -6.214400 -9.375800 -19.777500
H -6.085100 -7.217600 -19.128000
H -5.873800 -6.119000 -20.224500
N -5.566800 -3.164200 -20.867700
H -5.478300 -8.449600 -21.484800
C -5.431300 -6.617900 -19.520100
O -5.426900 -9.579900 -19.878300
C -5.286000 -3.680900 -19.896700
C -4.959100 -5.664000 -18.473500
C -4.909400 -4.297400 -18.675300
C -4.826100 -8.697500 -20.810400
N -4.588300 -6.231200 -17.307900
C -4.469000 -3.475600 -17.612700
N -4.338100 -2.178000 -17.571000
C -4.305600 -7.444500 -20.131200
C -4.186900 -5.478400 -16.295000
N -4.115500 -4.104800 -16.415700
H -4.092800 -9.150900 -21.255400
H -3.903300 -6.914600 -15.086500
C -3.861800 -1.908300 -16.302100
N -3.856500 -6.059300 -15.161100
H -3.828400 -6.903900 -20.780300
C -3.707600 -3.073200 -15.539300
H -3.678900 -7.695700 -19.433900
H -3.632300 0.116200 -16.236900
H -3.594000 -5.583300 -14.495200
C -3.535600 -0.666900 -15.743900
C -3.244400 -3.046000 -14.237500
H -3.149400 -3.823100 -13.735800
C -3.072300 -0.630200 -14.459200
C -2.929000 -1.799700 -13.717800
H -2.850000 0.186700 -14.075100
H -2.611000 -1.743100 -12.846100
66
Fragment
H -5.805600 -13.568700 -19.468400
H -5.566700 -15.498600 -18.239300
C -5.487600 -13.512100 -18.596600
C -5.344300 -14.681600 -17.855200
H -5.267300 -11.488700 -18.578600
C -5.172200 -12.265800 -18.076900
C -4.881000 -14.645000 -16.570500
H -4.822700 -9.728600 -17.819200
H -4.784400 -15.428000 -16.077500
H -4.737700 -7.616200 -12.880500
C -4.709100 -12.238700 -16.775200
H -4.588300 -8.408000 -11.534100
N -4.560200 -9.252600 -17.153400
C -4.554800 -13.403500 -16.012300
H -4.513300 -8.397200 -17.227900
H -4.323800 -6.161000 -11.059100
N -4.301100 -11.207100 -15.898700
C -4.229800 -9.833400 -16.019400
C -4.111000 -7.867400 -12.183200
N -4.078500 -13.133800 -14.743500
C -3.947600 -11.836300 -14.701800
N -3.828300 -9.080700 -15.006500
C -3.590500 -6.614400 -11.504000
C -3.507300 -11.014500 -13.639200
C -3.457500 -9.647800 -13.840900
C -3.130700 -11.631000 -12.417700
O -2.989700 -5.732000 -12.436100
C -2.985300 -8.694000 -12.794400
H -2.938300 -6.862300 -10.829600
N -2.849900 -12.147600 -11.446700
H -2.542800 -9.192900 -12.089900
H -2.331600 -8.094200 -13.186400
H -2.202300 -5.936000 -12.536900
H -6.214400 -9.375800 -19.777500
H -6.085100 -7.217600 -19.128000
H -5.873800 -6.119000 -20.224500
N -5.566800 -3.164200 -20.867700
H -5.478300 -8.449600 -21.484800
C -5.431300 -6.617900 -19.520100
O -5.426900 -9.579900 -19.878300
C -5.286000 -3.680900 -19.896700
C -4.959100 -5.664000 -18.473500
C -4.909400 -4.297400 -18.675300
C -4.826100 -8.697500 -20.810400
N -4.588300 -6.231200 -17.307900
C -4.469000 -3.475600 -17.612700
N -4.338100 -2.178000 -17.571000
C -4.305600 -7.444500 -20.131200
C -4.186900 -5.478400 -16.295000
N -4.115500 -4.104800 -16.415700
H -4.092800 -9.150900 -21.255400
H -3.903300 -6.914600 -15.086500
C -3.861800 -1.908300 -16.302100
N -3.856500 -6.059300 -15.161100
H -3.828400 -6.903900 -20.780300
C -3.707600 -3.073200 -15.539300
H -3.678900 -7.695700 -19.433900
H -3.632300 0.116200 -16.236900
H -3.594000 -5.583300 -14.495200
C -3.535600 -0.666900 -15.743900
C -3.244400 -3.046000 -14.237500
H -3.149400 -3.823100 -13.735800
C -3.072300 -0.630200 -14.459200
C -2.929000 -1.799700 -13.717800
H -2.850000 0.186700 -14.075100
H -2.611000 -1.743100 -12.846100
