31
Fragment
H -17.684700 -10.059800 -18.447000
H -17.553300 -7.711000 -21.197200
H -17.318800 -8.109200 -19.699300
C -16.931300 -8.098700 -20.577000
O -16.922700 -6.278900 -23.642600
H -16.881700 -4.775800 -25.466800
C -16.762500 -10.280700 -18.595400
N -16.671400 -5.507300 -25.742200
C -16.623900 -6.508600 -24.823800
C -16.613600 -9.505400 -21.000800
H -16.577200 -7.878700 -23.012300
C -16.537900 -10.544300 -20.065700
H -16.536700 -11.066000 -18.092600
O -16.452300 -4.681200 -27.833500
N -16.407500 -8.752300 -23.256600
C -16.383500 -5.625300 -27.089100
C -16.347800 -9.824500 -22.345400
C -16.227000 -11.829500 -20.493200
C -16.222600 -7.819700 -25.295600
H -16.208900 -9.549000 -18.314100
H -16.176000 -12.515700 -19.867000
N -16.127400 -8.890800 -24.520300
H -16.124400 -7.578700 -20.565000
C -16.052000 -11.109900 -22.759700
N -16.034900 -6.884900 -27.498600
C -15.992600 -12.114300 -21.824600
C -15.909900 -8.014100 -26.709600
H -15.895700 -11.292500 -23.658900
H -15.859900 -6.960200 -28.328400
H -15.794900 -12.984100 -22.086800
O -15.567500 -9.077400 -27.199300
31
Fragment
O -19.087300 -14.950400 -8.720000
H -18.859900 -11.043700 -13.832500
H -18.794800 -17.067500 -7.590900
H -18.759100 -12.735300 -12.260500
C -18.744800 -16.013700 -9.209700
C -18.662200 -11.913500 -14.094700
N -18.619900 -17.142900 -8.420700
C -18.602800 -12.917900 -13.159600
H -18.530400 -16.449100 -15.354300
N -18.527400 -15.137000 -11.399000
H -18.478800 -11.512100 -16.052300
H -18.445900 -14.478800 -17.605300
C -18.432200 -16.208100 -10.623700
C -18.427800 -12.198300 -15.426100
C -18.307000 -14.203300 -13.573900
C -18.271300 -18.402500 -8.830200
N -18.247300 -15.275500 -12.662800
O -18.202500 -19.346600 -8.085800
H -18.118100 -12.961800 -17.826800
C -18.116900 -13.483500 -15.853600
H -18.077600 -16.149100 -12.907000
C -18.041200 -14.522400 -14.918500
C -18.030900 -17.519200 -11.095500
N -17.983400 -18.520500 -10.177100
C -17.892200 -13.747000 -17.323900
H -17.773100 -19.252000 -10.452500
O -17.732100 -17.748900 -12.276700
C -17.723400 -15.929100 -15.342300
H -17.335900 -15.918500 -16.220000
H -17.101500 -16.316800 -14.722100
H -16.970100 -13.968000 -17.472400
62
Fragment
H -17.684700 -10.059800 -18.447000
H -17.553300 -7.711000 -21.197200
H -17.318800 -8.109200 -19.699300
C -16.931300 -8.098700 -20.577000
O -16.922700 -6.278900 -23.642600
H -16.881700 -4.775800 -25.466800
C -16.762500 -10.280700 -18.595400
N -16.671400 -5.507300 -25.742200
C -16.623900 -6.508600 -24.823800
C -16.613600 -9.505400 -21.000800
H -16.577200 -7.878700 -23.012300
C -16.537900 -10.544300 -20.065700
H -16.536700 -11.066000 -18.092600
O -16.452300 -4.681200 -27.833500
N -16.407500 -8.752300 -23.256600
C -16.383500 -5.625300 -27.089100
C -16.347800 -9.824500 -22.345400
C -16.227000 -11.829500 -20.493200
C -16.222600 -7.819700 -25.295600
H -16.208900 -9.549000 -18.314100
H -16.176000 -12.515700 -19.867000
N -16.127400 -8.890800 -24.520300
H -16.124400 -7.578700 -20.565000
C -16.052000 -11.109900 -22.759700
N -16.034900 -6.884900 -27.498600
C -15.992600 -12.114300 -21.824600
C -15.909900 -8.014100 -26.709600
H -15.895700 -11.292500 -23.658900
H -15.859900 -6.960200 -28.328400
H -15.794900 -12.984100 -22.086800
O -15.567500 -9.077400 -27.199300
O -19.087300 -14.950400 -8.720000
H -18.859900 -11.043700 -13.832500
H -18.794800 -17.067500 -7.590900
H -18.759100 -12.735300 -12.260500
C -18.744800 -16.013700 -9.209700
C -18.662200 -11.913500 -14.094700
N -18.619900 -17.142900 -8.420700
C -18.602800 -12.917900 -13.159600
H -18.530400 -16.449100 -15.354300
N -18.527400 -15.137000 -11.399000
H -18.478800 -11.512100 -16.052300
H -18.445900 -14.478800 -17.605300
C -18.432200 -16.208100 -10.623700
C -18.427800 -12.198300 -15.426100
C -18.307000 -14.203300 -13.573900
C -18.271300 -18.402500 -8.830200
N -18.247300 -15.275500 -12.662800
O -18.202500 -19.346600 -8.085800
H -18.118100 -12.961800 -17.826800
C -18.116900 -13.483500 -15.853600
H -18.077600 -16.149100 -12.907000
C -18.041200 -14.522400 -14.918500
C -18.030900 -17.519200 -11.095500
N -17.983400 -18.520500 -10.177100
C -17.892200 -13.747000 -17.323900
H -17.773100 -19.252000 -10.452500
O -17.732100 -17.748900 -12.276700
C -17.723400 -15.929100 -15.342300
H -17.335900 -15.918500 -16.220000
H -17.101500 -16.316800 -14.722100
H -16.970100 -13.968000 -17.472400
