31
Fragment
H -17.684700 -10.059800 -18.447000
H -17.553300 -7.711000 -21.197200
H -17.318800 -8.109200 -19.699300
C -16.931300 -8.098700 -20.577000
O -16.922700 -6.278900 -23.642600
H -16.881700 -4.775800 -25.466800
C -16.762500 -10.280700 -18.595400
N -16.671400 -5.507300 -25.742200
C -16.623900 -6.508600 -24.823800
C -16.613600 -9.505400 -21.000800
H -16.577200 -7.878700 -23.012300
C -16.537900 -10.544300 -20.065700
H -16.536700 -11.066000 -18.092600
O -16.452300 -4.681200 -27.833500
N -16.407500 -8.752300 -23.256600
C -16.383500 -5.625300 -27.089100
C -16.347800 -9.824500 -22.345400
C -16.227000 -11.829500 -20.493200
C -16.222600 -7.819700 -25.295600
H -16.208900 -9.549000 -18.314100
H -16.176000 -12.515700 -19.867000
N -16.127400 -8.890800 -24.520300
H -16.124400 -7.578700 -20.565000
C -16.052000 -11.109900 -22.759700
N -16.034900 -6.884900 -27.498600
C -15.992600 -12.114300 -21.824600
C -15.909900 -8.014100 -26.709600
H -15.895700 -11.292500 -23.658900
H -15.859900 -6.960200 -28.328400
H -15.794900 -12.984100 -22.086800
O -15.567500 -9.077400 -27.199300
31
Fragment
H -19.186100 -3.053800 -30.420100
H -19.054700 -0.705100 -33.170300
H -18.820300 -1.103300 -31.672500
C -18.432800 -1.092700 -32.550100
O -18.424100 0.727000 -35.615700
H -18.383200 2.230200 -37.439900
C -18.264000 -3.274800 -30.568500
N -18.172800 1.498700 -37.715300
C -18.125400 0.497400 -36.796900
C -18.115100 -2.499400 -32.973900
H -18.078600 -0.872700 -34.985400
C -18.039400 -3.538300 -32.038800
H -18.038200 -4.060000 -30.065700
O -17.953700 2.324800 -39.806600
N -17.908900 -1.746300 -35.229700
C -17.884900 1.380700 -39.062300
C -17.849200 -2.818500 -34.318500
C -17.728400 -4.823500 -32.466300
C -17.724100 -0.813700 -37.268700
H -17.710400 -2.543000 -30.287200
H -17.677400 -5.509800 -31.840100
N -17.628800 -1.884800 -36.493400
H -17.625900 -0.572700 -32.538100
C -17.553500 -4.103900 -34.732800
N -17.536300 0.121000 -39.471700
C -17.494100 -5.108300 -33.797700
C -17.411400 -1.008100 -38.682700
H -17.397200 -4.286500 -35.632000
H -17.361400 0.045700 -40.301500
H -17.296300 -5.978100 -34.059900
O -17.069000 -2.071400 -39.172400
62
Fragment
H -17.684700 -10.059800 -18.447000
H -17.553300 -7.711000 -21.197200
H -17.318800 -8.109200 -19.699300
C -16.931300 -8.098700 -20.577000
O -16.922700 -6.278900 -23.642600
H -16.881700 -4.775800 -25.466800
C -16.762500 -10.280700 -18.595400
N -16.671400 -5.507300 -25.742200
C -16.623900 -6.508600 -24.823800
C -16.613600 -9.505400 -21.000800
H -16.577200 -7.878700 -23.012300
C -16.537900 -10.544300 -20.065700
H -16.536700 -11.066000 -18.092600
O -16.452300 -4.681200 -27.833500
N -16.407500 -8.752300 -23.256600
C -16.383500 -5.625300 -27.089100
C -16.347800 -9.824500 -22.345400
C -16.227000 -11.829500 -20.493200
C -16.222600 -7.819700 -25.295600
H -16.208900 -9.549000 -18.314100
H -16.176000 -12.515700 -19.867000
N -16.127400 -8.890800 -24.520300
H -16.124400 -7.578700 -20.565000
C -16.052000 -11.109900 -22.759700
N -16.034900 -6.884900 -27.498600
C -15.992600 -12.114300 -21.824600
C -15.909900 -8.014100 -26.709600
H -15.895700 -11.292500 -23.658900
H -15.859900 -6.960200 -28.328400
H -15.794900 -12.984100 -22.086800
O -15.567500 -9.077400 -27.199300
H -19.186100 -3.053800 -30.420100
H -19.054700 -0.705100 -33.170300
H -18.820300 -1.103300 -31.672500
C -18.432800 -1.092700 -32.550100
O -18.424100 0.727000 -35.615700
H -18.383200 2.230200 -37.439900
C -18.264000 -3.274800 -30.568500
N -18.172800 1.498700 -37.715300
C -18.125400 0.497400 -36.796900
C -18.115100 -2.499400 -32.973900
H -18.078600 -0.872700 -34.985400
C -18.039400 -3.538300 -32.038800
H -18.038200 -4.060000 -30.065700
O -17.953700 2.324800 -39.806600
N -17.908900 -1.746300 -35.229700
C -17.884900 1.380700 -39.062300
C -17.849200 -2.818500 -34.318500
C -17.728400 -4.823500 -32.466300
C -17.724100 -0.813700 -37.268700
H -17.710400 -2.543000 -30.287200
H -17.677400 -5.509800 -31.840100
N -17.628800 -1.884800 -36.493400
H -17.625900 -0.572700 -32.538100
C -17.553500 -4.103900 -34.732800
N -17.536300 0.121000 -39.471700
C -17.494100 -5.108300 -33.797700
C -17.411400 -1.008100 -38.682700
H -17.397200 -4.286500 -35.632000
H -17.361400 0.045700 -40.301500
H -17.296300 -5.978100 -34.059900
O -17.069000 -2.071400 -39.172400
