31
Fragment
H -17.684700 -10.059800 -18.447000
H -17.553300 -7.711000 -21.197200
H -17.318800 -8.109200 -19.699300
C -16.931300 -8.098700 -20.577000
O -16.922700 -6.278900 -23.642600
H -16.881700 -4.775800 -25.466800
C -16.762500 -10.280700 -18.595400
N -16.671400 -5.507300 -25.742200
C -16.623900 -6.508600 -24.823800
C -16.613600 -9.505400 -21.000800
H -16.577200 -7.878700 -23.012300
C -16.537900 -10.544300 -20.065700
H -16.536700 -11.066000 -18.092600
O -16.452300 -4.681200 -27.833500
N -16.407500 -8.752300 -23.256600
C -16.383500 -5.625300 -27.089100
C -16.347800 -9.824500 -22.345400
C -16.227000 -11.829500 -20.493200
C -16.222600 -7.819700 -25.295600
H -16.208900 -9.549000 -18.314100
H -16.176000 -12.515700 -19.867000
N -16.127400 -8.890800 -24.520300
H -16.124400 -7.578700 -20.565000
C -16.052000 -11.109900 -22.759700
N -16.034900 -6.884900 -27.498600
C -15.992600 -12.114300 -21.824600
C -15.909900 -8.014100 -26.709600
H -15.895700 -11.292500 -23.658900
H -15.859900 -6.960200 -28.328400
H -15.794900 -12.984100 -22.086800
O -15.567500 -9.077400 -27.199300
31
Fragment
H -16.179600 -2.552200 -18.447000
H -16.048200 -0.203400 -21.197200
H -15.813800 -0.601600 -19.699300
C -15.426300 -0.591100 -20.577000
O -15.417600 1.228700 -23.642600
H -15.376700 2.731900 -25.466800
C -15.257500 -2.773100 -18.595400
N -15.166300 2.000300 -25.742200
C -15.118800 0.999000 -24.823800
C -15.108500 -1.997800 -21.000800
H -15.072100 -0.371100 -23.012300
C -15.032800 -3.036700 -20.065700
H -15.031600 -3.558400 -18.092600
O -14.947200 2.826400 -27.833500
N -14.902400 -1.244700 -23.256600
C -14.878400 1.882300 -27.089100
C -14.842700 -2.316900 -22.345400
C -14.721900 -4.321900 -20.493200
C -14.717500 -0.312100 -25.295600
H -14.703800 -2.041400 -18.314100
H -14.670900 -5.008100 -19.867000
N -14.622300 -1.383200 -24.520300
H -14.619300 -0.071100 -20.565000
C -14.546900 -3.602300 -22.759700
N -14.529800 0.622700 -27.498600
C -14.487500 -4.606600 -21.824600
C -14.404900 -0.506400 -26.709600
H -14.390600 -3.784800 -23.658900
H -14.354900 0.547400 -28.328400
H -14.289800 -5.476500 -22.086800
O -14.062400 -1.569800 -27.199300
62
Fragment
H -17.684700 -10.059800 -18.447000
H -17.553300 -7.711000 -21.197200
H -17.318800 -8.109200 -19.699300
C -16.931300 -8.098700 -20.577000
O -16.922700 -6.278900 -23.642600
H -16.881700 -4.775800 -25.466800
C -16.762500 -10.280700 -18.595400
N -16.671400 -5.507300 -25.742200
C -16.623900 -6.508600 -24.823800
C -16.613600 -9.505400 -21.000800
H -16.577200 -7.878700 -23.012300
C -16.537900 -10.544300 -20.065700
H -16.536700 -11.066000 -18.092600
O -16.452300 -4.681200 -27.833500
N -16.407500 -8.752300 -23.256600
C -16.383500 -5.625300 -27.089100
C -16.347800 -9.824500 -22.345400
C -16.227000 -11.829500 -20.493200
C -16.222600 -7.819700 -25.295600
H -16.208900 -9.549000 -18.314100
H -16.176000 -12.515700 -19.867000
N -16.127400 -8.890800 -24.520300
H -16.124400 -7.578700 -20.565000
C -16.052000 -11.109900 -22.759700
N -16.034900 -6.884900 -27.498600
C -15.992600 -12.114300 -21.824600
C -15.909900 -8.014100 -26.709600
H -15.895700 -11.292500 -23.658900
H -15.859900 -6.960200 -28.328400
H -15.794900 -12.984100 -22.086800
O -15.567500 -9.077400 -27.199300
H -16.179600 -2.552200 -18.447000
H -16.048200 -0.203400 -21.197200
H -15.813800 -0.601600 -19.699300
C -15.426300 -0.591100 -20.577000
O -15.417600 1.228700 -23.642600
H -15.376700 2.731900 -25.466800
C -15.257500 -2.773100 -18.595400
N -15.166300 2.000300 -25.742200
C -15.118800 0.999000 -24.823800
C -15.108500 -1.997800 -21.000800
H -15.072100 -0.371100 -23.012300
C -15.032800 -3.036700 -20.065700
H -15.031600 -3.558400 -18.092600
O -14.947200 2.826400 -27.833500
N -14.902400 -1.244700 -23.256600
C -14.878400 1.882300 -27.089100
C -14.842700 -2.316900 -22.345400
C -14.721900 -4.321900 -20.493200
C -14.717500 -0.312100 -25.295600
H -14.703800 -2.041400 -18.314100
H -14.670900 -5.008100 -19.867000
N -14.622300 -1.383200 -24.520300
H -14.619300 -0.071100 -20.565000
C -14.546900 -3.602300 -22.759700
N -14.529800 0.622700 -27.498600
C -14.487500 -4.606600 -21.824600
C -14.404900 -0.506400 -26.709600
H -14.390600 -3.784800 -23.658900
H -14.354900 0.547400 -28.328400
H -14.289800 -5.476500 -22.086800
O -14.062400 -1.569800 -27.199300
