16
Fragment
H -8.712200 -67.156400 -14.732500
O -8.139400 -66.891800 -14.168100
H -7.877100 -62.990100 -15.187000
N -7.708100 -65.586900 -14.502600
C -6.918600 -63.024500 -15.227000
C -6.854600 -65.118600 -13.664800
H -6.697500 -66.786800 -12.516000
H -6.648400 -63.485700 -16.024700
H -6.635100 -65.463800 -11.674900
H -6.567400 -62.133300 -15.240300
C -6.393200 -63.751100 -14.025900
C -6.348700 -65.893100 -12.486000
N -5.498600 -63.247600 -13.218200
H -5.389300 -65.921600 -12.509300
O -5.144100 -61.990500 -13.633700
H -4.562700 -61.675500 -13.089300
16
Fragment
H -11.647300 -71.322700 -14.328100
O -11.198100 -70.765800 -13.862600
N -10.486000 -71.447000 -12.876000
H -10.293300 -68.924600 -13.077100
H -10.113700 -68.735600 -11.531600
H -10.107300 -73.006900 -10.940500
C -9.781500 -70.638100 -12.129400
C -9.758800 -69.161000 -12.316000
C -9.180300 -72.790600 -11.062700
C -9.012600 -71.303000 -11.057200
H -8.876600 -73.145500 -11.902700
H -8.854900 -68.870000 -12.456000
H -8.664900 -73.174900 -10.349400
N -8.262500 -70.670900 -10.205000
O -7.650700 -71.548700 -9.293900
H -7.151200 -71.104300 -8.768400
32
Fragment
H -8.712200 -67.156400 -14.732500
O -8.139400 -66.891800 -14.168100
H -7.877100 -62.990100 -15.187000
N -7.708100 -65.586900 -14.502600
C -6.918600 -63.024500 -15.227000
C -6.854600 -65.118600 -13.664800
H -6.697500 -66.786800 -12.516000
H -6.648400 -63.485700 -16.024700
H -6.635100 -65.463800 -11.674900
H -6.567400 -62.133300 -15.240300
C -6.393200 -63.751100 -14.025900
C -6.348700 -65.893100 -12.486000
N -5.498600 -63.247600 -13.218200
H -5.389300 -65.921600 -12.509300
O -5.144100 -61.990500 -13.633700
H -4.562700 -61.675500 -13.089300
H -11.647300 -71.322700 -14.328100
O -11.198100 -70.765800 -13.862600
N -10.486000 -71.447000 -12.876000
H -10.293300 -68.924600 -13.077100
H -10.113700 -68.735600 -11.531600
H -10.107300 -73.006900 -10.940500
C -9.781500 -70.638100 -12.129400
C -9.758800 -69.161000 -12.316000
C -9.180300 -72.790600 -11.062700
C -9.012600 -71.303000 -11.057200
H -8.876600 -73.145500 -11.902700
H -8.854900 -68.870000 -12.456000
H -8.664900 -73.174900 -10.349400
N -8.262500 -70.670900 -10.205000
O -7.650700 -71.548700 -9.293900
H -7.151200 -71.104300 -8.768400
