16
Fragment
H -8.712200 -67.156400 -14.732500
O -8.139400 -66.891800 -14.168100
H -7.877100 -62.990100 -15.187000
N -7.708100 -65.586900 -14.502600
C -6.918600 -63.024500 -15.227000
C -6.854600 -65.118600 -13.664800
H -6.697500 -66.786800 -12.516000
H -6.648400 -63.485700 -16.024700
H -6.635100 -65.463800 -11.674900
H -6.567400 -62.133300 -15.240300
C -6.393200 -63.751100 -14.025900
C -6.348700 -65.893100 -12.486000
N -5.498600 -63.247600 -13.218200
H -5.389300 -65.921600 -12.509300
O -5.144100 -61.990500 -13.633700
H -4.562700 -61.675500 -13.089300
22
Fragment
H -7.871600 -72.036700 -16.424700
H -7.772600 -69.785500 -15.932500
C -7.261200 -71.489900 -16.863500
C -7.192800 -70.141300 -16.566900
H -6.445700 -72.918700 -18.033500
C -6.409900 -72.015300 -17.821300
C -6.290300 -69.319300 -17.185800
N -6.243500 -67.956500 -16.879100
H -6.215300 -65.438600 -16.948000
C -5.515000 -71.194200 -18.455700
C -5.446800 -69.832200 -18.145700
C -5.334100 -67.136200 -17.514600
C -5.314500 -65.755300 -17.049100
H -4.945800 -71.545300 -19.101200
H -4.861900 -65.707400 -16.203600
H -4.854100 -65.207600 -17.689100
N -4.534400 -69.013600 -18.797900
C -4.486500 -67.655300 -18.486800
H -3.631600 -65.955200 -19.227900
H -3.495100 -67.173200 -20.205600
C -3.454000 -66.897300 -19.286700
H -2.579600 -67.080800 -18.936800
38
Fragment
H -8.712200 -67.156400 -14.732500
O -8.139400 -66.891800 -14.168100
H -7.877100 -62.990100 -15.187000
N -7.708100 -65.586900 -14.502600
C -6.918600 -63.024500 -15.227000
C -6.854600 -65.118600 -13.664800
H -6.697500 -66.786800 -12.516000
H -6.648400 -63.485700 -16.024700
H -6.635100 -65.463800 -11.674900
H -6.567400 -62.133300 -15.240300
C -6.393200 -63.751100 -14.025900
C -6.348700 -65.893100 -12.486000
N -5.498600 -63.247600 -13.218200
H -5.389300 -65.921600 -12.509300
O -5.144100 -61.990500 -13.633700
H -4.562700 -61.675500 -13.089300
H -7.871600 -72.036700 -16.424700
H -7.772600 -69.785500 -15.932500
C -7.261200 -71.489900 -16.863500
C -7.192800 -70.141300 -16.566900
H -6.445700 -72.918700 -18.033500
C -6.409900 -72.015300 -17.821300
C -6.290300 -69.319300 -17.185800
N -6.243500 -67.956500 -16.879100
H -6.215300 -65.438600 -16.948000
C -5.515000 -71.194200 -18.455700
C -5.446800 -69.832200 -18.145700
C -5.334100 -67.136200 -17.514600
C -5.314500 -65.755300 -17.049100
H -4.945800 -71.545300 -19.101200
H -4.861900 -65.707400 -16.203600
H -4.854100 -65.207600 -17.689100
N -4.534400 -69.013600 -18.797900
C -4.486500 -67.655300 -18.486800
H -3.631600 -65.955200 -19.227900
H -3.495100 -67.173200 -20.205600
C -3.454000 -66.897300 -19.286700
H -2.579600 -67.080800 -18.936800
