16
Fragment
H -8.712200 -67.156400 -14.732500
O -8.139400 -66.891800 -14.168100
H -7.877100 -62.990100 -15.187000
N -7.708100 -65.586900 -14.502600
C -6.918600 -63.024500 -15.227000
C -6.854600 -65.118600 -13.664800
H -6.697500 -66.786800 -12.516000
H -6.648400 -63.485700 -16.024700
H -6.635100 -65.463800 -11.674900
H -6.567400 -62.133300 -15.240300
C -6.393200 -63.751100 -14.025900
C -6.348700 -65.893100 -12.486000
N -5.498600 -63.247600 -13.218200
H -5.389300 -65.921600 -12.509300
O -5.144100 -61.990500 -13.633700
H -4.562700 -61.675500 -13.089300
22
Fragment
H -6.029000 -53.960300 -10.869400
H -5.930100 -56.211500 -10.377200
C -5.418600 -54.507100 -11.308300
C -5.350200 -55.855700 -11.011600
H -4.603100 -53.078300 -12.478200
C -4.567400 -53.981700 -12.266000
C -4.447700 -56.677700 -11.630500
N -4.400900 -58.040500 -11.323800
H -4.372700 -60.558400 -11.392700
C -3.672400 -54.802800 -12.900400
C -3.604200 -56.164800 -12.590400
C -3.491500 -58.860800 -11.959400
C -3.471900 -60.241700 -11.493800
H -3.103200 -54.451700 -13.545900
H -3.019300 -60.289600 -10.648300
H -3.011500 -60.789400 -12.133800
N -2.691800 -56.983400 -13.242600
C -2.643900 -58.341700 -12.931500
H -1.789000 -60.041800 -13.672600
H -1.652500 -58.823800 -14.650300
C -1.611400 -59.099700 -13.731500
H -0.737000 -58.916200 -13.381500
38
Fragment
H -8.712200 -67.156400 -14.732500
O -8.139400 -66.891800 -14.168100
H -7.877100 -62.990100 -15.187000
N -7.708100 -65.586900 -14.502600
C -6.918600 -63.024500 -15.227000
C -6.854600 -65.118600 -13.664800
H -6.697500 -66.786800 -12.516000
H -6.648400 -63.485700 -16.024700
H -6.635100 -65.463800 -11.674900
H -6.567400 -62.133300 -15.240300
C -6.393200 -63.751100 -14.025900
C -6.348700 -65.893100 -12.486000
N -5.498600 -63.247600 -13.218200
H -5.389300 -65.921600 -12.509300
O -5.144100 -61.990500 -13.633700
H -4.562700 -61.675500 -13.089300
H -6.029000 -53.960300 -10.869400
H -5.930100 -56.211500 -10.377200
C -5.418600 -54.507100 -11.308300
C -5.350200 -55.855700 -11.011600
H -4.603100 -53.078300 -12.478200
C -4.567400 -53.981700 -12.266000
C -4.447700 -56.677700 -11.630500
N -4.400900 -58.040500 -11.323800
H -4.372700 -60.558400 -11.392700
C -3.672400 -54.802800 -12.900400
C -3.604200 -56.164800 -12.590400
C -3.491500 -58.860800 -11.959400
C -3.471900 -60.241700 -11.493800
H -3.103200 -54.451700 -13.545900
H -3.019300 -60.289600 -10.648300
H -3.011500 -60.789400 -12.133800
N -2.691800 -56.983400 -13.242600
C -2.643900 -58.341700 -12.931500
H -1.789000 -60.041800 -13.672600
H -1.652500 -58.823800 -14.650300
C -1.611400 -59.099700 -13.731500
H -0.737000 -58.916200 -13.381500
