22
Fragment
H -26.642100 -10.469600 -12.769600
H -26.416300 -10.414600 -11.186500
C -26.015000 -10.179400 -12.060500
N -25.843600 -8.717200 -12.135800
H -25.832100 -8.655800 -14.164800
H -25.291200 -8.535200 -10.186700
C -25.219200 -8.391000 -13.433300
H -25.081900 -7.412300 -13.490900
C -24.896900 -8.320100 -11.067900
H -24.765000 -10.810600 -14.236600
H -24.754600 -7.340800 -11.106900
N -24.747300 -10.896100 -12.216000
H -24.221100 -10.702400 -10.274000
C -24.160600 -10.521600 -13.508200
N -23.933900 -9.067100 -13.615200
C -23.836900 -10.460100 -11.153600
N -23.598900 -9.002100 -11.195200
H -23.299300 -10.994400 -13.623500
C -23.039400 -8.671200 -12.527500
H -22.973900 -10.934100 -11.249500
H -22.877000 -7.696000 -12.579500
H -22.169400 -9.131000 -12.638100
20
Fragment
H -29.523800 -15.485400 -15.280600
O -29.431500 -14.587700 -17.831000
H -28.812900 -16.468800 -16.324600
H -28.796500 -12.732500 -19.439900
C -28.660900 -15.801000 -15.624300
C -28.452400 -14.149700 -17.276500
H -28.231000 -11.136200 -21.017500
H -28.147400 -16.204600 -14.894000
C -28.068800 -12.373800 -18.944600
O -27.924500 -14.686400 -16.173200
C -27.688900 -12.952900 -17.737400
O -27.669000 -10.671100 -20.602000
C -27.376900 -11.265600 -19.419500
C -26.645600 -12.423400 -16.986600
H -26.389700 -12.826500 -16.165500
C -26.335900 -10.721300 -18.673200
C -25.982700 -11.293400 -17.456900
H -25.867900 -9.960100 -18.994700
O -24.990600 -10.787800 -16.681300
H -24.565300 -10.207200 -17.114500
42
Fragment
H -26.642100 -10.469600 -12.769600
H -26.416300 -10.414600 -11.186500
C -26.015000 -10.179400 -12.060500
N -25.843600 -8.717200 -12.135800
H -25.832100 -8.655800 -14.164800
H -25.291200 -8.535200 -10.186700
C -25.219200 -8.391000 -13.433300
H -25.081900 -7.412300 -13.490900
C -24.896900 -8.320100 -11.067900
H -24.765000 -10.810600 -14.236600
H -24.754600 -7.340800 -11.106900
N -24.747300 -10.896100 -12.216000
H -24.221100 -10.702400 -10.274000
C -24.160600 -10.521600 -13.508200
N -23.933900 -9.067100 -13.615200
C -23.836900 -10.460100 -11.153600
N -23.598900 -9.002100 -11.195200
H -23.299300 -10.994400 -13.623500
C -23.039400 -8.671200 -12.527500
H -22.973900 -10.934100 -11.249500
H -22.877000 -7.696000 -12.579500
H -22.169400 -9.131000 -12.638100
H -29.523800 -15.485400 -15.280600
O -29.431500 -14.587700 -17.831000
H -28.812900 -16.468800 -16.324600
H -28.796500 -12.732500 -19.439900
C -28.660900 -15.801000 -15.624300
C -28.452400 -14.149700 -17.276500
H -28.231000 -11.136200 -21.017500
H -28.147400 -16.204600 -14.894000
C -28.068800 -12.373800 -18.944600
O -27.924500 -14.686400 -16.173200
C -27.688900 -12.952900 -17.737400
O -27.669000 -10.671100 -20.602000
C -27.376900 -11.265600 -19.419500
C -26.645600 -12.423400 -16.986600
H -26.389700 -12.826500 -16.165500
C -26.335900 -10.721300 -18.673200
C -25.982700 -11.293400 -17.456900
H -25.867900 -9.960100 -18.994700
O -24.990600 -10.787800 -16.681300
H -24.565300 -10.207200 -17.114500
