16
Fragment
H -8.647800 -15.203900 -27.182400
O -8.212700 -12.908700 -26.232900
C -7.793700 -14.878800 -27.442400
H -7.793500 -12.267800 -25.887800
C -7.377000 -13.620300 -27.027600
H -7.256700 -16.523800 -28.499400
C -6.969800 -15.659100 -28.232100
C -6.134400 -13.133400 -27.440200
H -5.848200 -12.269000 -27.171100
C -5.721100 -15.186800 -28.638300
C -5.323400 -13.913900 -28.242200
O -5.180000 -17.252500 -29.631800
C -4.835700 -15.982900 -29.523900
H -4.683300 -17.630300 -30.193100
H -4.482500 -13.576000 -28.527500
O -3.886600 -15.498500 -30.112500
16
Fragment
O -10.268900 -19.889500 -26.092000
H -9.673000 -21.812000 -27.677000
H -9.472200 -17.757700 -26.011500
C -9.319700 -19.405100 -26.680700
O -8.975500 -18.135500 -26.572800
C -8.832100 -21.474100 -27.962300
C -8.434400 -20.201200 -27.566300
H -8.307300 -23.119000 -29.033400
C -8.021100 -22.254600 -28.764400
C -7.185700 -19.728900 -27.972400
H -6.898800 -18.864200 -27.705100
C -6.778500 -21.767700 -29.176900
H -6.362000 -23.120200 -30.316700
C -6.361800 -20.509200 -28.762100
O -5.942700 -22.479300 -29.971600
H -5.507700 -20.184100 -29.022100
32
Fragment
H -8.647800 -15.203900 -27.182400
O -8.212700 -12.908700 -26.232900
C -7.793700 -14.878800 -27.442400
H -7.793500 -12.267800 -25.887800
C -7.377000 -13.620300 -27.027600
H -7.256700 -16.523800 -28.499400
C -6.969800 -15.659100 -28.232100
C -6.134400 -13.133400 -27.440200
H -5.848200 -12.269000 -27.171100
C -5.721100 -15.186800 -28.638300
C -5.323400 -13.913900 -28.242200
O -5.180000 -17.252500 -29.631800
C -4.835700 -15.982900 -29.523900
H -4.683300 -17.630300 -30.193100
H -4.482500 -13.576000 -28.527500
O -3.886600 -15.498500 -30.112500
O -10.268900 -19.889500 -26.092000
H -9.673000 -21.812000 -27.677000
H -9.472200 -17.757700 -26.011500
C -9.319700 -19.405100 -26.680700
O -8.975500 -18.135500 -26.572800
C -8.832100 -21.474100 -27.962300
C -8.434400 -20.201200 -27.566300
H -8.307300 -23.119000 -29.033400
C -8.021100 -22.254600 -28.764400
C -7.185700 -19.728900 -27.972400
H -6.898800 -18.864200 -27.705100
C -6.778500 -21.767700 -29.176900
H -6.362000 -23.120200 -30.316700
C -6.361800 -20.509200 -28.762100
O -5.942700 -22.479300 -29.971600
H -5.507700 -20.184100 -29.022100
