22
Fragment
H -26.642100 -10.469600 -12.769600
H -26.416300 -10.414600 -11.186500
C -26.015000 -10.179400 -12.060500
N -25.843600 -8.717200 -12.135800
H -25.832100 -8.655800 -14.164800
H -25.291200 -8.535200 -10.186700
C -25.219200 -8.391000 -13.433300
H -25.081900 -7.412300 -13.490900
C -24.896900 -8.320100 -11.067900
H -24.765000 -10.810600 -14.236600
H -24.754600 -7.340800 -11.106900
N -24.747300 -10.896100 -12.216000
H -24.221100 -10.702400 -10.274000
C -24.160600 -10.521600 -13.508200
N -23.933900 -9.067100 -13.615200
C -23.836900 -10.460100 -11.153600
N -23.598900 -9.002100 -11.195200
H -23.299300 -10.994400 -13.623500
C -23.039400 -8.671200 -12.527500
H -22.973900 -10.934100 -11.249500
H -22.877000 -7.696000 -12.579500
H -22.169400 -9.131000 -12.638100
22
Fragment
H -26.642100 -4.559600 -12.769600
H -26.416300 -4.504600 -11.186500
C -26.015000 -4.269400 -12.060500
N -25.843600 -2.807200 -12.135800
H -25.832100 -2.745800 -14.164800
H -25.291200 -2.625200 -10.186700
C -25.219200 -2.481000 -13.433300
H -25.081900 -1.502300 -13.490900
C -24.896900 -2.410100 -11.067900
H -24.765000 -4.900600 -14.236600
H -24.754600 -1.430800 -11.106900
N -24.747300 -4.986100 -12.216000
H -24.221100 -4.792400 -10.274000
C -24.160600 -4.611600 -13.508200
N -23.933900 -3.157100 -13.615200
C -23.836900 -4.550100 -11.153600
N -23.598900 -3.092100 -11.195200
H -23.299300 -5.084400 -13.623500
C -23.039400 -2.761200 -12.527500
H -22.973900 -5.024100 -11.249500
H -22.877000 -1.786000 -12.579500
H -22.169400 -3.221000 -12.638100
44
Fragment
H -26.642100 -10.469600 -12.769600
H -26.416300 -10.414600 -11.186500
C -26.015000 -10.179400 -12.060500
N -25.843600 -8.717200 -12.135800
H -25.832100 -8.655800 -14.164800
H -25.291200 -8.535200 -10.186700
C -25.219200 -8.391000 -13.433300
H -25.081900 -7.412300 -13.490900
C -24.896900 -8.320100 -11.067900
H -24.765000 -10.810600 -14.236600
H -24.754600 -7.340800 -11.106900
N -24.747300 -10.896100 -12.216000
H -24.221100 -10.702400 -10.274000
C -24.160600 -10.521600 -13.508200
N -23.933900 -9.067100 -13.615200
C -23.836900 -10.460100 -11.153600
N -23.598900 -9.002100 -11.195200
H -23.299300 -10.994400 -13.623500
C -23.039400 -8.671200 -12.527500
H -22.973900 -10.934100 -11.249500
H -22.877000 -7.696000 -12.579500
H -22.169400 -9.131000 -12.638100
H -26.642100 -4.559600 -12.769600
H -26.416300 -4.504600 -11.186500
C -26.015000 -4.269400 -12.060500
N -25.843600 -2.807200 -12.135800
H -25.832100 -2.745800 -14.164800
H -25.291200 -2.625200 -10.186700
C -25.219200 -2.481000 -13.433300
H -25.081900 -1.502300 -13.490900
C -24.896900 -2.410100 -11.067900
H -24.765000 -4.900600 -14.236600
H -24.754600 -1.430800 -11.106900
N -24.747300 -4.986100 -12.216000
H -24.221100 -4.792400 -10.274000
C -24.160600 -4.611600 -13.508200
N -23.933900 -3.157100 -13.615200
C -23.836900 -4.550100 -11.153600
N -23.598900 -3.092100 -11.195200
H -23.299300 -5.084400 -13.623500
C -23.039400 -2.761200 -12.527500
H -22.973900 -5.024100 -11.249500
H -22.877000 -1.786000 -12.579500
H -22.169400 -3.221000 -12.638100
