16
Fragment
H -8.647800 -15.203900 -27.182400
O -8.212700 -12.908700 -26.232900
C -7.793700 -14.878800 -27.442400
H -7.793500 -12.267800 -25.887800
C -7.377000 -13.620300 -27.027600
H -7.256700 -16.523800 -28.499400
C -6.969800 -15.659100 -28.232100
C -6.134400 -13.133400 -27.440200
H -5.848200 -12.269000 -27.171100
C -5.721100 -15.186800 -28.638300
C -5.323400 -13.913900 -28.242200
O -5.180000 -17.252500 -29.631800
C -4.835700 -15.982900 -29.523900
H -4.683300 -17.630300 -30.193100
H -4.482500 -13.576000 -28.527500
O -3.886600 -15.498500 -30.112500
22
Fragment
H -9.397800 -14.618800 -32.302600
H -9.203300 -14.674200 -33.891300
H -9.144300 -12.550900 -31.137300
N -9.114500 -12.801300 -33.139900
C -8.877300 -14.246900 -33.059300
H -8.772700 -11.215600 -31.937300
H -8.666400 -12.664200 -35.105400
C -8.625700 -12.194400 -31.901300
H -8.475200 -11.285200 -34.312900
C -8.339500 -12.264500 -34.260600
H -7.501600 -14.299100 -30.869400
N -7.459200 -14.578300 -32.873700
N -7.185400 -12.463100 -31.680400
H -7.013300 -14.444200 -34.841200
C -6.999400 -13.929700 -31.637700
N -6.891300 -12.552000 -34.110700
C -6.709800 -14.015300 -34.003000
H -6.556500 -10.959700 -32.894600
C -6.438000 -11.941800 -32.844100
H -6.039900 -14.132800 -31.500800
H -5.747500 -14.216500 -33.889500
H -5.473400 -12.126300 -32.720400
38
Fragment
H -8.647800 -15.203900 -27.182400
O -8.212700 -12.908700 -26.232900
C -7.793700 -14.878800 -27.442400
H -7.793500 -12.267800 -25.887800
C -7.377000 -13.620300 -27.027600
H -7.256700 -16.523800 -28.499400
C -6.969800 -15.659100 -28.232100
C -6.134400 -13.133400 -27.440200
H -5.848200 -12.269000 -27.171100
C -5.721100 -15.186800 -28.638300
C -5.323400 -13.913900 -28.242200
O -5.180000 -17.252500 -29.631800
C -4.835700 -15.982900 -29.523900
H -4.683300 -17.630300 -30.193100
H -4.482500 -13.576000 -28.527500
O -3.886600 -15.498500 -30.112500
H -9.397800 -14.618800 -32.302600
H -9.203300 -14.674200 -33.891300
H -9.144300 -12.550900 -31.137300
N -9.114500 -12.801300 -33.139900
C -8.877300 -14.246900 -33.059300
H -8.772700 -11.215600 -31.937300
H -8.666400 -12.664200 -35.105400
C -8.625700 -12.194400 -31.901300
H -8.475200 -11.285200 -34.312900
C -8.339500 -12.264500 -34.260600
H -7.501600 -14.299100 -30.869400
N -7.459200 -14.578300 -32.873700
N -7.185400 -12.463100 -31.680400
H -7.013300 -14.444200 -34.841200
C -6.999400 -13.929700 -31.637700
N -6.891300 -12.552000 -34.110700
C -6.709800 -14.015300 -34.003000
H -6.556500 -10.959700 -32.894600
C -6.438000 -11.941800 -32.844100
H -6.039900 -14.132800 -31.500800
H -5.747500 -14.216500 -33.889500
H -5.473400 -12.126300 -32.720400
