16
Fragment
H -8.647800 -15.203900 -27.182400
O -8.212700 -12.908700 -26.232900
C -7.793700 -14.878800 -27.442400
H -7.793500 -12.267800 -25.887800
C -7.377000 -13.620300 -27.027600
H -7.256700 -16.523800 -28.499400
C -6.969800 -15.659100 -28.232100
C -6.134400 -13.133400 -27.440200
H -5.848200 -12.269000 -27.171100
C -5.721100 -15.186800 -28.638300
C -5.323400 -13.913900 -28.242200
O -5.180000 -17.252500 -29.631800
C -4.835700 -15.982900 -29.523900
H -4.683300 -17.630300 -30.193100
H -4.482500 -13.576000 -28.527500
O -3.886600 -15.498500 -30.112500
22
Fragment
H -3.421800 -14.618800 -32.302600
H -3.227300 -14.674200 -33.891300
H -3.168300 -12.550900 -31.137300
N -3.138500 -12.801300 -33.139900
C -2.901300 -14.246900 -33.059300
H -2.796700 -11.215600 -31.937300
H -2.690400 -12.664200 -35.105400
C -2.649700 -12.194400 -31.901300
H -2.499200 -11.285200 -34.312900
C -2.363500 -12.264500 -34.260600
H -1.525600 -14.299100 -30.869400
N -1.483200 -14.578300 -32.873700
N -1.209400 -12.463100 -31.680400
H -1.037300 -14.444200 -34.841200
C -1.023400 -13.929700 -31.637700
N -0.915300 -12.552000 -34.110700
C -0.733800 -14.015300 -34.003000
H -0.580500 -10.959700 -32.894600
C -0.462000 -11.941800 -32.844100
H -0.063900 -14.132800 -31.500800
H 0.228500 -14.216500 -33.889500
H 0.502600 -12.126300 -32.720400
38
Fragment
H -8.647800 -15.203900 -27.182400
O -8.212700 -12.908700 -26.232900
C -7.793700 -14.878800 -27.442400
H -7.793500 -12.267800 -25.887800
C -7.377000 -13.620300 -27.027600
H -7.256700 -16.523800 -28.499400
C -6.969800 -15.659100 -28.232100
C -6.134400 -13.133400 -27.440200
H -5.848200 -12.269000 -27.171100
C -5.721100 -15.186800 -28.638300
C -5.323400 -13.913900 -28.242200
O -5.180000 -17.252500 -29.631800
C -4.835700 -15.982900 -29.523900
H -4.683300 -17.630300 -30.193100
H -4.482500 -13.576000 -28.527500
O -3.886600 -15.498500 -30.112500
H -3.421800 -14.618800 -32.302600
H -3.227300 -14.674200 -33.891300
H -3.168300 -12.550900 -31.137300
N -3.138500 -12.801300 -33.139900
C -2.901300 -14.246900 -33.059300
H -2.796700 -11.215600 -31.937300
H -2.690400 -12.664200 -35.105400
C -2.649700 -12.194400 -31.901300
H -2.499200 -11.285200 -34.312900
C -2.363500 -12.264500 -34.260600
H -1.525600 -14.299100 -30.869400
N -1.483200 -14.578300 -32.873700
N -1.209400 -12.463100 -31.680400
H -1.037300 -14.444200 -34.841200
C -1.023400 -13.929700 -31.637700
N -0.915300 -12.552000 -34.110700
C -0.733800 -14.015300 -34.003000
H -0.580500 -10.959700 -32.894600
C -0.462000 -11.941800 -32.844100
H -0.063900 -14.132800 -31.500800
H 0.228500 -14.216500 -33.889500
H 0.502600 -12.126300 -32.720400
