22
Fragment
H -26.642100 -10.469600 -12.769600
H -26.416300 -10.414600 -11.186500
C -26.015000 -10.179400 -12.060500
N -25.843600 -8.717200 -12.135800
H -25.832100 -8.655800 -14.164800
H -25.291200 -8.535200 -10.186700
C -25.219200 -8.391000 -13.433300
H -25.081900 -7.412300 -13.490900
C -24.896900 -8.320100 -11.067900
H -24.765000 -10.810600 -14.236600
H -24.754600 -7.340800 -11.106900
N -24.747300 -10.896100 -12.216000
H -24.221100 -10.702400 -10.274000
C -24.160600 -10.521600 -13.508200
N -23.933900 -9.067100 -13.615200
C -23.836900 -10.460100 -11.153600
N -23.598900 -9.002100 -11.195200
H -23.299300 -10.994400 -13.623500
C -23.039400 -8.671200 -12.527500
H -22.973900 -10.934100 -11.249500
H -22.877000 -7.696000 -12.579500
H -22.169400 -9.131000 -12.638100
20
Fragment
H -20.945700 -11.109600 -9.757000
O -20.853400 -12.007300 -12.307300
H -20.234700 -10.126200 -10.800900
H -20.218300 -13.862500 -13.916300
C -20.082800 -10.794000 -10.100600
C -19.874200 -12.445300 -11.752900
H -19.652900 -15.458800 -15.493800
H -19.569300 -10.390400 -9.370300
C -19.490700 -14.221200 -13.420900
O -19.346400 -11.908600 -10.649600
C -19.110800 -13.642100 -12.213800
O -19.090900 -15.923900 -15.078300
C -18.798800 -15.329400 -13.895800
C -18.067500 -14.171600 -11.463000
H -17.811500 -13.768500 -10.641900
C -17.757700 -15.873700 -13.149600
C -17.404600 -15.301600 -11.933300
H -17.289700 -16.634900 -13.471100
O -16.412400 -15.807200 -11.157700
H -15.987100 -16.387800 -11.590800
42
Fragment
H -26.642100 -10.469600 -12.769600
H -26.416300 -10.414600 -11.186500
C -26.015000 -10.179400 -12.060500
N -25.843600 -8.717200 -12.135800
H -25.832100 -8.655800 -14.164800
H -25.291200 -8.535200 -10.186700
C -25.219200 -8.391000 -13.433300
H -25.081900 -7.412300 -13.490900
C -24.896900 -8.320100 -11.067900
H -24.765000 -10.810600 -14.236600
H -24.754600 -7.340800 -11.106900
N -24.747300 -10.896100 -12.216000
H -24.221100 -10.702400 -10.274000
C -24.160600 -10.521600 -13.508200
N -23.933900 -9.067100 -13.615200
C -23.836900 -10.460100 -11.153600
N -23.598900 -9.002100 -11.195200
H -23.299300 -10.994400 -13.623500
C -23.039400 -8.671200 -12.527500
H -22.973900 -10.934100 -11.249500
H -22.877000 -7.696000 -12.579500
H -22.169400 -9.131000 -12.638100
H -20.945700 -11.109600 -9.757000
O -20.853400 -12.007300 -12.307300
H -20.234700 -10.126200 -10.800900
H -20.218300 -13.862500 -13.916300
C -20.082800 -10.794000 -10.100600
C -19.874200 -12.445300 -11.752900
H -19.652900 -15.458800 -15.493800
H -19.569300 -10.390400 -9.370300
C -19.490700 -14.221200 -13.420900
O -19.346400 -11.908600 -10.649600
C -19.110800 -13.642100 -12.213800
O -19.090900 -15.923900 -15.078300
C -18.798800 -15.329400 -13.895800
C -18.067500 -14.171600 -11.463000
H -17.811500 -13.768500 -10.641900
C -17.757700 -15.873700 -13.149600
C -17.404600 -15.301600 -11.933300
H -17.289700 -16.634900 -13.471100
O -16.412400 -15.807200 -11.157700
H -15.987100 -16.387800 -11.590800
