22
Fragment
H -26.642100 -10.469600 -12.769600
H -26.416300 -10.414600 -11.186500
C -26.015000 -10.179400 -12.060500
N -25.843600 -8.717200 -12.135800
H -25.832100 -8.655800 -14.164800
H -25.291200 -8.535200 -10.186700
C -25.219200 -8.391000 -13.433300
H -25.081900 -7.412300 -13.490900
C -24.896900 -8.320100 -11.067900
H -24.765000 -10.810600 -14.236600
H -24.754600 -7.340800 -11.106900
N -24.747300 -10.896100 -12.216000
H -24.221100 -10.702400 -10.274000
C -24.160600 -10.521600 -13.508200
N -23.933900 -9.067100 -13.615200
C -23.836900 -10.460100 -11.153600
N -23.598900 -9.002100 -11.195200
H -23.299300 -10.994400 -13.623500
C -23.039400 -8.671200 -12.527500
H -22.973900 -10.934100 -11.249500
H -22.877000 -7.696000 -12.579500
H -22.169400 -9.131000 -12.638100
22
Fragment
H -29.374500 -7.260400 -7.245900
H -29.148700 -7.315400 -5.662800
C -28.747300 -7.550600 -6.536900
N -28.576000 -9.012800 -6.612100
H -28.564400 -9.074200 -8.641200
H -28.023600 -9.194800 -4.663100
C -27.951500 -9.339000 -7.909600
H -27.814200 -10.317700 -7.967300
C -27.629300 -9.409900 -5.544300
H -27.497400 -6.919400 -8.713000
H -27.486900 -10.389200 -5.583300
N -27.479700 -6.833900 -6.692300
H -26.953400 -7.027600 -4.750300
C -26.892900 -7.208400 -7.984500
N -26.666200 -8.662900 -8.091600
C -26.569200 -7.269900 -5.629900
N -26.331200 -8.727900 -5.671600
H -26.031700 -6.735600 -8.099900
C -25.771700 -9.058800 -7.003900
H -25.706300 -6.795900 -5.725800
H -25.609300 -10.034000 -7.055900
H -24.901800 -8.599000 -7.114500
44
Fragment
H -26.642100 -10.469600 -12.769600
H -26.416300 -10.414600 -11.186500
C -26.015000 -10.179400 -12.060500
N -25.843600 -8.717200 -12.135800
H -25.832100 -8.655800 -14.164800
H -25.291200 -8.535200 -10.186700
C -25.219200 -8.391000 -13.433300
H -25.081900 -7.412300 -13.490900
C -24.896900 -8.320100 -11.067900
H -24.765000 -10.810600 -14.236600
H -24.754600 -7.340800 -11.106900
N -24.747300 -10.896100 -12.216000
H -24.221100 -10.702400 -10.274000
C -24.160600 -10.521600 -13.508200
N -23.933900 -9.067100 -13.615200
C -23.836900 -10.460100 -11.153600
N -23.598900 -9.002100 -11.195200
H -23.299300 -10.994400 -13.623500
C -23.039400 -8.671200 -12.527500
H -22.973900 -10.934100 -11.249500
H -22.877000 -7.696000 -12.579500
H -22.169400 -9.131000 -12.638100
H -29.374500 -7.260400 -7.245900
H -29.148700 -7.315400 -5.662800
C -28.747300 -7.550600 -6.536900
N -28.576000 -9.012800 -6.612100
H -28.564400 -9.074200 -8.641200
H -28.023600 -9.194800 -4.663100
C -27.951500 -9.339000 -7.909600
H -27.814200 -10.317700 -7.967300
C -27.629300 -9.409900 -5.544300
H -27.497400 -6.919400 -8.713000
H -27.486900 -10.389200 -5.583300
N -27.479700 -6.833900 -6.692300
H -26.953400 -7.027600 -4.750300
C -26.892900 -7.208400 -7.984500
N -26.666200 -8.662900 -8.091600
C -26.569200 -7.269900 -5.629900
N -26.331200 -8.727900 -5.671600
H -26.031700 -6.735600 -8.099900
C -25.771700 -9.058800 -7.003900
H -25.706300 -6.795900 -5.725800
H -25.609300 -10.034000 -7.055900
H -24.901800 -8.599000 -7.114500
