16
Fragment
H -8.647800 -15.203900 -27.182400
O -8.212700 -12.908700 -26.232900
C -7.793700 -14.878800 -27.442400
H -7.793500 -12.267800 -25.887800
C -7.377000 -13.620300 -27.027600
H -7.256700 -16.523800 -28.499400
C -6.969800 -15.659100 -28.232100
C -6.134400 -13.133400 -27.440200
H -5.848200 -12.269000 -27.171100
C -5.721100 -15.186800 -28.638300
C -5.323400 -13.913900 -28.242200
O -5.180000 -17.252500 -29.631800
C -4.835700 -15.982900 -29.523900
H -4.683300 -17.630300 -30.193100
H -4.482500 -13.576000 -28.527500
O -3.886600 -15.498500 -30.112500
22
Fragment
H -11.041400 -18.024300 -32.851600
H -10.767300 -20.114500 -31.682500
H -10.474800 -20.030800 -34.071200
C -10.076800 -17.839800 -32.727900
H -9.958300 -16.857700 -32.677300
C -9.805000 -19.913300 -31.569000
N -9.623500 -18.450000 -31.461200
C -9.515300 -19.827700 -33.934200
H -9.501500 -20.342200 -30.730800
N -9.329300 -18.361100 -33.891500
N -9.055500 -20.476300 -32.698300
H -9.013200 -20.197100 -34.702600
C -8.175300 -18.162500 -31.311400
H -8.039500 -17.183200 -31.259100
C -7.889000 -18.092400 -33.670600
H -7.848300 -18.562200 -30.466600
H -7.742000 -17.113600 -33.634700
C -7.637500 -20.144900 -32.512600
N -7.400300 -18.699300 -32.432100
H -7.370400 -18.448900 -34.434600
H -7.311500 -20.572200 -31.680600
H -7.117000 -20.516800 -33.269300
38
Fragment
H -8.647800 -15.203900 -27.182400
O -8.212700 -12.908700 -26.232900
C -7.793700 -14.878800 -27.442400
H -7.793500 -12.267800 -25.887800
C -7.377000 -13.620300 -27.027600
H -7.256700 -16.523800 -28.499400
C -6.969800 -15.659100 -28.232100
C -6.134400 -13.133400 -27.440200
H -5.848200 -12.269000 -27.171100
C -5.721100 -15.186800 -28.638300
C -5.323400 -13.913900 -28.242200
O -5.180000 -17.252500 -29.631800
C -4.835700 -15.982900 -29.523900
H -4.683300 -17.630300 -30.193100
H -4.482500 -13.576000 -28.527500
O -3.886600 -15.498500 -30.112500
H -11.041400 -18.024300 -32.851600
H -10.767300 -20.114500 -31.682500
H -10.474800 -20.030800 -34.071200
C -10.076800 -17.839800 -32.727900
H -9.958300 -16.857700 -32.677300
C -9.805000 -19.913300 -31.569000
N -9.623500 -18.450000 -31.461200
C -9.515300 -19.827700 -33.934200
H -9.501500 -20.342200 -30.730800
N -9.329300 -18.361100 -33.891500
N -9.055500 -20.476300 -32.698300
H -9.013200 -20.197100 -34.702600
C -8.175300 -18.162500 -31.311400
H -8.039500 -17.183200 -31.259100
C -7.889000 -18.092400 -33.670600
H -7.848300 -18.562200 -30.466600
H -7.742000 -17.113600 -33.634700
C -7.637500 -20.144900 -32.512600
N -7.400300 -18.699300 -32.432100
H -7.370400 -18.448900 -34.434600
H -7.311500 -20.572200 -31.680600
H -7.117000 -20.516800 -33.269300
