25
Fragment
H -18.209100 -23.223600 -13.556200
H -17.473300 -22.283300 -11.543800
C -17.299800 -23.309500 -13.296500
C -16.862200 -22.750800 -12.100900
H -16.704300 -24.376100 -14.928400
C -16.405700 -23.993700 -14.111400
C -15.531700 -22.876400 -11.720400
H -15.232700 -22.495300 -10.903500
C -15.074000 -24.120700 -13.730800
C -14.637600 -23.562100 -12.535300
H -14.463600 -24.588100 -14.288100
C -13.215400 -23.667500 -12.136000
O -13.081200 -26.053600 -12.447800
N -12.597400 -22.574700 -11.755400
C -12.570900 -24.978200 -12.117200
N -11.299800 -22.629600 -11.337900
N -11.269600 -24.939200 -11.645800
H -11.037300 -26.799300 -11.873800
C -10.666600 -23.780100 -11.275000
N -10.628400 -26.173400 -11.439700
H -9.809800 -26.128200 -11.716600
C -9.257900 -23.814700 -10.806900
H -9.177100 -24.444100 -10.060300
H -8.990100 -22.919700 -10.510200
H -8.676300 -24.102700 -11.541400
32
Fragment
O -18.066100 -27.491300 -18.277500
H -17.966600 -27.441800 -19.110000
H -17.577100 -27.630900 -15.807500
C -16.853900 -27.269000 -17.653800
C -16.790500 -27.435000 -16.302700
H -15.799200 -26.649000 -19.302100
C -15.732300 -26.837400 -18.373500
C -15.559800 -27.312300 -15.652500
H -15.498800 -27.492600 -14.721500
C -14.534400 -26.690100 -17.716100
C -14.429700 -26.931200 -16.352000
H -13.765400 -26.417500 -18.202800
H -13.216400 -27.134600 -14.703600
C -13.086300 -26.926900 -15.673200
H -12.518600 -28.874700 -16.126700
O -12.497600 -25.604600 -15.792500
C -12.144400 -27.970500 -16.276100
H -12.077700 -27.825400 -17.253200
H -11.377300 -23.470600 -15.040600
C -11.225300 -25.480500 -15.277100
C -10.799900 -24.217400 -14.939300
C -10.765300 -27.894000 -15.665400
C -10.378600 -26.615100 -15.174000
O -10.020600 -28.887100 -15.670600
H -9.575900 -22.267400 -14.226000
C -9.507000 -24.054300 -14.446600
C -9.085800 -26.398500 -14.651500
O -9.011000 -22.869200 -14.069900
C -8.663300 -25.151400 -14.282600
H -8.509300 -28.112000 -14.934400
O -8.209600 -27.443600 -14.523100
H -7.795500 -25.033900 -13.914500
57
Fragment
H -18.209100 -23.223600 -13.556200
H -17.473300 -22.283300 -11.543800
C -17.299800 -23.309500 -13.296500
C -16.862200 -22.750800 -12.100900
H -16.704300 -24.376100 -14.928400
C -16.405700 -23.993700 -14.111400
C -15.531700 -22.876400 -11.720400
H -15.232700 -22.495300 -10.903500
C -15.074000 -24.120700 -13.730800
C -14.637600 -23.562100 -12.535300
H -14.463600 -24.588100 -14.288100
C -13.215400 -23.667500 -12.136000
O -13.081200 -26.053600 -12.447800
N -12.597400 -22.574700 -11.755400
C -12.570900 -24.978200 -12.117200
N -11.299800 -22.629600 -11.337900
N -11.269600 -24.939200 -11.645800
H -11.037300 -26.799300 -11.873800
C -10.666600 -23.780100 -11.275000
N -10.628400 -26.173400 -11.439700
H -9.809800 -26.128200 -11.716600
C -9.257900 -23.814700 -10.806900
H -9.177100 -24.444100 -10.060300
H -8.990100 -22.919700 -10.510200
H -8.676300 -24.102700 -11.541400
O -18.066100 -27.491300 -18.277500
H -17.966600 -27.441800 -19.110000
H -17.577100 -27.630900 -15.807500
C -16.853900 -27.269000 -17.653800
C -16.790500 -27.435000 -16.302700
H -15.799200 -26.649000 -19.302100
C -15.732300 -26.837400 -18.373500
C -15.559800 -27.312300 -15.652500
H -15.498800 -27.492600 -14.721500
C -14.534400 -26.690100 -17.716100
C -14.429700 -26.931200 -16.352000
H -13.765400 -26.417500 -18.202800
H -13.216400 -27.134600 -14.703600
C -13.086300 -26.926900 -15.673200
H -12.518600 -28.874700 -16.126700
O -12.497600 -25.604600 -15.792500
C -12.144400 -27.970500 -16.276100
H -12.077700 -27.825400 -17.253200
H -11.377300 -23.470600 -15.040600
C -11.225300 -25.480500 -15.277100
C -10.799900 -24.217400 -14.939300
C -10.765300 -27.894000 -15.665400
C -10.378600 -26.615100 -15.174000
O -10.020600 -28.887100 -15.670600
H -9.575900 -22.267400 -14.226000
C -9.507000 -24.054300 -14.446600
C -9.085800 -26.398500 -14.651500
O -9.011000 -22.869200 -14.069900
C -8.663300 -25.151400 -14.282600
H -8.509300 -28.112000 -14.934400
O -8.209600 -27.443600 -14.523100
H -7.795500 -25.033900 -13.914500
