25
Fragment
H -10.321200 -40.713300 -17.940700
H -9.975200 -38.680800 -18.964100
C -9.475000 -40.493300 -18.258200
C -9.268400 -39.279600 -18.877800
N -8.662100 -36.669700 -19.600500
N -8.607100 -35.416700 -20.145800
H -8.567300 -42.192400 -17.671300
C -8.431600 -41.382200 -18.107500
H -8.270300 -33.208600 -21.160700
C -8.015900 -38.940900 -19.374700
H -7.879900 -33.794700 -22.561200
C -7.851000 -37.608300 -20.004800
C -7.724800 -35.149300 -21.073600
C -7.652600 -33.775700 -21.628700
C -7.186400 -41.063200 -18.607000
C -6.973800 -39.851200 -19.247900
N -6.878500 -36.095100 -21.547400
C -6.862000 -37.396300 -21.054400
H -6.761900 -33.434100 -21.523100
H -6.701400 -36.029900 -23.103000
H -6.484300 -41.665500 -18.513700
H -6.133900 -39.648300 -19.592200
O -6.085800 -38.216300 -21.515000
N -5.959300 -35.742300 -22.569000
H -5.213800 -36.142500 -22.910100
19
Fragment
H -10.204500 -42.880400 -20.312200
H -10.132200 -44.937700 -21.367300
C -9.927500 -42.936100 -21.198400
C -9.888300 -44.169100 -21.830100
H -9.598700 -40.965400 -21.443800
C -9.560400 -41.788200 -21.875200
C -9.484500 -44.254000 -23.149700
H -9.465000 -45.078000 -23.580300
H -9.235600 -39.237400 -22.790200
C -9.130000 -41.856600 -23.205000
C -9.107900 -43.104100 -23.828700
H -8.836000 -43.166200 -24.715900
C -8.742700 -39.419300 -23.557500
C -8.634300 -40.686500 -23.933900
O -8.327300 -37.128400 -23.920800
H -8.200700 -40.848100 -24.740500
C -8.139800 -38.284100 -24.265500
O -7.373900 -38.626500 -25.290400
H -6.955100 -37.970900 -25.549500
44
Fragment
H -10.321200 -40.713300 -17.940700
H -9.975200 -38.680800 -18.964100
C -9.475000 -40.493300 -18.258200
C -9.268400 -39.279600 -18.877800
N -8.662100 -36.669700 -19.600500
N -8.607100 -35.416700 -20.145800
H -8.567300 -42.192400 -17.671300
C -8.431600 -41.382200 -18.107500
H -8.270300 -33.208600 -21.160700
C -8.015900 -38.940900 -19.374700
H -7.879900 -33.794700 -22.561200
C -7.851000 -37.608300 -20.004800
C -7.724800 -35.149300 -21.073600
C -7.652600 -33.775700 -21.628700
C -7.186400 -41.063200 -18.607000
C -6.973800 -39.851200 -19.247900
N -6.878500 -36.095100 -21.547400
C -6.862000 -37.396300 -21.054400
H -6.761900 -33.434100 -21.523100
H -6.701400 -36.029900 -23.103000
H -6.484300 -41.665500 -18.513700
H -6.133900 -39.648300 -19.592200
O -6.085800 -38.216300 -21.515000
N -5.959300 -35.742300 -22.569000
H -5.213800 -36.142500 -22.910100
H -10.204500 -42.880400 -20.312200
H -10.132200 -44.937700 -21.367300
C -9.927500 -42.936100 -21.198400
C -9.888300 -44.169100 -21.830100
H -9.598700 -40.965400 -21.443800
C -9.560400 -41.788200 -21.875200
C -9.484500 -44.254000 -23.149700
H -9.465000 -45.078000 -23.580300
H -9.235600 -39.237400 -22.790200
C -9.130000 -41.856600 -23.205000
C -9.107900 -43.104100 -23.828700
H -8.836000 -43.166200 -24.715900
C -8.742700 -39.419300 -23.557500
C -8.634300 -40.686500 -23.933900
O -8.327300 -37.128400 -23.920800
H -8.200700 -40.848100 -24.740500
C -8.139800 -38.284100 -24.265500
O -7.373900 -38.626500 -25.290400
H -6.955100 -37.970900 -25.549500
