25
Fragment
H -18.209100 -23.223600 -13.556200
H -17.473300 -22.283300 -11.543800
C -17.299800 -23.309500 -13.296500
C -16.862200 -22.750800 -12.100900
H -16.704300 -24.376100 -14.928400
C -16.405700 -23.993700 -14.111400
C -15.531700 -22.876400 -11.720400
H -15.232700 -22.495300 -10.903500
C -15.074000 -24.120700 -13.730800
C -14.637600 -23.562100 -12.535300
H -14.463600 -24.588100 -14.288100
C -13.215400 -23.667500 -12.136000
O -13.081200 -26.053600 -12.447800
N -12.597400 -22.574700 -11.755400
C -12.570900 -24.978200 -12.117200
N -11.299800 -22.629600 -11.337900
N -11.269600 -24.939200 -11.645800
H -11.037300 -26.799300 -11.873800
C -10.666600 -23.780100 -11.275000
N -10.628400 -26.173400 -11.439700
H -9.809800 -26.128200 -11.716600
C -9.257900 -23.814700 -10.806900
H -9.177100 -24.444100 -10.060300
H -8.990100 -22.919700 -10.510200
H -8.676300 -24.102700 -11.541400
32
Fragment
O -8.061800 -27.491300 -11.794300
H -7.962300 -27.441800 -12.626700
H -7.572800 -27.630900 -9.324300
C -6.849600 -27.269000 -11.170600
C -6.786200 -27.435000 -9.819500
H -5.794900 -26.649000 -12.818800
C -5.728000 -26.837400 -11.890200
C -5.555500 -27.312300 -9.169200
H -5.494500 -27.492600 -8.238300
C -4.530100 -26.690100 -11.232800
C -4.425400 -26.931200 -9.868800
H -3.761200 -26.417500 -11.719500
H -3.212100 -27.134600 -8.220400
C -3.082000 -26.926900 -9.190000
H -2.514300 -28.874700 -9.643500
O -2.493300 -25.604600 -9.309300
C -2.140100 -27.970500 -9.792900
H -2.073400 -27.825400 -10.770000
H -1.373000 -23.470600 -8.557300
C -1.221000 -25.480500 -8.793900
C -0.795600 -24.217400 -8.456100
C -0.761000 -27.894000 -9.182200
C -0.374300 -26.615100 -8.690800
O -0.016300 -28.887100 -9.187400
H 0.428400 -22.267400 -7.742700
C 0.497300 -24.054300 -7.963400
C 0.918500 -26.398500 -8.168200
O 0.993300 -22.869200 -7.586700
C 1.341000 -25.151400 -7.799300
H 1.495000 -28.112000 -8.451200
O 1.794700 -27.443600 -8.039900
H 2.208800 -25.033900 -7.431300
57
Fragment
H -18.209100 -23.223600 -13.556200
H -17.473300 -22.283300 -11.543800
C -17.299800 -23.309500 -13.296500
C -16.862200 -22.750800 -12.100900
H -16.704300 -24.376100 -14.928400
C -16.405700 -23.993700 -14.111400
C -15.531700 -22.876400 -11.720400
H -15.232700 -22.495300 -10.903500
C -15.074000 -24.120700 -13.730800
C -14.637600 -23.562100 -12.535300
H -14.463600 -24.588100 -14.288100
C -13.215400 -23.667500 -12.136000
O -13.081200 -26.053600 -12.447800
N -12.597400 -22.574700 -11.755400
C -12.570900 -24.978200 -12.117200
N -11.299800 -22.629600 -11.337900
N -11.269600 -24.939200 -11.645800
H -11.037300 -26.799300 -11.873800
C -10.666600 -23.780100 -11.275000
N -10.628400 -26.173400 -11.439700
H -9.809800 -26.128200 -11.716600
C -9.257900 -23.814700 -10.806900
H -9.177100 -24.444100 -10.060300
H -8.990100 -22.919700 -10.510200
H -8.676300 -24.102700 -11.541400
O -8.061800 -27.491300 -11.794300
H -7.962300 -27.441800 -12.626700
H -7.572800 -27.630900 -9.324300
C -6.849600 -27.269000 -11.170600
C -6.786200 -27.435000 -9.819500
H -5.794900 -26.649000 -12.818800
C -5.728000 -26.837400 -11.890200
C -5.555500 -27.312300 -9.169200
H -5.494500 -27.492600 -8.238300
C -4.530100 -26.690100 -11.232800
C -4.425400 -26.931200 -9.868800
H -3.761200 -26.417500 -11.719500
H -3.212100 -27.134600 -8.220400
C -3.082000 -26.926900 -9.190000
H -2.514300 -28.874700 -9.643500
O -2.493300 -25.604600 -9.309300
C -2.140100 -27.970500 -9.792900
H -2.073400 -27.825400 -10.770000
H -1.373000 -23.470600 -8.557300
C -1.221000 -25.480500 -8.793900
C -0.795600 -24.217400 -8.456100
C -0.761000 -27.894000 -9.182200
C -0.374300 -26.615100 -8.690800
O -0.016300 -28.887100 -9.187400
H 0.428400 -22.267400 -7.742700
C 0.497300 -24.054300 -7.963400
C 0.918500 -26.398500 -8.168200
O 0.993300 -22.869200 -7.586700
C 1.341000 -25.151400 -7.799300
H 1.495000 -28.112000 -8.451200
O 1.794700 -27.443600 -8.039900
H 2.208800 -25.033900 -7.431300
