25
Fragment
H -10.321200 -40.713300 -17.940700
H -9.975200 -38.680800 -18.964100
C -9.475000 -40.493300 -18.258200
C -9.268400 -39.279600 -18.877800
N -8.662100 -36.669700 -19.600500
N -8.607100 -35.416700 -20.145800
H -8.567300 -42.192400 -17.671300
C -8.431600 -41.382200 -18.107500
H -8.270300 -33.208600 -21.160700
C -8.015900 -38.940900 -19.374700
H -7.879900 -33.794700 -22.561200
C -7.851000 -37.608300 -20.004800
C -7.724800 -35.149300 -21.073600
C -7.652600 -33.775700 -21.628700
C -7.186400 -41.063200 -18.607000
C -6.973800 -39.851200 -19.247900
N -6.878500 -36.095100 -21.547400
C -6.862000 -37.396300 -21.054400
H -6.761900 -33.434100 -21.523100
H -6.701400 -36.029900 -23.103000
H -6.484300 -41.665500 -18.513700
H -6.133900 -39.648300 -19.592200
O -6.085800 -38.216300 -21.515000
N -5.959300 -35.742300 -22.569000
H -5.213800 -36.142500 -22.910100
19
Fragment
H -13.918400 -48.641500 -11.543800
O -13.499500 -47.985900 -11.803000
C -12.733700 -48.328300 -12.827900
H -12.672700 -45.764300 -12.352800
O -12.546200 -49.484000 -13.172600
C -12.239100 -45.925900 -13.159500
C -12.130700 -47.193100 -13.535900
H -12.037500 -43.446200 -12.377400
C -11.765600 -43.508300 -13.264700
C -11.743400 -44.755800 -13.888400
H -11.637800 -47.375000 -14.303200
H -11.408400 -41.534400 -13.513100
C -11.388900 -42.358400 -13.943600
C -11.313000 -44.824200 -15.218200
H -11.274700 -45.647000 -15.649600
C -10.985100 -42.443300 -15.263300
C -10.945900 -43.676300 -15.895000
H -10.741200 -41.674700 -15.726100
H -10.668900 -43.732000 -16.781200
44
Fragment
H -10.321200 -40.713300 -17.940700
H -9.975200 -38.680800 -18.964100
C -9.475000 -40.493300 -18.258200
C -9.268400 -39.279600 -18.877800
N -8.662100 -36.669700 -19.600500
N -8.607100 -35.416700 -20.145800
H -8.567300 -42.192400 -17.671300
C -8.431600 -41.382200 -18.107500
H -8.270300 -33.208600 -21.160700
C -8.015900 -38.940900 -19.374700
H -7.879900 -33.794700 -22.561200
C -7.851000 -37.608300 -20.004800
C -7.724800 -35.149300 -21.073600
C -7.652600 -33.775700 -21.628700
C -7.186400 -41.063200 -18.607000
C -6.973800 -39.851200 -19.247900
N -6.878500 -36.095100 -21.547400
C -6.862000 -37.396300 -21.054400
H -6.761900 -33.434100 -21.523100
H -6.701400 -36.029900 -23.103000
H -6.484300 -41.665500 -18.513700
H -6.133900 -39.648300 -19.592200
O -6.085800 -38.216300 -21.515000
N -5.959300 -35.742300 -22.569000
H -5.213800 -36.142500 -22.910100
H -13.918400 -48.641500 -11.543800
O -13.499500 -47.985900 -11.803000
C -12.733700 -48.328300 -12.827900
H -12.672700 -45.764300 -12.352800
O -12.546200 -49.484000 -13.172600
C -12.239100 -45.925900 -13.159500
C -12.130700 -47.193100 -13.535900
H -12.037500 -43.446200 -12.377400
C -11.765600 -43.508300 -13.264700
C -11.743400 -44.755800 -13.888400
H -11.637800 -47.375000 -14.303200
H -11.408400 -41.534400 -13.513100
C -11.388900 -42.358400 -13.943600
C -11.313000 -44.824200 -15.218200
H -11.274700 -45.647000 -15.649600
C -10.985100 -42.443300 -15.263300
C -10.945900 -43.676300 -15.895000
H -10.741200 -41.674700 -15.726100
H -10.668900 -43.732000 -16.781200
