25
Fragment
H -10.321200 -40.713300 -17.940700
H -9.975200 -38.680800 -18.964100
C -9.475000 -40.493300 -18.258200
C -9.268400 -39.279600 -18.877800
N -8.662100 -36.669700 -19.600500
N -8.607100 -35.416700 -20.145800
H -8.567300 -42.192400 -17.671300
C -8.431600 -41.382200 -18.107500
H -8.270300 -33.208600 -21.160700
C -8.015900 -38.940900 -19.374700
H -7.879900 -33.794700 -22.561200
C -7.851000 -37.608300 -20.004800
C -7.724800 -35.149300 -21.073600
C -7.652600 -33.775700 -21.628700
C -7.186400 -41.063200 -18.607000
C -6.973800 -39.851200 -19.247900
N -6.878500 -36.095100 -21.547400
C -6.862000 -37.396300 -21.054400
H -6.761900 -33.434100 -21.523100
H -6.701400 -36.029900 -23.103000
H -6.484300 -41.665500 -18.513700
H -6.133900 -39.648300 -19.592200
O -6.085800 -38.216300 -21.515000
N -5.959300 -35.742300 -22.569000
H -5.213800 -36.142500 -22.910100
19
Fragment
H -11.060200 -23.535500 -17.726100
O -10.641300 -24.191100 -17.985200
C -9.875500 -23.848700 -19.010100
H -9.814500 -26.412700 -18.535100
O -9.688000 -22.693000 -19.354800
C -9.380900 -26.251100 -19.341700
C -9.272500 -24.983900 -19.718100
H -9.179300 -28.730800 -18.559700
C -8.907400 -28.668700 -19.446900
C -8.885200 -27.421200 -20.070600
H -8.779700 -24.802000 -20.485400
H -8.550300 -30.642600 -19.695300
C -8.530800 -29.818600 -20.125900
C -8.454800 -27.352800 -21.400400
H -8.416500 -26.530000 -21.831800
C -8.127000 -29.733700 -21.445500
C -8.087800 -28.500700 -22.077200
H -7.883000 -30.502300 -21.908300
H -7.810800 -28.445000 -22.963400
44
Fragment
H -10.321200 -40.713300 -17.940700
H -9.975200 -38.680800 -18.964100
C -9.475000 -40.493300 -18.258200
C -9.268400 -39.279600 -18.877800
N -8.662100 -36.669700 -19.600500
N -8.607100 -35.416700 -20.145800
H -8.567300 -42.192400 -17.671300
C -8.431600 -41.382200 -18.107500
H -8.270300 -33.208600 -21.160700
C -8.015900 -38.940900 -19.374700
H -7.879900 -33.794700 -22.561200
C -7.851000 -37.608300 -20.004800
C -7.724800 -35.149300 -21.073600
C -7.652600 -33.775700 -21.628700
C -7.186400 -41.063200 -18.607000
C -6.973800 -39.851200 -19.247900
N -6.878500 -36.095100 -21.547400
C -6.862000 -37.396300 -21.054400
H -6.761900 -33.434100 -21.523100
H -6.701400 -36.029900 -23.103000
H -6.484300 -41.665500 -18.513700
H -6.133900 -39.648300 -19.592200
O -6.085800 -38.216300 -21.515000
N -5.959300 -35.742300 -22.569000
H -5.213800 -36.142500 -22.910100
H -11.060200 -23.535500 -17.726100
O -10.641300 -24.191100 -17.985200
C -9.875500 -23.848700 -19.010100
H -9.814500 -26.412700 -18.535100
O -9.688000 -22.693000 -19.354800
C -9.380900 -26.251100 -19.341700
C -9.272500 -24.983900 -19.718100
H -9.179300 -28.730800 -18.559700
C -8.907400 -28.668700 -19.446900
C -8.885200 -27.421200 -20.070600
H -8.779700 -24.802000 -20.485400
H -8.550300 -30.642600 -19.695300
C -8.530800 -29.818600 -20.125900
C -8.454800 -27.352800 -21.400400
H -8.416500 -26.530000 -21.831800
C -8.127000 -29.733700 -21.445500
C -8.087800 -28.500700 -22.077200
H -7.883000 -30.502300 -21.908300
H -7.810800 -28.445000 -22.963400
