25
Fragment
H -10.321200 -40.713300 -17.940700
H -9.975200 -38.680800 -18.964100
C -9.475000 -40.493300 -18.258200
C -9.268400 -39.279600 -18.877800
N -8.662100 -36.669700 -19.600500
N -8.607100 -35.416700 -20.145800
H -8.567300 -42.192400 -17.671300
C -8.431600 -41.382200 -18.107500
H -8.270300 -33.208600 -21.160700
C -8.015900 -38.940900 -19.374700
H -7.879900 -33.794700 -22.561200
C -7.851000 -37.608300 -20.004800
C -7.724800 -35.149300 -21.073600
C -7.652600 -33.775700 -21.628700
C -7.186400 -41.063200 -18.607000
C -6.973800 -39.851200 -19.247900
N -6.878500 -36.095100 -21.547400
C -6.862000 -37.396300 -21.054400
H -6.761900 -33.434100 -21.523100
H -6.701400 -36.029900 -23.103000
H -6.484300 -41.665500 -18.513700
H -6.133900 -39.648300 -19.592200
O -6.085800 -38.216300 -21.515000
N -5.959300 -35.742300 -22.569000
H -5.213800 -36.142500 -22.910100
25
Fragment
H -10.615100 -50.222500 -14.472600
N -9.958600 -50.786900 -14.518800
O -9.886200 -48.299400 -15.560100
H -9.540600 -50.788400 -13.758500
H -9.140900 -53.089100 -15.543600
C -9.110700 -49.114700 -16.038200
N -9.081900 -50.418200 -15.563800
H -8.279000 -46.465000 -16.028000
C -8.256100 -51.356500 -16.091700
C -8.254100 -52.723600 -15.506100
C -8.177300 -48.882900 -17.138100
C -8.123600 -46.389300 -16.941800
C -8.067400 -47.535200 -17.737700
H -7.964400 -52.679700 -14.591900
H -7.950800 -44.378200 -16.976900
C -7.947900 -45.136600 -17.515100
C -7.870900 -47.399800 -19.110500
H -7.828300 -48.156500 -19.649200
C -7.768600 -45.008400 -18.877600
C -7.740300 -46.143900 -19.674700
H -7.668400 -44.166300 -19.259100
H -7.655400 -53.284500 -16.004800
H -7.631600 -46.059900 -20.594500
N -7.458100 -51.086600 -17.090000
N -7.420000 -49.824100 -17.629700
50
Fragment
H -10.321200 -40.713300 -17.940700
H -9.975200 -38.680800 -18.964100
C -9.475000 -40.493300 -18.258200
C -9.268400 -39.279600 -18.877800
N -8.662100 -36.669700 -19.600500
N -8.607100 -35.416700 -20.145800
H -8.567300 -42.192400 -17.671300
C -8.431600 -41.382200 -18.107500
H -8.270300 -33.208600 -21.160700
C -8.015900 -38.940900 -19.374700
H -7.879900 -33.794700 -22.561200
C -7.851000 -37.608300 -20.004800
C -7.724800 -35.149300 -21.073600
C -7.652600 -33.775700 -21.628700
C -7.186400 -41.063200 -18.607000
C -6.973800 -39.851200 -19.247900
N -6.878500 -36.095100 -21.547400
C -6.862000 -37.396300 -21.054400
H -6.761900 -33.434100 -21.523100
H -6.701400 -36.029900 -23.103000
H -6.484300 -41.665500 -18.513700
H -6.133900 -39.648300 -19.592200
O -6.085800 -38.216300 -21.515000
N -5.959300 -35.742300 -22.569000
H -5.213800 -36.142500 -22.910100
H -10.615100 -50.222500 -14.472600
N -9.958600 -50.786900 -14.518800
O -9.886200 -48.299400 -15.560100
H -9.540600 -50.788400 -13.758500
H -9.140900 -53.089100 -15.543600
C -9.110700 -49.114700 -16.038200
N -9.081900 -50.418200 -15.563800
H -8.279000 -46.465000 -16.028000
C -8.256100 -51.356500 -16.091700
C -8.254100 -52.723600 -15.506100
C -8.177300 -48.882900 -17.138100
C -8.123600 -46.389300 -16.941800
C -8.067400 -47.535200 -17.737700
H -7.964400 -52.679700 -14.591900
H -7.950800 -44.378200 -16.976900
C -7.947900 -45.136600 -17.515100
C -7.870900 -47.399800 -19.110500
H -7.828300 -48.156500 -19.649200
C -7.768600 -45.008400 -18.877600
C -7.740300 -46.143900 -19.674700
H -7.668400 -44.166300 -19.259100
H -7.655400 -53.284500 -16.004800
H -7.631600 -46.059900 -20.594500
N -7.458100 -51.086600 -17.090000
N -7.420000 -49.824100 -17.629700
