36
Fragment
H -37.073700 -9.860600 -38.325400
H -37.060100 -12.171700 -38.435900
C -36.321300 -10.335500 -38.051900
C -36.313900 -11.719200 -38.113900
C -35.212100 -9.663600 -37.581600
H -35.209900 -8.734000 -37.554200
C -35.202500 -12.432600 -37.698800
H -35.201000 -13.360700 -37.754500
C -34.102800 -10.372400 -37.148600
C -34.079100 -11.766900 -37.194600
H -33.363900 -9.912200 -36.822200
N -33.005700 -13.857800 -36.740400
C -32.911600 -12.541800 -36.705900
C -31.951000 -14.565100 -36.285500
N -31.865400 -15.878000 -36.219500
C -31.743300 -11.895400 -36.202200
H -31.719200 -10.965700 -36.184500
N -30.766300 -13.974000 -35.814300
C -30.670700 -12.584200 -35.750800
N -30.622500 -16.172700 -35.702900
C -29.968600 -15.056100 -35.467400
H -29.618800 -10.996500 -35.063300
C -29.445300 -11.929300 -35.209800
H -29.202000 -12.344100 -34.379600
H -29.053300 -16.377400 -33.454200
H -28.726200 -12.026200 -35.839200
C -28.590200 -15.095300 -34.944600
C -28.341700 -15.944900 -33.869200
H -27.675700 -13.894800 -36.292700
C -27.523000 -14.449600 -35.562200
C -27.058400 -16.155000 -33.409500
H -26.897500 -16.736100 -32.701400
C -26.237000 -14.629700 -35.094400
C -26.017300 -15.481600 -34.027600
H -25.525800 -14.182600 -35.493800
Br -24.226600 -15.797300 -33.472600
6
Fragment
H -40.747800 -7.267900 -38.511900
H -40.617800 -7.648100 -40.026700
H -40.591900 -6.142800 -39.591600
C -40.334200 -7.034000 -39.344600
C -38.890200 -7.098600 -39.203000
N -37.756500 -7.150900 -39.105800
42
Fragment
H -37.073700 -9.860600 -38.325400
H -37.060100 -12.171700 -38.435900
C -36.321300 -10.335500 -38.051900
C -36.313900 -11.719200 -38.113900
C -35.212100 -9.663600 -37.581600
H -35.209900 -8.734000 -37.554200
C -35.202500 -12.432600 -37.698800
H -35.201000 -13.360700 -37.754500
C -34.102800 -10.372400 -37.148600
C -34.079100 -11.766900 -37.194600
H -33.363900 -9.912200 -36.822200
N -33.005700 -13.857800 -36.740400
C -32.911600 -12.541800 -36.705900
C -31.951000 -14.565100 -36.285500
N -31.865400 -15.878000 -36.219500
C -31.743300 -11.895400 -36.202200
H -31.719200 -10.965700 -36.184500
N -30.766300 -13.974000 -35.814300
C -30.670700 -12.584200 -35.750800
N -30.622500 -16.172700 -35.702900
C -29.968600 -15.056100 -35.467400
H -29.618800 -10.996500 -35.063300
C -29.445300 -11.929300 -35.209800
H -29.202000 -12.344100 -34.379600
H -29.053300 -16.377400 -33.454200
H -28.726200 -12.026200 -35.839200
C -28.590200 -15.095300 -34.944600
C -28.341700 -15.944900 -33.869200
H -27.675700 -13.894800 -36.292700
C -27.523000 -14.449600 -35.562200
C -27.058400 -16.155000 -33.409500
H -26.897500 -16.736100 -32.701400
C -26.237000 -14.629700 -35.094400
C -26.017300 -15.481600 -34.027600
H -25.525800 -14.182600 -35.493800
Br -24.226600 -15.797300 -33.472600
H -40.747800 -7.267900 -38.511900
H -40.617800 -7.648100 -40.026700
H -40.591900 -6.142800 -39.591600
C -40.334200 -7.034000 -39.344600
C -38.890200 -7.098600 -39.203000
N -37.756500 -7.150900 -39.105800
