36
Fragment
H -37.073700 -9.860600 -38.325400
H -37.060100 -12.171700 -38.435900
C -36.321300 -10.335500 -38.051900
C -36.313900 -11.719200 -38.113900
C -35.212100 -9.663600 -37.581600
H -35.209900 -8.734000 -37.554200
C -35.202500 -12.432600 -37.698800
H -35.201000 -13.360700 -37.754500
C -34.102800 -10.372400 -37.148600
C -34.079100 -11.766900 -37.194600
H -33.363900 -9.912200 -36.822200
N -33.005700 -13.857800 -36.740400
C -32.911600 -12.541800 -36.705900
C -31.951000 -14.565100 -36.285500
N -31.865400 -15.878000 -36.219500
C -31.743300 -11.895400 -36.202200
H -31.719200 -10.965700 -36.184500
N -30.766300 -13.974000 -35.814300
C -30.670700 -12.584200 -35.750800
N -30.622500 -16.172700 -35.702900
C -29.968600 -15.056100 -35.467400
H -29.618800 -10.996500 -35.063300
C -29.445300 -11.929300 -35.209800
H -29.202000 -12.344100 -34.379600
H -29.053300 -16.377400 -33.454200
H -28.726200 -12.026200 -35.839200
C -28.590200 -15.095300 -34.944600
C -28.341700 -15.944900 -33.869200
H -27.675700 -13.894800 -36.292700
C -27.523000 -14.449600 -35.562200
C -27.058400 -16.155000 -33.409500
H -26.897500 -16.736100 -32.701400
C -26.237000 -14.629700 -35.094400
C -26.017300 -15.481600 -34.027600
H -25.525800 -14.182600 -35.493800
Br -24.226600 -15.797300 -33.472600
36
Fragment
H -32.452000 -20.125300 -43.974800
H -31.725600 -18.219000 -45.061400
C -31.670700 -19.698900 -43.699000
C -31.248700 -18.548400 -44.333900
H -31.207400 -21.001800 -42.232100
C -30.931500 -20.217600 -42.649000
C -30.120900 -17.885800 -43.889600
H -29.847300 -17.101600 -44.310900
C -29.784500 -19.575800 -42.216000
C -29.387400 -18.386800 -42.812200
H -29.279400 -19.941400 -41.525400
N -28.315000 -16.306600 -42.357800
C -28.230600 -17.621800 -42.294900
C -27.262900 -15.613200 -41.862100
N -27.104400 -14.302600 -41.868100
C -27.083900 -18.302200 -41.772800
H -27.055100 -19.231800 -41.792400
N -26.177900 -16.232000 -41.230900
C -26.042200 -17.614900 -41.253200
N -25.910900 -14.046400 -41.218500
C -25.376900 -15.186900 -40.834500
H -25.200300 -16.122700 -38.396800
H -24.797000 -19.181800 -40.970500
C -24.776100 -18.239800 -40.787300
H -24.677600 -18.100500 -39.842500
C -24.385200 -15.742500 -38.638300
C -24.211100 -15.260000 -39.931600
H -24.033200 -17.840400 -41.246800
H -23.494700 -15.984200 -36.842900
C -23.370300 -15.664800 -37.707300
C -22.981900 -14.725100 -40.292100
H -22.850200 -14.414200 -41.159300
C -22.162200 -15.103800 -38.083900
C -21.946800 -14.650500 -39.372200
H -21.119900 -14.301100 -39.619200
Br -20.792700 -14.937500 -36.782100
72
Fragment
H -37.073700 -9.860600 -38.325400
H -37.060100 -12.171700 -38.435900
C -36.321300 -10.335500 -38.051900
C -36.313900 -11.719200 -38.113900
C -35.212100 -9.663600 -37.581600
H -35.209900 -8.734000 -37.554200
C -35.202500 -12.432600 -37.698800
H -35.201000 -13.360700 -37.754500
C -34.102800 -10.372400 -37.148600
C -34.079100 -11.766900 -37.194600
H -33.363900 -9.912200 -36.822200
N -33.005700 -13.857800 -36.740400
C -32.911600 -12.541800 -36.705900
C -31.951000 -14.565100 -36.285500
N -31.865400 -15.878000 -36.219500
C -31.743300 -11.895400 -36.202200
H -31.719200 -10.965700 -36.184500
N -30.766300 -13.974000 -35.814300
C -30.670700 -12.584200 -35.750800
N -30.622500 -16.172700 -35.702900
C -29.968600 -15.056100 -35.467400
H -29.618800 -10.996500 -35.063300
C -29.445300 -11.929300 -35.209800
H -29.202000 -12.344100 -34.379600
H -29.053300 -16.377400 -33.454200
H -28.726200 -12.026200 -35.839200
C -28.590200 -15.095300 -34.944600
C -28.341700 -15.944900 -33.869200
H -27.675700 -13.894800 -36.292700
C -27.523000 -14.449600 -35.562200
C -27.058400 -16.155000 -33.409500
H -26.897500 -16.736100 -32.701400
C -26.237000 -14.629700 -35.094400
C -26.017300 -15.481600 -34.027600
H -25.525800 -14.182600 -35.493800
Br -24.226600 -15.797300 -33.472600
H -32.452000 -20.125300 -43.974800
H -31.725600 -18.219000 -45.061400
C -31.670700 -19.698900 -43.699000
C -31.248700 -18.548400 -44.333900
H -31.207400 -21.001800 -42.232100
C -30.931500 -20.217600 -42.649000
C -30.120900 -17.885800 -43.889600
H -29.847300 -17.101600 -44.310900
C -29.784500 -19.575800 -42.216000
C -29.387400 -18.386800 -42.812200
H -29.279400 -19.941400 -41.525400
N -28.315000 -16.306600 -42.357800
C -28.230600 -17.621800 -42.294900
C -27.262900 -15.613200 -41.862100
N -27.104400 -14.302600 -41.868100
C -27.083900 -18.302200 -41.772800
H -27.055100 -19.231800 -41.792400
N -26.177900 -16.232000 -41.230900
C -26.042200 -17.614900 -41.253200
N -25.910900 -14.046400 -41.218500
C -25.376900 -15.186900 -40.834500
H -25.200300 -16.122700 -38.396800
H -24.797000 -19.181800 -40.970500
C -24.776100 -18.239800 -40.787300
H -24.677600 -18.100500 -39.842500
C -24.385200 -15.742500 -38.638300
C -24.211100 -15.260000 -39.931600
H -24.033200 -17.840400 -41.246800
H -23.494700 -15.984200 -36.842900
C -23.370300 -15.664800 -37.707300
C -22.981900 -14.725100 -40.292100
H -22.850200 -14.414200 -41.159300
C -22.162200 -15.103800 -38.083900
C -21.946800 -14.650500 -39.372200
H -21.119900 -14.301100 -39.619200
Br -20.792700 -14.937500 -36.782100
