36
Fragment
H -37.073700 -9.860600 -38.325400
H -37.060100 -12.171700 -38.435900
C -36.321300 -10.335500 -38.051900
C -36.313900 -11.719200 -38.113900
C -35.212100 -9.663600 -37.581600
H -35.209900 -8.734000 -37.554200
C -35.202500 -12.432600 -37.698800
H -35.201000 -13.360700 -37.754500
C -34.102800 -10.372400 -37.148600
C -34.079100 -11.766900 -37.194600
H -33.363900 -9.912200 -36.822200
N -33.005700 -13.857800 -36.740400
C -32.911600 -12.541800 -36.705900
C -31.951000 -14.565100 -36.285500
N -31.865400 -15.878000 -36.219500
C -31.743300 -11.895400 -36.202200
H -31.719200 -10.965700 -36.184500
N -30.766300 -13.974000 -35.814300
C -30.670700 -12.584200 -35.750800
N -30.622500 -16.172700 -35.702900
C -29.968600 -15.056100 -35.467400
H -29.618800 -10.996500 -35.063300
C -29.445300 -11.929300 -35.209800
H -29.202000 -12.344100 -34.379600
H -29.053300 -16.377400 -33.454200
H -28.726200 -12.026200 -35.839200
C -28.590200 -15.095300 -34.944600
C -28.341700 -15.944900 -33.869200
H -27.675700 -13.894800 -36.292700
C -27.523000 -14.449600 -35.562200
C -27.058400 -16.155000 -33.409500
H -26.897500 -16.736100 -32.701400
C -26.237000 -14.629700 -35.094400
C -26.017300 -15.481600 -34.027600
H -25.525800 -14.182600 -35.493800
Br -24.226600 -15.797300 -33.472600
36
Fragment
H -51.308800 -16.277400 -43.974800
H -50.582400 -14.371100 -45.061400
C -50.527500 -15.851000 -43.699000
C -50.105500 -14.700500 -44.333900
H -50.064100 -17.153900 -42.232100
C -49.788300 -16.369700 -42.649000
C -48.977700 -14.037900 -43.889600
H -48.704000 -13.253700 -44.310900
C -48.641200 -15.727900 -42.216000
C -48.244100 -14.538900 -42.812200
H -48.136200 -16.093500 -41.525400
N -47.171700 -12.458700 -42.357800
C -47.087300 -13.773900 -42.294900
C -46.119600 -11.765300 -41.862100
N -45.961100 -10.454700 -41.868100
C -45.940700 -14.454300 -41.772800
H -45.911800 -15.383900 -41.792400
N -45.034600 -12.384100 -41.230900
C -44.899000 -13.767000 -41.253200
N -44.767700 -10.198500 -41.218500
C -44.233700 -11.339000 -40.834500
H -44.057000 -12.274800 -38.396800
H -43.653700 -15.333900 -40.970500
C -43.632900 -14.391900 -40.787300
H -43.534400 -14.252600 -39.842500
C -43.241900 -11.894600 -38.638300
C -43.067800 -11.412100 -39.931600
H -42.890000 -13.992500 -41.246800
H -42.351500 -12.136300 -36.842900
C -42.227100 -11.816900 -37.707300
C -41.838600 -10.877200 -40.292100
H -41.707000 -10.566300 -41.159300
C -41.019000 -11.255900 -38.083900
C -40.803500 -10.802600 -39.372200
H -39.976600 -10.453200 -39.619200
Br -39.649400 -11.089600 -36.782100
72
Fragment
H -37.073700 -9.860600 -38.325400
H -37.060100 -12.171700 -38.435900
C -36.321300 -10.335500 -38.051900
C -36.313900 -11.719200 -38.113900
C -35.212100 -9.663600 -37.581600
H -35.209900 -8.734000 -37.554200
C -35.202500 -12.432600 -37.698800
H -35.201000 -13.360700 -37.754500
C -34.102800 -10.372400 -37.148600
C -34.079100 -11.766900 -37.194600
H -33.363900 -9.912200 -36.822200
N -33.005700 -13.857800 -36.740400
C -32.911600 -12.541800 -36.705900
C -31.951000 -14.565100 -36.285500
N -31.865400 -15.878000 -36.219500
C -31.743300 -11.895400 -36.202200
H -31.719200 -10.965700 -36.184500
N -30.766300 -13.974000 -35.814300
C -30.670700 -12.584200 -35.750800
N -30.622500 -16.172700 -35.702900
C -29.968600 -15.056100 -35.467400
H -29.618800 -10.996500 -35.063300
C -29.445300 -11.929300 -35.209800
H -29.202000 -12.344100 -34.379600
H -29.053300 -16.377400 -33.454200
H -28.726200 -12.026200 -35.839200
C -28.590200 -15.095300 -34.944600
C -28.341700 -15.944900 -33.869200
H -27.675700 -13.894800 -36.292700
C -27.523000 -14.449600 -35.562200
C -27.058400 -16.155000 -33.409500
H -26.897500 -16.736100 -32.701400
C -26.237000 -14.629700 -35.094400
C -26.017300 -15.481600 -34.027600
H -25.525800 -14.182600 -35.493800
Br -24.226600 -15.797300 -33.472600
H -51.308800 -16.277400 -43.974800
H -50.582400 -14.371100 -45.061400
C -50.527500 -15.851000 -43.699000
C -50.105500 -14.700500 -44.333900
H -50.064100 -17.153900 -42.232100
C -49.788300 -16.369700 -42.649000
C -48.977700 -14.037900 -43.889600
H -48.704000 -13.253700 -44.310900
C -48.641200 -15.727900 -42.216000
C -48.244100 -14.538900 -42.812200
H -48.136200 -16.093500 -41.525400
N -47.171700 -12.458700 -42.357800
C -47.087300 -13.773900 -42.294900
C -46.119600 -11.765300 -41.862100
N -45.961100 -10.454700 -41.868100
C -45.940700 -14.454300 -41.772800
H -45.911800 -15.383900 -41.792400
N -45.034600 -12.384100 -41.230900
C -44.899000 -13.767000 -41.253200
N -44.767700 -10.198500 -41.218500
C -44.233700 -11.339000 -40.834500
H -44.057000 -12.274800 -38.396800
H -43.653700 -15.333900 -40.970500
C -43.632900 -14.391900 -40.787300
H -43.534400 -14.252600 -39.842500
C -43.241900 -11.894600 -38.638300
C -43.067800 -11.412100 -39.931600
H -42.890000 -13.992500 -41.246800
H -42.351500 -12.136300 -36.842900
C -42.227100 -11.816900 -37.707300
C -41.838600 -10.877200 -40.292100
H -41.707000 -10.566300 -41.159300
C -41.019000 -11.255900 -38.083900
C -40.803500 -10.802600 -39.372200
H -39.976600 -10.453200 -39.619200
Br -39.649400 -11.089600 -36.782100
