36
Fragment
H -37.073700 -9.860600 -38.325400
H -37.060100 -12.171700 -38.435900
C -36.321300 -10.335500 -38.051900
C -36.313900 -11.719200 -38.113900
C -35.212100 -9.663600 -37.581600
H -35.209900 -8.734000 -37.554200
C -35.202500 -12.432600 -37.698800
H -35.201000 -13.360700 -37.754500
C -34.102800 -10.372400 -37.148600
C -34.079100 -11.766900 -37.194600
H -33.363900 -9.912200 -36.822200
N -33.005700 -13.857800 -36.740400
C -32.911600 -12.541800 -36.705900
C -31.951000 -14.565100 -36.285500
N -31.865400 -15.878000 -36.219500
C -31.743300 -11.895400 -36.202200
H -31.719200 -10.965700 -36.184500
N -30.766300 -13.974000 -35.814300
C -30.670700 -12.584200 -35.750800
N -30.622500 -16.172700 -35.702900
C -29.968600 -15.056100 -35.467400
H -29.618800 -10.996500 -35.063300
C -29.445300 -11.929300 -35.209800
H -29.202000 -12.344100 -34.379600
H -29.053300 -16.377400 -33.454200
H -28.726200 -12.026200 -35.839200
C -28.590200 -15.095300 -34.944600
C -28.341700 -15.944900 -33.869200
H -27.675700 -13.894800 -36.292700
C -27.523000 -14.449600 -35.562200
C -27.058400 -16.155000 -33.409500
H -26.897500 -16.736100 -32.701400
C -26.237000 -14.629700 -35.094400
C -26.017300 -15.481600 -34.027600
H -25.525800 -14.182600 -35.493800
Br -24.226600 -15.797300 -33.472600
36
Fragment
Br -40.344900 -7.290100 -35.590500
H -39.045700 -8.904800 -33.569300
C -38.554200 -7.605800 -35.035500
C -38.334500 -8.457700 -33.968700
H -37.674000 -6.351300 -36.361700
C -37.513100 -6.932400 -35.653600
C -37.048500 -8.637800 -33.500900
H -36.895900 -9.192600 -32.770400
C -36.229800 -7.142500 -35.193900
C -35.981300 -7.992100 -34.118600
H -35.845300 -11.061200 -33.224000
H -35.518200 -6.710000 -35.608900
H -35.369500 -10.743300 -34.683500
C -35.126200 -11.158100 -33.853400
H -34.952700 -12.090900 -33.999800
C -34.602900 -8.031300 -33.595800
N -33.949000 -6.914700 -33.360200
C -33.900800 -10.503200 -33.312400
N -33.805200 -9.113400 -33.248800
H -32.852300 -12.121700 -32.878600
C -32.828200 -11.192000 -32.860900
N -32.706100 -7.209400 -32.843700
C -32.620500 -8.522300 -32.777600
C -31.659900 -10.545600 -32.357200
N -31.565800 -9.229600 -32.322700
H -31.207700 -13.175200 -32.241000
C -30.492400 -11.320500 -31.868500
C -30.468700 -12.715000 -31.914500
H -29.370500 -9.726700 -31.308600
C -29.369000 -10.654800 -31.364300
H -29.361600 -14.353400 -31.508900
C -29.359400 -13.423800 -31.481500
C -28.257600 -11.368200 -30.949300
C -28.250200 -12.751900 -31.011200
H -27.511400 -10.915700 -30.627200
H -27.497900 -13.226800 -30.737700
72
Fragment
H -37.073700 -9.860600 -38.325400
H -37.060100 -12.171700 -38.435900
C -36.321300 -10.335500 -38.051900
C -36.313900 -11.719200 -38.113900
C -35.212100 -9.663600 -37.581600
H -35.209900 -8.734000 -37.554200
C -35.202500 -12.432600 -37.698800
H -35.201000 -13.360700 -37.754500
C -34.102800 -10.372400 -37.148600
C -34.079100 -11.766900 -37.194600
H -33.363900 -9.912200 -36.822200
N -33.005700 -13.857800 -36.740400
C -32.911600 -12.541800 -36.705900
C -31.951000 -14.565100 -36.285500
N -31.865400 -15.878000 -36.219500
C -31.743300 -11.895400 -36.202200
H -31.719200 -10.965700 -36.184500
N -30.766300 -13.974000 -35.814300
C -30.670700 -12.584200 -35.750800
N -30.622500 -16.172700 -35.702900
C -29.968600 -15.056100 -35.467400
H -29.618800 -10.996500 -35.063300
C -29.445300 -11.929300 -35.209800
H -29.202000 -12.344100 -34.379600
H -29.053300 -16.377400 -33.454200
H -28.726200 -12.026200 -35.839200
C -28.590200 -15.095300 -34.944600
C -28.341700 -15.944900 -33.869200
H -27.675700 -13.894800 -36.292700
C -27.523000 -14.449600 -35.562200
C -27.058400 -16.155000 -33.409500
H -26.897500 -16.736100 -32.701400
C -26.237000 -14.629700 -35.094400
C -26.017300 -15.481600 -34.027600
H -25.525800 -14.182600 -35.493800
Br -24.226600 -15.797300 -33.472600
Br -40.344900 -7.290100 -35.590500
H -39.045700 -8.904800 -33.569300
C -38.554200 -7.605800 -35.035500
C -38.334500 -8.457700 -33.968700
H -37.674000 -6.351300 -36.361700
C -37.513100 -6.932400 -35.653600
C -37.048500 -8.637800 -33.500900
H -36.895900 -9.192600 -32.770400
C -36.229800 -7.142500 -35.193900
C -35.981300 -7.992100 -34.118600
H -35.845300 -11.061200 -33.224000
H -35.518200 -6.710000 -35.608900
H -35.369500 -10.743300 -34.683500
C -35.126200 -11.158100 -33.853400
H -34.952700 -12.090900 -33.999800
C -34.602900 -8.031300 -33.595800
N -33.949000 -6.914700 -33.360200
C -33.900800 -10.503200 -33.312400
N -33.805200 -9.113400 -33.248800
H -32.852300 -12.121700 -32.878600
C -32.828200 -11.192000 -32.860900
N -32.706100 -7.209400 -32.843700
C -32.620500 -8.522300 -32.777600
C -31.659900 -10.545600 -32.357200
N -31.565800 -9.229600 -32.322700
H -31.207700 -13.175200 -32.241000
C -30.492400 -11.320500 -31.868500
C -30.468700 -12.715000 -31.914500
H -29.370500 -9.726700 -31.308600
C -29.369000 -10.654800 -31.364300
H -29.361600 -14.353400 -31.508900
C -29.359400 -13.423800 -31.481500
C -28.257600 -11.368200 -30.949300
C -28.250200 -12.751900 -31.011200
H -27.511400 -10.915700 -30.627200
H -27.497900 -13.226800 -30.737700
