36
Fragment
H -37.073700 -9.860600 -38.325400
H -37.060100 -12.171700 -38.435900
C -36.321300 -10.335500 -38.051900
C -36.313900 -11.719200 -38.113900
C -35.212100 -9.663600 -37.581600
H -35.209900 -8.734000 -37.554200
C -35.202500 -12.432600 -37.698800
H -35.201000 -13.360700 -37.754500
C -34.102800 -10.372400 -37.148600
C -34.079100 -11.766900 -37.194600
H -33.363900 -9.912200 -36.822200
N -33.005700 -13.857800 -36.740400
C -32.911600 -12.541800 -36.705900
C -31.951000 -14.565100 -36.285500
N -31.865400 -15.878000 -36.219500
C -31.743300 -11.895400 -36.202200
H -31.719200 -10.965700 -36.184500
N -30.766300 -13.974000 -35.814300
C -30.670700 -12.584200 -35.750800
N -30.622500 -16.172700 -35.702900
C -29.968600 -15.056100 -35.467400
H -29.618800 -10.996500 -35.063300
C -29.445300 -11.929300 -35.209800
H -29.202000 -12.344100 -34.379600
H -29.053300 -16.377400 -33.454200
H -28.726200 -12.026200 -35.839200
C -28.590200 -15.095300 -34.944600
C -28.341700 -15.944900 -33.869200
H -27.675700 -13.894800 -36.292700
C -27.523000 -14.449600 -35.562200
C -27.058400 -16.155000 -33.409500
H -26.897500 -16.736100 -32.701400
C -26.237000 -14.629700 -35.094400
C -26.017300 -15.481600 -34.027600
H -25.525800 -14.182600 -35.493800
Br -24.226600 -15.797300 -33.472600
36
Fragment
Br -24.922100 -19.693600 -32.281000
H -24.594900 -20.330000 -29.443900
C -23.768000 -19.980600 -29.690900
C -23.552500 -19.527300 -30.979200
H -22.864500 -20.216900 -27.903800
C -22.732900 -19.906000 -28.771000
C -22.344400 -18.966300 -31.355800
H -22.220000 -18.646900 -32.220200
H -21.681500 -16.790700 -27.816300
C -21.503700 -19.371100 -29.131500
C -21.329600 -18.888600 -30.424800
H -21.037100 -16.530600 -29.220600
C -20.938600 -16.391300 -28.275800
H -20.917800 -15.449300 -28.092600
H -20.514500 -18.508400 -30.666300
C -20.337800 -19.444200 -28.228600
N -19.803800 -20.584700 -27.844600
C -19.672500 -17.016200 -27.809900
N -19.536900 -18.399100 -27.832200
H -18.659700 -15.399300 -27.270700
C -18.630800 -16.328900 -27.290300
N -18.610400 -20.328500 -27.195000
C -18.451900 -19.017900 -27.201000
C -17.484200 -17.009300 -26.768200
N -17.399800 -18.324500 -26.705300
H -16.435300 -14.689700 -27.537800
C -16.327400 -16.244300 -26.250900
C -15.930300 -15.055300 -26.847100
H -15.867500 -17.529500 -24.752200
C -15.593900 -16.745300 -25.173500
C -14.783200 -14.413500 -26.414100
H -14.507400 -13.629300 -26.831000
C -14.466000 -16.082700 -24.729200
C -14.044000 -14.932200 -25.364100
H -13.989200 -16.412100 -24.001700
H -13.262700 -14.505800 -25.088300
72
Fragment
H -37.073700 -9.860600 -38.325400
H -37.060100 -12.171700 -38.435900
C -36.321300 -10.335500 -38.051900
C -36.313900 -11.719200 -38.113900
C -35.212100 -9.663600 -37.581600
H -35.209900 -8.734000 -37.554200
C -35.202500 -12.432600 -37.698800
H -35.201000 -13.360700 -37.754500
C -34.102800 -10.372400 -37.148600
C -34.079100 -11.766900 -37.194600
H -33.363900 -9.912200 -36.822200
N -33.005700 -13.857800 -36.740400
C -32.911600 -12.541800 -36.705900
C -31.951000 -14.565100 -36.285500
N -31.865400 -15.878000 -36.219500
C -31.743300 -11.895400 -36.202200
H -31.719200 -10.965700 -36.184500
N -30.766300 -13.974000 -35.814300
C -30.670700 -12.584200 -35.750800
N -30.622500 -16.172700 -35.702900
C -29.968600 -15.056100 -35.467400
H -29.618800 -10.996500 -35.063300
C -29.445300 -11.929300 -35.209800
H -29.202000 -12.344100 -34.379600
H -29.053300 -16.377400 -33.454200
H -28.726200 -12.026200 -35.839200
C -28.590200 -15.095300 -34.944600
C -28.341700 -15.944900 -33.869200
H -27.675700 -13.894800 -36.292700
C -27.523000 -14.449600 -35.562200
C -27.058400 -16.155000 -33.409500
H -26.897500 -16.736100 -32.701400
C -26.237000 -14.629700 -35.094400
C -26.017300 -15.481600 -34.027600
H -25.525800 -14.182600 -35.493800
Br -24.226600 -15.797300 -33.472600
Br -24.922100 -19.693600 -32.281000
H -24.594900 -20.330000 -29.443900
C -23.768000 -19.980600 -29.690900
C -23.552500 -19.527300 -30.979200
H -22.864500 -20.216900 -27.903800
C -22.732900 -19.906000 -28.771000
C -22.344400 -18.966300 -31.355800
H -22.220000 -18.646900 -32.220200
H -21.681500 -16.790700 -27.816300
C -21.503700 -19.371100 -29.131500
C -21.329600 -18.888600 -30.424800
H -21.037100 -16.530600 -29.220600
C -20.938600 -16.391300 -28.275800
H -20.917800 -15.449300 -28.092600
H -20.514500 -18.508400 -30.666300
C -20.337800 -19.444200 -28.228600
N -19.803800 -20.584700 -27.844600
C -19.672500 -17.016200 -27.809900
N -19.536900 -18.399100 -27.832200
H -18.659700 -15.399300 -27.270700
C -18.630800 -16.328900 -27.290300
N -18.610400 -20.328500 -27.195000
C -18.451900 -19.017900 -27.201000
C -17.484200 -17.009300 -26.768200
N -17.399800 -18.324500 -26.705300
H -16.435300 -14.689700 -27.537800
C -16.327400 -16.244300 -26.250900
C -15.930300 -15.055300 -26.847100
H -15.867500 -17.529500 -24.752200
C -15.593900 -16.745300 -25.173500
C -14.783200 -14.413500 -26.414100
H -14.507400 -13.629300 -26.831000
C -14.466000 -16.082700 -24.729200
C -14.044000 -14.932200 -25.364100
H -13.989200 -16.412100 -24.001700
H -13.262700 -14.505800 -25.088300
