17
Fragment
H -14.643800 -15.902800 -16.410900
H -14.319400 -13.677000 -16.801800
C -14.089200 -15.637000 -17.109700
C -13.899900 -14.310300 -17.339200
O -13.717500 -17.883700 -17.591600
C -13.470500 -16.611100 -17.898900
O -13.396800 -11.683800 -17.900300
H -13.307500 -18.373200 -18.105400
C -13.073000 -13.908000 -18.385600
N -12.883100 -12.491900 -18.658500
C -12.646500 -16.167400 -18.941300
C -12.451100 -14.824200 -19.191200
O -12.223300 -12.179600 -19.628100
O -12.203600 -18.309900 -19.667700
N -11.994300 -17.107900 -19.828000
H -11.907400 -14.546700 -19.893500
O -11.281200 -16.686000 -20.711500
15
Fragment
H -16.223600 -17.058100 -19.903800
N -15.872500 -15.175500 -20.239100
H -15.814600 -12.767100 -20.147300
C -15.745200 -16.473800 -20.447500
O -15.476800 -19.145800 -20.821200
N -15.330800 -13.033700 -20.789700
C -15.189800 -14.336900 -21.047800
H -15.006400 -12.502500 -21.317600
C -14.941100 -17.002000 -21.427600
N -14.855200 -18.425000 -21.587600
C -14.368600 -14.812800 -22.080900
C -14.234600 -16.149700 -22.272300
O -14.161200 -18.875000 -22.477900
H -13.917700 -14.214500 -22.632800
H -13.689200 -16.485900 -22.945500
32
Fragment
H -14.643800 -15.902800 -16.410900
H -14.319400 -13.677000 -16.801800
C -14.089200 -15.637000 -17.109700
C -13.899900 -14.310300 -17.339200
O -13.717500 -17.883700 -17.591600
C -13.470500 -16.611100 -17.898900
O -13.396800 -11.683800 -17.900300
H -13.307500 -18.373200 -18.105400
C -13.073000 -13.908000 -18.385600
N -12.883100 -12.491900 -18.658500
C -12.646500 -16.167400 -18.941300
C -12.451100 -14.824200 -19.191200
O -12.223300 -12.179600 -19.628100
O -12.203600 -18.309900 -19.667700
N -11.994300 -17.107900 -19.828000
H -11.907400 -14.546700 -19.893500
O -11.281200 -16.686000 -20.711500
H -16.223600 -17.058100 -19.903800
N -15.872500 -15.175500 -20.239100
H -15.814600 -12.767100 -20.147300
C -15.745200 -16.473800 -20.447500
O -15.476800 -19.145800 -20.821200
N -15.330800 -13.033700 -20.789700
C -15.189800 -14.336900 -21.047800
H -15.006400 -12.502500 -21.317600
C -14.941100 -17.002000 -21.427600
N -14.855200 -18.425000 -21.587600
C -14.368600 -14.812800 -22.080900
C -14.234600 -16.149700 -22.272300
O -14.161200 -18.875000 -22.477900
H -13.917700 -14.214500 -22.632800
H -13.689200 -16.485900 -22.945500
