17
Fragment
H -14.643800 -15.902800 -16.410900
H -14.319400 -13.677000 -16.801800
C -14.089200 -15.637000 -17.109700
C -13.899900 -14.310300 -17.339200
O -13.717500 -17.883700 -17.591600
C -13.470500 -16.611100 -17.898900
O -13.396800 -11.683800 -17.900300
H -13.307500 -18.373200 -18.105400
C -13.073000 -13.908000 -18.385600
N -12.883100 -12.491900 -18.658500
C -12.646500 -16.167400 -18.941300
C -12.451100 -14.824200 -19.191200
O -12.223300 -12.179600 -19.628100
O -12.203600 -18.309900 -19.667700
N -11.994300 -17.107900 -19.828000
H -11.907400 -14.546700 -19.893500
O -11.281200 -16.686000 -20.711500
17
Fragment
O -17.856700 -21.248900 -11.333600
H -17.230500 -19.109600 -12.151500
N -17.143700 -21.670800 -12.217000
O -16.934400 -22.872900 -12.377300
O -16.914600 -16.742600 -12.416900
C -16.686900 -19.387200 -12.853800
C -16.491400 -20.730300 -13.103700
N -16.254900 -17.054800 -13.386500
C -16.064900 -18.470900 -13.659400
H -15.830400 -22.936100 -13.939600
O -15.741100 -16.246700 -14.144700
C -15.667500 -21.174100 -14.146100
O -15.420400 -22.446600 -14.453500
C -15.238100 -18.873300 -14.705800
C -15.048800 -20.199900 -14.935300
H -14.818500 -18.239900 -15.243200
H -14.494100 -20.465700 -15.634100
34
Fragment
H -14.643800 -15.902800 -16.410900
H -14.319400 -13.677000 -16.801800
C -14.089200 -15.637000 -17.109700
C -13.899900 -14.310300 -17.339200
O -13.717500 -17.883700 -17.591600
C -13.470500 -16.611100 -17.898900
O -13.396800 -11.683800 -17.900300
H -13.307500 -18.373200 -18.105400
C -13.073000 -13.908000 -18.385600
N -12.883100 -12.491900 -18.658500
C -12.646500 -16.167400 -18.941300
C -12.451100 -14.824200 -19.191200
O -12.223300 -12.179600 -19.628100
O -12.203600 -18.309900 -19.667700
N -11.994300 -17.107900 -19.828000
H -11.907400 -14.546700 -19.893500
O -11.281200 -16.686000 -20.711500
O -17.856700 -21.248900 -11.333600
H -17.230500 -19.109600 -12.151500
N -17.143700 -21.670800 -12.217000
O -16.934400 -22.872900 -12.377300
O -16.914600 -16.742600 -12.416900
C -16.686900 -19.387200 -12.853800
C -16.491400 -20.730300 -13.103700
N -16.254900 -17.054800 -13.386500
C -16.064900 -18.470900 -13.659400
H -15.830400 -22.936100 -13.939600
O -15.741100 -16.246700 -14.144700
C -15.667500 -21.174100 -14.146100
O -15.420400 -22.446600 -14.453500
C -15.238100 -18.873300 -14.705800
C -15.048800 -20.199900 -14.935300
H -14.818500 -18.239900 -15.243200
H -14.494100 -20.465700 -15.634100
