26
Fragment
H -10.529400 -14.886200 -20.756900
H -9.802500 -19.345100 -20.177600
N -9.785000 -14.742700 -20.332900
N -9.512400 -16.990800 -19.988400
H -9.478300 -13.908800 -20.219000
N -9.094300 -19.205400 -19.700300
C -9.059300 -15.748000 -19.837000
C -8.697500 -17.947500 -19.522400
H -8.589400 -19.879600 -19.452100
N -7.897700 -15.406900 -19.234000
N -7.522400 -17.727700 -18.890500
C -7.204700 -16.439100 -18.780000
H -6.174200 -11.592700 -18.801000
N -6.006200 -16.218000 -18.117400
N -5.792700 -13.891800 -18.302200
H -5.608500 -16.882600 -17.861600
N -5.394100 -11.646200 -18.462800
C -5.342300 -15.043900 -17.825900
C -5.008200 -12.828700 -18.004000
H -4.977600 -10.909300 -18.147200
N -4.251500 -15.223500 -17.075100
N -3.857100 -12.876200 -17.318400
C -3.539000 -14.100800 -16.852700
N -2.417700 -14.182500 -16.147100
H -2.127900 -14.917900 -15.849100
H -2.019200 -13.482900 -15.989800
26
Fragment
H -4.776000 -15.620800 -13.860000
H -4.049100 -11.161900 -13.280700
N -4.031600 -15.764300 -13.436000
N -3.759000 -13.516200 -13.091400
H -3.724900 -16.598200 -13.322100
N -3.341000 -11.301600 -12.803400
C -3.305900 -14.759000 -12.940100
C -2.944100 -12.559500 -12.625500
H -2.836000 -10.627400 -12.555100
N -2.144300 -15.100100 -12.337100
N -1.769000 -12.779300 -11.993600
C -1.451300 -14.067900 -11.883100
H -0.420800 -18.914300 -11.904100
N -0.252800 -14.289000 -11.220400
N -0.039300 -16.615200 -11.405300
H 0.144900 -13.624400 -10.964700
N 0.359300 -18.860800 -11.565800
C 0.411100 -15.463100 -10.929000
C 0.745200 -17.678300 -11.107100
H 0.775800 -19.597700 -11.250200
N 1.501900 -15.283500 -10.178200
N 1.896300 -17.630800 -10.421500
C 2.214400 -16.406200 -9.955800
N 3.335700 -16.324500 -9.250100
H 3.625500 -15.589100 -8.952200
H 3.734200 -17.024100 -9.092900
52
Fragment
H -10.529400 -14.886200 -20.756900
H -9.802500 -19.345100 -20.177600
N -9.785000 -14.742700 -20.332900
N -9.512400 -16.990800 -19.988400
H -9.478300 -13.908800 -20.219000
N -9.094300 -19.205400 -19.700300
C -9.059300 -15.748000 -19.837000
C -8.697500 -17.947500 -19.522400
H -8.589400 -19.879600 -19.452100
N -7.897700 -15.406900 -19.234000
N -7.522400 -17.727700 -18.890500
C -7.204700 -16.439100 -18.780000
H -6.174200 -11.592700 -18.801000
N -6.006200 -16.218000 -18.117400
N -5.792700 -13.891800 -18.302200
H -5.608500 -16.882600 -17.861600
N -5.394100 -11.646200 -18.462800
C -5.342300 -15.043900 -17.825900
C -5.008200 -12.828700 -18.004000
H -4.977600 -10.909300 -18.147200
N -4.251500 -15.223500 -17.075100
N -3.857100 -12.876200 -17.318400
C -3.539000 -14.100800 -16.852700
N -2.417700 -14.182500 -16.147100
H -2.127900 -14.917900 -15.849100
H -2.019200 -13.482900 -15.989800
H -4.776000 -15.620800 -13.860000
H -4.049100 -11.161900 -13.280700
N -4.031600 -15.764300 -13.436000
N -3.759000 -13.516200 -13.091400
H -3.724900 -16.598200 -13.322100
N -3.341000 -11.301600 -12.803400
C -3.305900 -14.759000 -12.940100
C -2.944100 -12.559500 -12.625500
H -2.836000 -10.627400 -12.555100
N -2.144300 -15.100100 -12.337100
N -1.769000 -12.779300 -11.993600
C -1.451300 -14.067900 -11.883100
H -0.420800 -18.914300 -11.904100
N -0.252800 -14.289000 -11.220400
N -0.039300 -16.615200 -11.405300
H 0.144900 -13.624400 -10.964700
N 0.359300 -18.860800 -11.565800
C 0.411100 -15.463100 -10.929000
C 0.745200 -17.678300 -11.107100
H 0.775800 -19.597700 -11.250200
N 1.501900 -15.283500 -10.178200
N 1.896300 -17.630800 -10.421500
C 2.214400 -16.406200 -9.955800
N 3.335700 -16.324500 -9.250100
H 3.625500 -15.589100 -8.952200
H 3.734200 -17.024100 -9.092900
