26
Fragment
H -10.529400 -14.886200 -20.756900
H -9.802500 -19.345100 -20.177600
N -9.785000 -14.742700 -20.332900
N -9.512400 -16.990800 -19.988400
H -9.478300 -13.908800 -20.219000
N -9.094300 -19.205400 -19.700300
C -9.059300 -15.748000 -19.837000
C -8.697500 -17.947500 -19.522400
H -8.589400 -19.879600 -19.452100
N -7.897700 -15.406900 -19.234000
N -7.522400 -17.727700 -18.890500
C -7.204700 -16.439100 -18.780000
H -6.174200 -11.592700 -18.801000
N -6.006200 -16.218000 -18.117400
N -5.792700 -13.891800 -18.302200
H -5.608500 -16.882600 -17.861600
N -5.394100 -11.646200 -18.462800
C -5.342300 -15.043900 -17.825900
C -5.008200 -12.828700 -18.004000
H -4.977600 -10.909300 -18.147200
N -4.251500 -15.223500 -17.075100
N -3.857100 -12.876200 -17.318400
C -3.539000 -14.100800 -16.852700
N -2.417700 -14.182500 -16.147100
H -2.127900 -14.917900 -15.849100
H -2.019200 -13.482900 -15.989800
26
Fragment
H -13.211000 -19.584300 -18.494800
H -13.102300 -21.019300 -18.635500
N -12.812500 -20.283900 -18.337500
C -11.691200 -20.202200 -17.631800
N -11.373100 -18.977600 -17.166100
N -10.978700 -21.324900 -17.409500
H -10.252600 -17.010700 -16.337400
C -10.222000 -18.930100 -16.480600
C -9.887900 -21.145300 -16.658700
N -9.836100 -17.747600 -16.021800
H -9.621700 -22.984000 -16.622900
N -9.437500 -19.993200 -16.182400
N -9.224000 -22.319400 -16.367200
H -9.056000 -17.694100 -15.683600
C -8.025500 -22.540500 -15.704500
N -7.707800 -23.829100 -15.594100
N -7.332500 -21.508300 -15.250600
H -6.640800 -25.981000 -15.032500
C -6.532700 -24.048900 -14.962200
C -6.170800 -21.849400 -14.647500
N -6.135800 -25.306800 -14.784200
H -5.751900 -20.010200 -14.265600
N -5.717800 -23.092200 -14.496200
N -5.445100 -20.844100 -14.151600
H -5.427700 -25.446500 -14.307000
H -4.700800 -20.987600 -13.727600
52
Fragment
H -10.529400 -14.886200 -20.756900
H -9.802500 -19.345100 -20.177600
N -9.785000 -14.742700 -20.332900
N -9.512400 -16.990800 -19.988400
H -9.478300 -13.908800 -20.219000
N -9.094300 -19.205400 -19.700300
C -9.059300 -15.748000 -19.837000
C -8.697500 -17.947500 -19.522400
H -8.589400 -19.879600 -19.452100
N -7.897700 -15.406900 -19.234000
N -7.522400 -17.727700 -18.890500
C -7.204700 -16.439100 -18.780000
H -6.174200 -11.592700 -18.801000
N -6.006200 -16.218000 -18.117400
N -5.792700 -13.891800 -18.302200
H -5.608500 -16.882600 -17.861600
N -5.394100 -11.646200 -18.462800
C -5.342300 -15.043900 -17.825900
C -5.008200 -12.828700 -18.004000
H -4.977600 -10.909300 -18.147200
N -4.251500 -15.223500 -17.075100
N -3.857100 -12.876200 -17.318400
C -3.539000 -14.100800 -16.852700
N -2.417700 -14.182500 -16.147100
H -2.127900 -14.917900 -15.849100
H -2.019200 -13.482900 -15.989800
H -13.211000 -19.584300 -18.494800
H -13.102300 -21.019300 -18.635500
N -12.812500 -20.283900 -18.337500
C -11.691200 -20.202200 -17.631800
N -11.373100 -18.977600 -17.166100
N -10.978700 -21.324900 -17.409500
H -10.252600 -17.010700 -16.337400
C -10.222000 -18.930100 -16.480600
C -9.887900 -21.145300 -16.658700
N -9.836100 -17.747600 -16.021800
H -9.621700 -22.984000 -16.622900
N -9.437500 -19.993200 -16.182400
N -9.224000 -22.319400 -16.367200
H -9.056000 -17.694100 -15.683600
C -8.025500 -22.540500 -15.704500
N -7.707800 -23.829100 -15.594100
N -7.332500 -21.508300 -15.250600
H -6.640800 -25.981000 -15.032500
C -6.532700 -24.048900 -14.962200
C -6.170800 -21.849400 -14.647500
N -6.135800 -25.306800 -14.784200
H -5.751900 -20.010200 -14.265600
N -5.717800 -23.092200 -14.496200
N -5.445100 -20.844100 -14.151600
H -5.427700 -25.446500 -14.307000
H -4.700800 -20.987600 -13.727600
