26
Fragment
H -10.529400 -14.886200 -20.756900
H -9.802500 -19.345100 -20.177600
N -9.785000 -14.742700 -20.332900
N -9.512400 -16.990800 -19.988400
H -9.478300 -13.908800 -20.219000
N -9.094300 -19.205400 -19.700300
C -9.059300 -15.748000 -19.837000
C -8.697500 -17.947500 -19.522400
H -8.589400 -19.879600 -19.452100
N -7.897700 -15.406900 -19.234000
N -7.522400 -17.727700 -18.890500
C -7.204700 -16.439100 -18.780000
H -6.174200 -11.592700 -18.801000
N -6.006200 -16.218000 -18.117400
N -5.792700 -13.891800 -18.302200
H -5.608500 -16.882600 -17.861600
N -5.394100 -11.646200 -18.462800
C -5.342300 -15.043900 -17.825900
C -5.008200 -12.828700 -18.004000
H -4.977600 -10.909300 -18.147200
N -4.251500 -15.223500 -17.075100
N -3.857100 -12.876200 -17.318400
C -3.539000 -14.100800 -16.852700
N -2.417700 -14.182500 -16.147100
H -2.127900 -14.917900 -15.849100
H -2.019200 -13.482900 -15.989800
3
Fragment
H -8.159100 -22.904700 -19.708600
O -8.084900 -22.046600 -19.904500
H -7.815600 -22.111500 -20.663100
29
Fragment
H -10.529400 -14.886200 -20.756900
H -9.802500 -19.345100 -20.177600
N -9.785000 -14.742700 -20.332900
N -9.512400 -16.990800 -19.988400
H -9.478300 -13.908800 -20.219000
N -9.094300 -19.205400 -19.700300
C -9.059300 -15.748000 -19.837000
C -8.697500 -17.947500 -19.522400
H -8.589400 -19.879600 -19.452100
N -7.897700 -15.406900 -19.234000
N -7.522400 -17.727700 -18.890500
C -7.204700 -16.439100 -18.780000
H -6.174200 -11.592700 -18.801000
N -6.006200 -16.218000 -18.117400
N -5.792700 -13.891800 -18.302200
H -5.608500 -16.882600 -17.861600
N -5.394100 -11.646200 -18.462800
C -5.342300 -15.043900 -17.825900
C -5.008200 -12.828700 -18.004000
H -4.977600 -10.909300 -18.147200
N -4.251500 -15.223500 -17.075100
N -3.857100 -12.876200 -17.318400
C -3.539000 -14.100800 -16.852700
N -2.417700 -14.182500 -16.147100
H -2.127900 -14.917900 -15.849100
H -2.019200 -13.482900 -15.989800
H -8.159100 -22.904700 -19.708600
O -8.084900 -22.046600 -19.904500
H -7.815600 -22.111500 -20.663100
