14
Fragment
O -17.409300 -12.340700 -31.104500
H -17.395400 -13.062300 -28.946500
O -16.837500 -12.434900 -28.960400
C -16.744600 -11.941800 -30.174200
H -16.569400 -9.838800 -31.838300
H -15.925900 -10.170400 -29.617400
C -15.729600 -10.848700 -30.282400
C -15.692800 -10.202500 -31.639700
H -15.496500 -10.880800 -32.304800
H -14.853000 -11.212400 -30.083800
C -14.677900 -9.109400 -31.747900
O -14.584900 -8.616300 -32.961800
H -14.027100 -7.988900 -32.975600
O -14.013200 -8.710500 -30.817600
17
Fragment
H -20.262400 -16.204200 -29.660700
H -20.160400 -16.888300 -28.304600
N -19.989400 -16.248400 -28.852600
O -19.185000 -14.322700 -30.369100
N -19.121700 -16.601000 -26.372200
H -19.108600 -17.528300 -24.649100
C -19.084800 -15.371100 -28.400200
H -18.778400 -13.667500 -30.674200
C -18.747500 -16.801500 -25.102600
N -18.624700 -14.370100 -29.068100
C -18.605100 -15.553700 -27.001300
C -17.863600 -15.997300 -24.433200
C -17.700100 -14.707900 -26.402600
H -17.638000 -16.167300 -23.546900
H -17.347500 -13.987500 -26.874200
C -17.322700 -14.937400 -25.105700
H -16.707400 -14.379000 -24.688400
31
Fragment
O -17.409300 -12.340700 -31.104500
H -17.395400 -13.062300 -28.946500
O -16.837500 -12.434900 -28.960400
C -16.744600 -11.941800 -30.174200
H -16.569400 -9.838800 -31.838300
H -15.925900 -10.170400 -29.617400
C -15.729600 -10.848700 -30.282400
C -15.692800 -10.202500 -31.639700
H -15.496500 -10.880800 -32.304800
H -14.853000 -11.212400 -30.083800
C -14.677900 -9.109400 -31.747900
O -14.584900 -8.616300 -32.961800
H -14.027100 -7.988900 -32.975600
O -14.013200 -8.710500 -30.817600
H -20.262400 -16.204200 -29.660700
H -20.160400 -16.888300 -28.304600
N -19.989400 -16.248400 -28.852600
O -19.185000 -14.322700 -30.369100
N -19.121700 -16.601000 -26.372200
H -19.108600 -17.528300 -24.649100
C -19.084800 -15.371100 -28.400200
H -18.778400 -13.667500 -30.674200
C -18.747500 -16.801500 -25.102600
N -18.624700 -14.370100 -29.068100
C -18.605100 -15.553700 -27.001300
C -17.863600 -15.997300 -24.433200
C -17.700100 -14.707900 -26.402600
H -17.638000 -16.167300 -23.546900
H -17.347500 -13.987500 -26.874200
C -17.322700 -14.937400 -25.105700
H -16.707400 -14.379000 -24.688400
