14
Fragment
O -17.409300 -12.340700 -31.104500
H -17.395400 -13.062300 -28.946500
O -16.837500 -12.434900 -28.960400
C -16.744600 -11.941800 -30.174200
H -16.569400 -9.838800 -31.838300
H -15.925900 -10.170400 -29.617400
C -15.729600 -10.848700 -30.282400
C -15.692800 -10.202500 -31.639700
H -15.496500 -10.880800 -32.304800
H -14.853000 -11.212400 -30.083800
C -14.677900 -9.109400 -31.747900
O -14.584900 -8.616300 -32.961800
H -14.027100 -7.988900 -32.975600
O -14.013200 -8.710500 -30.817600
17
Fragment
H -11.591700 -10.941400 -29.660700
H -11.489700 -11.625500 -28.304600
N -11.318700 -10.985600 -28.852600
O -10.514300 -9.059900 -30.369100
N -10.451000 -11.338200 -26.372200
H -10.437900 -12.265500 -24.649100
C -10.414100 -10.108300 -28.400200
H -10.107700 -8.404700 -30.674200
C -10.076800 -11.538700 -25.102600
N -9.954000 -9.107300 -29.068100
C -9.934400 -10.290900 -27.001300
C -9.192900 -10.734500 -24.433200
C -9.029400 -9.445100 -26.402600
H -8.967300 -10.904500 -23.546900
H -8.676800 -8.724700 -26.874200
C -8.652000 -9.674600 -25.105700
H -8.036700 -9.116200 -24.688400
31
Fragment
O -17.409300 -12.340700 -31.104500
H -17.395400 -13.062300 -28.946500
O -16.837500 -12.434900 -28.960400
C -16.744600 -11.941800 -30.174200
H -16.569400 -9.838800 -31.838300
H -15.925900 -10.170400 -29.617400
C -15.729600 -10.848700 -30.282400
C -15.692800 -10.202500 -31.639700
H -15.496500 -10.880800 -32.304800
H -14.853000 -11.212400 -30.083800
C -14.677900 -9.109400 -31.747900
O -14.584900 -8.616300 -32.961800
H -14.027100 -7.988900 -32.975600
O -14.013200 -8.710500 -30.817600
H -11.591700 -10.941400 -29.660700
H -11.489700 -11.625500 -28.304600
N -11.318700 -10.985600 -28.852600
O -10.514300 -9.059900 -30.369100
N -10.451000 -11.338200 -26.372200
H -10.437900 -12.265500 -24.649100
C -10.414100 -10.108300 -28.400200
H -10.107700 -8.404700 -30.674200
C -10.076800 -11.538700 -25.102600
N -9.954000 -9.107300 -29.068100
C -9.934400 -10.290900 -27.001300
C -9.192900 -10.734500 -24.433200
C -9.029400 -9.445100 -26.402600
H -8.967300 -10.904500 -23.546900
H -8.676800 -8.724700 -26.874200
C -8.652000 -9.674600 -25.105700
H -8.036700 -9.116200 -24.688400
