14
Fragment
O -17.409300 -12.340700 -31.104500
H -17.395400 -13.062300 -28.946500
O -16.837500 -12.434900 -28.960400
C -16.744600 -11.941800 -30.174200
H -16.569400 -9.838800 -31.838300
H -15.925900 -10.170400 -29.617400
C -15.729600 -10.848700 -30.282400
C -15.692800 -10.202500 -31.639700
H -15.496500 -10.880800 -32.304800
H -14.853000 -11.212400 -30.083800
C -14.677900 -9.109400 -31.747900
O -14.584900 -8.616300 -32.961800
H -14.027100 -7.988900 -32.975600
O -14.013200 -8.710500 -30.817600
17
Fragment
H -15.258400 -11.747600 -26.913400
C -14.643100 -12.306000 -26.496100
H -14.618300 -11.356100 -24.727600
H -14.327800 -13.535900 -28.054900
C -14.265700 -12.076500 -25.199200
C -14.102200 -13.365900 -27.168500
C -13.360700 -12.922300 -24.600400
N -13.341100 -11.738700 -22.533700
C -13.218300 -14.170100 -26.499200
H -13.187400 -11.036100 -20.927600
C -12.881000 -12.739700 -23.201600
H -12.857200 -14.896900 -26.952600
N -12.844100 -13.969600 -25.229600
O -12.780800 -11.691300 -21.232700
N -11.976500 -13.617000 -22.749200
H -11.805400 -14.256900 -23.297200
H -11.703400 -13.572800 -21.941100
31
Fragment
O -17.409300 -12.340700 -31.104500
H -17.395400 -13.062300 -28.946500
O -16.837500 -12.434900 -28.960400
C -16.744600 -11.941800 -30.174200
H -16.569400 -9.838800 -31.838300
H -15.925900 -10.170400 -29.617400
C -15.729600 -10.848700 -30.282400
C -15.692800 -10.202500 -31.639700
H -15.496500 -10.880800 -32.304800
H -14.853000 -11.212400 -30.083800
C -14.677900 -9.109400 -31.747900
O -14.584900 -8.616300 -32.961800
H -14.027100 -7.988900 -32.975600
O -14.013200 -8.710500 -30.817600
H -15.258400 -11.747600 -26.913400
C -14.643100 -12.306000 -26.496100
H -14.618300 -11.356100 -24.727600
H -14.327800 -13.535900 -28.054900
C -14.265700 -12.076500 -25.199200
C -14.102200 -13.365900 -27.168500
C -13.360700 -12.922300 -24.600400
N -13.341100 -11.738700 -22.533700
C -13.218300 -14.170100 -26.499200
H -13.187400 -11.036100 -20.927600
C -12.881000 -12.739700 -23.201600
H -12.857200 -14.896900 -26.952600
N -12.844100 -13.969600 -25.229600
O -12.780800 -11.691300 -21.232700
N -11.976500 -13.617000 -22.749200
H -11.805400 -14.256900 -23.297200
H -11.703400 -13.572800 -21.941100
