25
Fragment
H -31.566900 -13.294500 -12.107500
N -30.805300 -12.968600 -11.872800
N -30.526500 -11.652700 -11.754000
C -29.739900 -13.677300 -11.577300
H -29.706800 -14.606600 -11.592500
C -29.272400 -11.654200 -11.379200
O -29.047900 -9.303700 -11.407500
N -28.721600 -12.895400 -11.252800
C -28.553300 -10.388200 -11.109900
N -27.371900 -10.562800 -10.530000
H -27.083000 -11.359600 -10.382300
N -26.600800 -9.477600 -10.161400
H -25.856000 -7.205100 -9.076800
C -25.468700 -9.767600 -9.640800
H -25.230000 -10.662600 -9.560800
C -24.972200 -7.445200 -8.915300
C -24.549100 -8.757200 -9.172800
H -24.371400 -5.644300 -8.248400
C -24.090400 -6.513600 -8.424400
C -23.247800 -9.085500 -8.882800
H -22.959100 -9.960200 -9.012600
C -22.804200 -6.876100 -8.199400
C -22.356700 -8.146800 -8.403000
F -21.931700 -5.959300 -7.716800
H -21.472000 -8.376000 -8.222900
25
Fragment
H -41.147500 -4.478000 -15.939700
F -40.687800 -2.061300 -16.445700
C -40.262700 -4.248800 -15.759500
C -39.815300 -2.978100 -15.963100
H -39.660300 -6.062200 -15.149900
C -39.371700 -5.187500 -15.279700
C -38.529100 -2.615600 -15.738100
H -38.248100 -1.746300 -15.914100
C -38.070400 -4.859200 -14.989700
C -37.647300 -3.547200 -15.247200
H -37.389500 -6.764600 -14.601800
C -37.150800 -5.869600 -14.521700
H -36.763500 -3.307100 -15.085700
N -36.018700 -5.579600 -14.001200
H -35.536400 -7.461600 -13.780200
N -35.247500 -6.664800 -13.632500
C -34.066200 -6.490200 -13.052600
N -33.897900 -8.997400 -12.909700
O -33.571600 -5.405700 -12.755100
C -33.347000 -7.756200 -12.783400
H -32.912600 -10.708600 -12.570000
C -32.879600 -9.779300 -12.585200
N -32.093000 -7.754700 -12.408500
N -31.814200 -9.070600 -12.289800
H -31.052600 -9.396500 -12.055000
50
Fragment
H -31.566900 -13.294500 -12.107500
N -30.805300 -12.968600 -11.872800
N -30.526500 -11.652700 -11.754000
C -29.739900 -13.677300 -11.577300
H -29.706800 -14.606600 -11.592500
C -29.272400 -11.654200 -11.379200
O -29.047900 -9.303700 -11.407500
N -28.721600 -12.895400 -11.252800
C -28.553300 -10.388200 -11.109900
N -27.371900 -10.562800 -10.530000
H -27.083000 -11.359600 -10.382300
N -26.600800 -9.477600 -10.161400
H -25.856000 -7.205100 -9.076800
C -25.468700 -9.767600 -9.640800
H -25.230000 -10.662600 -9.560800
C -24.972200 -7.445200 -8.915300
C -24.549100 -8.757200 -9.172800
H -24.371400 -5.644300 -8.248400
C -24.090400 -6.513600 -8.424400
C -23.247800 -9.085500 -8.882800
H -22.959100 -9.960200 -9.012600
C -22.804200 -6.876100 -8.199400
C -22.356700 -8.146800 -8.403000
F -21.931700 -5.959300 -7.716800
H -21.472000 -8.376000 -8.222900
H -41.147500 -4.478000 -15.939700
F -40.687800 -2.061300 -16.445700
C -40.262700 -4.248800 -15.759500
C -39.815300 -2.978100 -15.963100
H -39.660300 -6.062200 -15.149900
C -39.371700 -5.187500 -15.279700
C -38.529100 -2.615600 -15.738100
H -38.248100 -1.746300 -15.914100
C -38.070400 -4.859200 -14.989700
C -37.647300 -3.547200 -15.247200
H -37.389500 -6.764600 -14.601800
C -37.150800 -5.869600 -14.521700
H -36.763500 -3.307100 -15.085700
N -36.018700 -5.579600 -14.001200
H -35.536400 -7.461600 -13.780200
N -35.247500 -6.664800 -13.632500
C -34.066200 -6.490200 -13.052600
N -33.897900 -8.997400 -12.909700
O -33.571600 -5.405700 -12.755100
C -33.347000 -7.756200 -12.783400
H -32.912600 -10.708600 -12.570000
C -32.879600 -9.779300 -12.585200
N -32.093000 -7.754700 -12.408500
N -31.814200 -9.070600 -12.289800
H -31.052600 -9.396500 -12.055000
