14
Fragment
O -17.409300 -12.340700 -31.104500
H -17.395400 -13.062300 -28.946500
O -16.837500 -12.434900 -28.960400
C -16.744600 -11.941800 -30.174200
H -16.569400 -9.838800 -31.838300
H -15.925900 -10.170400 -29.617400
C -15.729600 -10.848700 -30.282400
C -15.692800 -10.202500 -31.639700
H -15.496500 -10.880800 -32.304800
H -14.853000 -11.212400 -30.083800
C -14.677900 -9.109400 -31.747900
O -14.584900 -8.616300 -32.961800
H -14.027100 -7.988900 -32.975600
O -14.013200 -8.710500 -30.817600
17
Fragment
H -19.719000 -7.478400 -39.981100
H -19.617000 -6.794300 -38.625000
N -19.446000 -7.434200 -39.173000
O -18.641600 -9.359900 -40.689400
N -18.578300 -7.081600 -36.692600
H -18.565300 -6.154300 -34.969500
C -18.541400 -8.311500 -38.720500
H -18.235000 -10.015100 -40.994500
C -18.204100 -6.881100 -35.423000
N -18.081300 -9.312500 -39.388500
C -18.061700 -8.128900 -37.321700
C -17.320200 -7.685300 -34.753600
C -17.156700 -8.974700 -36.722900
H -17.094600 -7.515300 -33.867300
H -16.804100 -9.695100 -37.194600
C -16.779300 -8.745200 -35.426100
H -16.164000 -9.303600 -35.008700
31
Fragment
O -17.409300 -12.340700 -31.104500
H -17.395400 -13.062300 -28.946500
O -16.837500 -12.434900 -28.960400
C -16.744600 -11.941800 -30.174200
H -16.569400 -9.838800 -31.838300
H -15.925900 -10.170400 -29.617400
C -15.729600 -10.848700 -30.282400
C -15.692800 -10.202500 -31.639700
H -15.496500 -10.880800 -32.304800
H -14.853000 -11.212400 -30.083800
C -14.677900 -9.109400 -31.747900
O -14.584900 -8.616300 -32.961800
H -14.027100 -7.988900 -32.975600
O -14.013200 -8.710500 -30.817600
H -19.719000 -7.478400 -39.981100
H -19.617000 -6.794300 -38.625000
N -19.446000 -7.434200 -39.173000
O -18.641600 -9.359900 -40.689400
N -18.578300 -7.081600 -36.692600
H -18.565300 -6.154300 -34.969500
C -18.541400 -8.311500 -38.720500
H -18.235000 -10.015100 -40.994500
C -18.204100 -6.881100 -35.423000
N -18.081300 -9.312500 -39.388500
C -18.061700 -8.128900 -37.321700
C -17.320200 -7.685300 -34.753600
C -17.156700 -8.974700 -36.722900
H -17.094600 -7.515300 -33.867300
H -16.804100 -9.695100 -37.194600
C -16.779300 -8.745200 -35.426100
H -16.164000 -9.303600 -35.008700
