14
Fragment
O -17.409300 -12.340700 -31.104500
H -17.395400 -13.062300 -28.946500
O -16.837500 -12.434900 -28.960400
C -16.744600 -11.941800 -30.174200
H -16.569400 -9.838800 -31.838300
H -15.925900 -10.170400 -29.617400
C -15.729600 -10.848700 -30.282400
C -15.692800 -10.202500 -31.639700
H -15.496500 -10.880800 -32.304800
H -14.853000 -11.212400 -30.083800
C -14.677900 -9.109400 -31.747900
O -14.584900 -8.616300 -32.961800
H -14.027100 -7.988900 -32.975600
O -14.013200 -8.710500 -30.817600
17
Fragment
H -14.715000 -6.672200 -37.233800
C -14.099700 -6.113800 -36.816400
H -14.074900 -7.063700 -35.047900
H -13.784400 -4.883900 -38.375200
C -13.722300 -6.343300 -35.519600
C -13.558800 -5.053900 -37.488900
C -12.817300 -5.497500 -34.920800
N -12.797700 -6.681100 -32.854000
C -12.674900 -4.249700 -36.819500
H -12.644000 -7.383700 -31.248000
C -12.337600 -5.680100 -33.522000
H -12.313800 -3.522900 -37.273000
N -12.300700 -4.450200 -35.549900
O -12.237400 -6.728500 -31.553000
N -11.433100 -4.802800 -33.069500
H -11.262000 -4.162900 -33.617500
H -11.160000 -4.847000 -32.261400
31
Fragment
O -17.409300 -12.340700 -31.104500
H -17.395400 -13.062300 -28.946500
O -16.837500 -12.434900 -28.960400
C -16.744600 -11.941800 -30.174200
H -16.569400 -9.838800 -31.838300
H -15.925900 -10.170400 -29.617400
C -15.729600 -10.848700 -30.282400
C -15.692800 -10.202500 -31.639700
H -15.496500 -10.880800 -32.304800
H -14.853000 -11.212400 -30.083800
C -14.677900 -9.109400 -31.747900
O -14.584900 -8.616300 -32.961800
H -14.027100 -7.988900 -32.975600
O -14.013200 -8.710500 -30.817600
H -14.715000 -6.672200 -37.233800
C -14.099700 -6.113800 -36.816400
H -14.074900 -7.063700 -35.047900
H -13.784400 -4.883900 -38.375200
C -13.722300 -6.343300 -35.519600
C -13.558800 -5.053900 -37.488900
C -12.817300 -5.497500 -34.920800
N -12.797700 -6.681100 -32.854000
C -12.674900 -4.249700 -36.819500
H -12.644000 -7.383700 -31.248000
C -12.337600 -5.680100 -33.522000
H -12.313800 -3.522900 -37.273000
N -12.300700 -4.450200 -35.549900
O -12.237400 -6.728500 -31.553000
N -11.433100 -4.802800 -33.069500
H -11.262000 -4.162900 -33.617500
H -11.160000 -4.847000 -32.261400
