25
Fragment
H -31.566900 -13.294500 -12.107500
N -30.805300 -12.968600 -11.872800
N -30.526500 -11.652700 -11.754000
C -29.739900 -13.677300 -11.577300
H -29.706800 -14.606600 -11.592500
C -29.272400 -11.654200 -11.379200
O -29.047900 -9.303700 -11.407500
N -28.721600 -12.895400 -11.252800
C -28.553300 -10.388200 -11.109900
N -27.371900 -10.562800 -10.530000
H -27.083000 -11.359600 -10.382300
N -26.600800 -9.477600 -10.161400
H -25.856000 -7.205100 -9.076800
C -25.468700 -9.767600 -9.640800
H -25.230000 -10.662600 -9.560800
C -24.972200 -7.445200 -8.915300
C -24.549100 -8.757200 -9.172800
H -24.371400 -5.644300 -8.248400
C -24.090400 -6.513600 -8.424400
C -23.247800 -9.085500 -8.882800
H -22.959100 -9.960200 -9.012600
C -22.804200 -6.876100 -8.199400
C -22.356700 -8.146800 -8.403000
F -21.931700 -5.959300 -7.716800
H -21.472000 -8.376000 -8.222900
25
Fragment
H -31.566900 -5.498500 -12.107500
N -30.805300 -5.172600 -11.872800
N -30.526500 -3.856700 -11.754000
C -29.739900 -5.881300 -11.577300
H -29.706800 -6.810600 -11.592500
C -29.272400 -3.858200 -11.379200
O -29.047900 -1.507700 -11.407500
N -28.721600 -5.099400 -11.252800
C -28.553300 -2.592200 -11.109900
N -27.371900 -2.766800 -10.530000
H -27.083000 -3.563600 -10.382300
N -26.600800 -1.681600 -10.161400
H -25.856000 0.590900 -9.076800
C -25.468700 -1.971600 -9.640800
H -25.230000 -2.866600 -9.560800
C -24.972200 0.350800 -8.915300
C -24.549100 -0.961200 -9.172800
H -24.371400 2.151700 -8.248400
C -24.090400 1.282400 -8.424400
C -23.247800 -1.289500 -8.882800
H -22.959100 -2.164200 -9.012600
C -22.804200 0.919900 -8.199400
C -22.356700 -0.350800 -8.403000
F -21.931700 1.836700 -7.716800
H -21.472000 -0.580000 -8.222900
50
Fragment
H -31.566900 -13.294500 -12.107500
N -30.805300 -12.968600 -11.872800
N -30.526500 -11.652700 -11.754000
C -29.739900 -13.677300 -11.577300
H -29.706800 -14.606600 -11.592500
C -29.272400 -11.654200 -11.379200
O -29.047900 -9.303700 -11.407500
N -28.721600 -12.895400 -11.252800
C -28.553300 -10.388200 -11.109900
N -27.371900 -10.562800 -10.530000
H -27.083000 -11.359600 -10.382300
N -26.600800 -9.477600 -10.161400
H -25.856000 -7.205100 -9.076800
C -25.468700 -9.767600 -9.640800
H -25.230000 -10.662600 -9.560800
C -24.972200 -7.445200 -8.915300
C -24.549100 -8.757200 -9.172800
H -24.371400 -5.644300 -8.248400
C -24.090400 -6.513600 -8.424400
C -23.247800 -9.085500 -8.882800
H -22.959100 -9.960200 -9.012600
C -22.804200 -6.876100 -8.199400
C -22.356700 -8.146800 -8.403000
F -21.931700 -5.959300 -7.716800
H -21.472000 -8.376000 -8.222900
H -31.566900 -5.498500 -12.107500
N -30.805300 -5.172600 -11.872800
N -30.526500 -3.856700 -11.754000
C -29.739900 -5.881300 -11.577300
H -29.706800 -6.810600 -11.592500
C -29.272400 -3.858200 -11.379200
O -29.047900 -1.507700 -11.407500
N -28.721600 -5.099400 -11.252800
C -28.553300 -2.592200 -11.109900
N -27.371900 -2.766800 -10.530000
H -27.083000 -3.563600 -10.382300
N -26.600800 -1.681600 -10.161400
H -25.856000 0.590900 -9.076800
C -25.468700 -1.971600 -9.640800
H -25.230000 -2.866600 -9.560800
C -24.972200 0.350800 -8.915300
C -24.549100 -0.961200 -9.172800
H -24.371400 2.151700 -8.248400
C -24.090400 1.282400 -8.424400
C -23.247800 -1.289500 -8.882800
H -22.959100 -2.164200 -9.012600
C -22.804200 0.919900 -8.199400
C -22.356700 -0.350800 -8.403000
F -21.931700 1.836700 -7.716800
H -21.472000 -0.580000 -8.222900
