14
Fragment
O -17.409300 -12.340700 -31.104500
H -17.395400 -13.062300 -28.946500
O -16.837500 -12.434900 -28.960400
C -16.744600 -11.941800 -30.174200
H -16.569400 -9.838800 -31.838300
H -15.925900 -10.170400 -29.617400
C -15.729600 -10.848700 -30.282400
C -15.692800 -10.202500 -31.639700
H -15.496500 -10.880800 -32.304800
H -14.853000 -11.212400 -30.083800
C -14.677900 -9.109400 -31.747900
O -14.584900 -8.616300 -32.961800
H -14.027100 -7.988900 -32.975600
O -14.013200 -8.710500 -30.817600
14
Fragment
O -17.409300 -17.603500 -31.104500
H -17.395400 -18.325100 -28.946500
O -16.837500 -17.697700 -28.960400
C -16.744600 -17.204600 -30.174200
H -16.569400 -15.101600 -31.838300
H -15.925900 -15.433200 -29.617400
C -15.729600 -16.111500 -30.282400
C -15.692800 -15.465300 -31.639700
H -15.496500 -16.143600 -32.304800
H -14.853000 -16.475200 -30.083800
C -14.677900 -14.372200 -31.747900
O -14.584900 -13.879100 -32.961800
H -14.027100 -13.251700 -32.975600
O -14.013200 -13.973300 -30.817600
28
Fragment
O -17.409300 -12.340700 -31.104500
H -17.395400 -13.062300 -28.946500
O -16.837500 -12.434900 -28.960400
C -16.744600 -11.941800 -30.174200
H -16.569400 -9.838800 -31.838300
H -15.925900 -10.170400 -29.617400
C -15.729600 -10.848700 -30.282400
C -15.692800 -10.202500 -31.639700
H -15.496500 -10.880800 -32.304800
H -14.853000 -11.212400 -30.083800
C -14.677900 -9.109400 -31.747900
O -14.584900 -8.616300 -32.961800
H -14.027100 -7.988900 -32.975600
O -14.013200 -8.710500 -30.817600
O -17.409300 -17.603500 -31.104500
H -17.395400 -18.325100 -28.946500
O -16.837500 -17.697700 -28.960400
C -16.744600 -17.204600 -30.174200
H -16.569400 -15.101600 -31.838300
H -15.925900 -15.433200 -29.617400
C -15.729600 -16.111500 -30.282400
C -15.692800 -15.465300 -31.639700
H -15.496500 -16.143600 -32.304800
H -14.853000 -16.475200 -30.083800
C -14.677900 -14.372200 -31.747900
O -14.584900 -13.879100 -32.961800
H -14.027100 -13.251700 -32.975600
O -14.013200 -13.973300 -30.817600
