16
Fragment
H -12.136600 -22.770100 -29.819900
C -11.284800 -22.848400 -30.184800
O -11.176700 -23.028500 -31.534000
H -10.548600 -24.113200 -33.723400
H -10.492700 -22.560300 -33.919300
O -10.411200 -22.595200 -28.042400
C -10.232100 -22.779500 -29.355700
C -10.024500 -23.318400 -33.536900
C -9.941500 -23.136900 -32.072100
H -9.690900 -22.662700 -27.655600
C -8.876300 -22.887800 -29.923700
C -8.848600 -23.090400 -31.310800
O -8.792100 -23.440800 -34.156700
H -8.470800 -22.696300 -34.275900
H -8.021400 -23.197000 -31.723700
O -7.887000 -22.818900 -29.172400
22
Fragment
H -16.019700 -19.792700 -35.188000
H -15.809700 -19.681000 -33.638300
C -15.348900 -19.736100 -34.489500
N -14.556300 -18.517700 -34.684800
H -14.538200 -18.671900 -36.678900
N -14.530400 -20.946200 -34.513400
H -14.508600 -21.059100 -36.524500
H -13.986200 -18.403800 -32.768000
H -13.944400 -20.789800 -32.594400
C -13.875300 -18.624600 -35.972200
C -13.845300 -20.999600 -35.818800
C -13.546800 -18.451500 -33.630600
C -13.510300 -20.843400 -33.461200
H -13.344500 -17.824800 -36.117100
H -13.297700 -21.800100 -35.858200
H -13.017500 -17.647000 -33.743600
N -12.990600 -19.814900 -36.053900
H -12.955500 -21.639000 -33.469500
N -12.652400 -19.636200 -33.662400
C -12.025000 -19.722100 -34.979800
H -11.471900 -18.937100 -35.117900
H -11.446600 -20.500400 -35.004500
38
Fragment
H -12.136600 -22.770100 -29.819900
C -11.284800 -22.848400 -30.184800
O -11.176700 -23.028500 -31.534000
H -10.548600 -24.113200 -33.723400
H -10.492700 -22.560300 -33.919300
O -10.411200 -22.595200 -28.042400
C -10.232100 -22.779500 -29.355700
C -10.024500 -23.318400 -33.536900
C -9.941500 -23.136900 -32.072100
H -9.690900 -22.662700 -27.655600
C -8.876300 -22.887800 -29.923700
C -8.848600 -23.090400 -31.310800
O -8.792100 -23.440800 -34.156700
H -8.470800 -22.696300 -34.275900
H -8.021400 -23.197000 -31.723700
O -7.887000 -22.818900 -29.172400
H -16.019700 -19.792700 -35.188000
H -15.809700 -19.681000 -33.638300
C -15.348900 -19.736100 -34.489500
N -14.556300 -18.517700 -34.684800
H -14.538200 -18.671900 -36.678900
N -14.530400 -20.946200 -34.513400
H -14.508600 -21.059100 -36.524500
H -13.986200 -18.403800 -32.768000
H -13.944400 -20.789800 -32.594400
C -13.875300 -18.624600 -35.972200
C -13.845300 -20.999600 -35.818800
C -13.546800 -18.451500 -33.630600
C -13.510300 -20.843400 -33.461200
H -13.344500 -17.824800 -36.117100
H -13.297700 -21.800100 -35.858200
H -13.017500 -17.647000 -33.743600
N -12.990600 -19.814900 -36.053900
H -12.955500 -21.639000 -33.469500
N -12.652400 -19.636200 -33.662400
C -12.025000 -19.722100 -34.979800
H -11.471900 -18.937100 -35.117900
H -11.446600 -20.500400 -35.004500
