16
Fragment
H -12.136600 -22.770100 -29.819900
C -11.284800 -22.848400 -30.184800
O -11.176700 -23.028500 -31.534000
H -10.548600 -24.113200 -33.723400
H -10.492700 -22.560300 -33.919300
O -10.411200 -22.595200 -28.042400
C -10.232100 -22.779500 -29.355700
C -10.024500 -23.318400 -33.536900
C -9.941500 -23.136900 -32.072100
H -9.690900 -22.662700 -27.655600
C -8.876300 -22.887800 -29.923700
C -8.848600 -23.090400 -31.310800
O -8.792100 -23.440800 -34.156700
H -8.470800 -22.696300 -34.275900
H -8.021400 -23.197000 -31.723700
O -7.887000 -22.818900 -29.172400
16
Fragment
H -19.080000 -22.770100 -29.819900
C -18.228200 -22.848400 -30.184800
O -18.120100 -23.028500 -31.534000
H -17.492000 -24.113200 -33.723400
H -17.436100 -22.560300 -33.919300
O -17.354600 -22.595200 -28.042400
C -17.175500 -22.779500 -29.355700
C -16.967900 -23.318400 -33.536900
C -16.884900 -23.136900 -32.072100
H -16.634300 -22.662700 -27.655600
C -15.819700 -22.887800 -29.923700
C -15.792000 -23.090400 -31.310800
O -15.735500 -23.440800 -34.156700
H -15.414200 -22.696300 -34.275900
H -14.964800 -23.197000 -31.723700
O -14.830400 -22.818900 -29.172400
32
Fragment
H -12.136600 -22.770100 -29.819900
C -11.284800 -22.848400 -30.184800
O -11.176700 -23.028500 -31.534000
H -10.548600 -24.113200 -33.723400
H -10.492700 -22.560300 -33.919300
O -10.411200 -22.595200 -28.042400
C -10.232100 -22.779500 -29.355700
C -10.024500 -23.318400 -33.536900
C -9.941500 -23.136900 -32.072100
H -9.690900 -22.662700 -27.655600
C -8.876300 -22.887800 -29.923700
C -8.848600 -23.090400 -31.310800
O -8.792100 -23.440800 -34.156700
H -8.470800 -22.696300 -34.275900
H -8.021400 -23.197000 -31.723700
O -7.887000 -22.818900 -29.172400
H -19.080000 -22.770100 -29.819900
C -18.228200 -22.848400 -30.184800
O -18.120100 -23.028500 -31.534000
H -17.492000 -24.113200 -33.723400
H -17.436100 -22.560300 -33.919300
O -17.354600 -22.595200 -28.042400
C -17.175500 -22.779500 -29.355700
C -16.967900 -23.318400 -33.536900
C -16.884900 -23.136900 -32.072100
H -16.634300 -22.662700 -27.655600
C -15.819700 -22.887800 -29.923700
C -15.792000 -23.090400 -31.310800
O -15.735500 -23.440800 -34.156700
H -15.414200 -22.696300 -34.275900
H -14.964800 -23.197000 -31.723700
O -14.830400 -22.818900 -29.172400
