16
Fragment
H -12.136600 -22.770100 -29.819900
C -11.284800 -22.848400 -30.184800
O -11.176700 -23.028500 -31.534000
H -10.548600 -24.113200 -33.723400
H -10.492700 -22.560300 -33.919300
O -10.411200 -22.595200 -28.042400
C -10.232100 -22.779500 -29.355700
C -10.024500 -23.318400 -33.536900
C -9.941500 -23.136900 -32.072100
H -9.690900 -22.662700 -27.655600
C -8.876300 -22.887800 -29.923700
C -8.848600 -23.090400 -31.310800
O -8.792100 -23.440800 -34.156700
H -8.470800 -22.696300 -34.275900
H -8.021400 -23.197000 -31.723700
O -7.887000 -22.818900 -29.172400
22
Fragment
H -16.569400 -21.709900 -24.783200
H -16.544100 -23.273200 -24.669800
C -15.991000 -22.488200 -24.807900
N -15.363600 -22.574100 -26.125200
H -15.060600 -20.571300 -26.318100
N -15.025500 -22.395400 -23.733700
H -14.998500 -24.563300 -26.044100
H -14.718300 -20.410200 -23.929400
H -14.671500 -24.385500 -23.670500
C -14.505700 -21.366900 -26.326500
C -14.469200 -23.758800 -26.157100
C -14.170800 -21.210700 -23.968900
C -14.140700 -23.585700 -23.815400
H -14.071600 -21.420500 -27.193200
H -14.029800 -23.806500 -27.019600
H -13.507400 -21.151200 -23.263200
N -13.485700 -21.264100 -25.274200
H -13.477800 -23.538400 -23.108700
N -13.459700 -23.692600 -25.102800
C -12.667100 -22.474200 -25.298100
H -12.206300 -22.529300 -26.149300
H -11.996300 -22.417600 -24.599600
38
Fragment
H -12.136600 -22.770100 -29.819900
C -11.284800 -22.848400 -30.184800
O -11.176700 -23.028500 -31.534000
H -10.548600 -24.113200 -33.723400
H -10.492700 -22.560300 -33.919300
O -10.411200 -22.595200 -28.042400
C -10.232100 -22.779500 -29.355700
C -10.024500 -23.318400 -33.536900
C -9.941500 -23.136900 -32.072100
H -9.690900 -22.662700 -27.655600
C -8.876300 -22.887800 -29.923700
C -8.848600 -23.090400 -31.310800
O -8.792100 -23.440800 -34.156700
H -8.470800 -22.696300 -34.275900
H -8.021400 -23.197000 -31.723700
O -7.887000 -22.818900 -29.172400
H -16.569400 -21.709900 -24.783200
H -16.544100 -23.273200 -24.669800
C -15.991000 -22.488200 -24.807900
N -15.363600 -22.574100 -26.125200
H -15.060600 -20.571300 -26.318100
N -15.025500 -22.395400 -23.733700
H -14.998500 -24.563300 -26.044100
H -14.718300 -20.410200 -23.929400
H -14.671500 -24.385500 -23.670500
C -14.505700 -21.366900 -26.326500
C -14.469200 -23.758800 -26.157100
C -14.170800 -21.210700 -23.968900
C -14.140700 -23.585700 -23.815400
H -14.071600 -21.420500 -27.193200
H -14.029800 -23.806500 -27.019600
H -13.507400 -21.151200 -23.263200
N -13.485700 -21.264100 -25.274200
H -13.477800 -23.538400 -23.108700
N -13.459700 -23.692600 -25.102800
C -12.667100 -22.474200 -25.298100
H -12.206300 -22.529300 -26.149300
H -11.996300 -22.417600 -24.599600
