16
Fragment
H -12.136600 -22.770100 -29.819900
C -11.284800 -22.848400 -30.184800
O -11.176700 -23.028500 -31.534000
H -10.548600 -24.113200 -33.723400
H -10.492700 -22.560300 -33.919300
O -10.411200 -22.595200 -28.042400
C -10.232100 -22.779500 -29.355700
C -10.024500 -23.318400 -33.536900
C -9.941500 -23.136900 -32.072100
H -9.690900 -22.662700 -27.655600
C -8.876300 -22.887800 -29.923700
C -8.848600 -23.090400 -31.310800
O -8.792100 -23.440800 -34.156700
H -8.470800 -22.696300 -34.275900
H -8.021400 -23.197000 -31.723700
O -7.887000 -22.818900 -29.172400
16
Fragment
O -11.183100 -22.464300 -37.164000
H -10.933600 -24.212400 -37.792800
H -10.759900 -21.912200 -36.730500
H -10.554600 -22.895400 -40.149200
C -10.385700 -23.467500 -37.500800
H -9.901600 -23.754000 -36.709600
C -9.669500 -22.893500 -39.864400
C -9.396000 -23.155200 -38.575000
O -8.798700 -22.308100 -42.014800
C -8.626000 -22.612100 -40.817000
O -8.161900 -23.197400 -38.124600
C -7.322300 -22.689400 -40.257000
C -7.137800 -22.970800 -38.979600
H -6.419300 -22.519200 -41.793000
H -6.267400 -23.014700 -38.654500
O -6.227600 -22.462900 -40.998400
32
Fragment
H -12.136600 -22.770100 -29.819900
C -11.284800 -22.848400 -30.184800
O -11.176700 -23.028500 -31.534000
H -10.548600 -24.113200 -33.723400
H -10.492700 -22.560300 -33.919300
O -10.411200 -22.595200 -28.042400
C -10.232100 -22.779500 -29.355700
C -10.024500 -23.318400 -33.536900
C -9.941500 -23.136900 -32.072100
H -9.690900 -22.662700 -27.655600
C -8.876300 -22.887800 -29.923700
C -8.848600 -23.090400 -31.310800
O -8.792100 -23.440800 -34.156700
H -8.470800 -22.696300 -34.275900
H -8.021400 -23.197000 -31.723700
O -7.887000 -22.818900 -29.172400
O -11.183100 -22.464300 -37.164000
H -10.933600 -24.212400 -37.792800
H -10.759900 -21.912200 -36.730500
H -10.554600 -22.895400 -40.149200
C -10.385700 -23.467500 -37.500800
H -9.901600 -23.754000 -36.709600
C -9.669500 -22.893500 -39.864400
C -9.396000 -23.155200 -38.575000
O -8.798700 -22.308100 -42.014800
C -8.626000 -22.612100 -40.817000
O -8.161900 -23.197400 -38.124600
C -7.322300 -22.689400 -40.257000
C -7.137800 -22.970800 -38.979600
H -6.419300 -22.519200 -41.793000
H -6.267400 -23.014700 -38.654500
O -6.227600 -22.462900 -40.998400
