16
Fragment
H -12.136600 -22.770100 -29.819900
C -11.284800 -22.848400 -30.184800
O -11.176700 -23.028500 -31.534000
H -10.548600 -24.113200 -33.723400
H -10.492700 -22.560300 -33.919300
O -10.411200 -22.595200 -28.042400
C -10.232100 -22.779500 -29.355700
C -10.024500 -23.318400 -33.536900
C -9.941500 -23.136900 -32.072100
H -9.690900 -22.662700 -27.655600
C -8.876300 -22.887800 -29.923700
C -8.848600 -23.090400 -31.310800
O -8.792100 -23.440800 -34.156700
H -8.470800 -22.696300 -34.275900
H -8.021400 -23.197000 -31.723700
O -7.887000 -22.818900 -29.172400
16
Fragment
O -12.299900 -26.781000 -27.199400
H -12.050400 -25.033000 -27.828200
H -11.876700 -27.333100 -26.765900
H -11.671400 -26.349900 -30.184600
C -11.502500 -25.777800 -27.536200
H -11.018400 -25.491400 -26.745000
C -10.786300 -26.351900 -29.899800
C -10.512800 -26.090200 -28.610400
O -9.915500 -26.937200 -32.050200
C -9.742900 -26.633300 -30.852400
O -9.278800 -26.048000 -28.160000
C -8.439200 -26.555900 -30.292400
C -8.254600 -26.274500 -29.014900
H -7.536100 -26.726200 -31.828400
H -7.384200 -26.230600 -28.689900
O -7.344400 -26.782400 -31.033800
32
Fragment
H -12.136600 -22.770100 -29.819900
C -11.284800 -22.848400 -30.184800
O -11.176700 -23.028500 -31.534000
H -10.548600 -24.113200 -33.723400
H -10.492700 -22.560300 -33.919300
O -10.411200 -22.595200 -28.042400
C -10.232100 -22.779500 -29.355700
C -10.024500 -23.318400 -33.536900
C -9.941500 -23.136900 -32.072100
H -9.690900 -22.662700 -27.655600
C -8.876300 -22.887800 -29.923700
C -8.848600 -23.090400 -31.310800
O -8.792100 -23.440800 -34.156700
H -8.470800 -22.696300 -34.275900
H -8.021400 -23.197000 -31.723700
O -7.887000 -22.818900 -29.172400
O -12.299900 -26.781000 -27.199400
H -12.050400 -25.033000 -27.828200
H -11.876700 -27.333100 -26.765900
H -11.671400 -26.349900 -30.184600
C -11.502500 -25.777800 -27.536200
H -11.018400 -25.491400 -26.745000
C -10.786300 -26.351900 -29.899800
C -10.512800 -26.090200 -28.610400
O -9.915500 -26.937200 -32.050200
C -9.742900 -26.633300 -30.852400
O -9.278800 -26.048000 -28.160000
C -8.439200 -26.555900 -30.292400
C -8.254600 -26.274500 -29.014900
H -7.536100 -26.726200 -31.828400
H -7.384200 -26.230600 -28.689900
O -7.344400 -26.782400 -31.033800
