16
Fragment
H -12.136600 -22.770100 -29.819900
C -11.284800 -22.848400 -30.184800
O -11.176700 -23.028500 -31.534000
H -10.548600 -24.113200 -33.723400
H -10.492700 -22.560300 -33.919300
O -10.411200 -22.595200 -28.042400
C -10.232100 -22.779500 -29.355700
C -10.024500 -23.318400 -33.536900
C -9.941500 -23.136900 -32.072100
H -9.690900 -22.662700 -27.655600
C -8.876300 -22.887800 -29.923700
C -8.848600 -23.090400 -31.310800
O -8.792100 -23.440800 -34.156700
H -8.470800 -22.696300 -34.275900
H -8.021400 -23.197000 -31.723700
O -7.887000 -22.818900 -29.172400
22
Fragment
H -15.452600 -27.535500 -34.747800
H -15.427300 -25.972100 -34.634400
C -14.874200 -26.757100 -34.772500
N -14.246800 -26.671300 -36.089800
H -13.943700 -28.674000 -36.282700
N -13.908600 -26.850000 -33.698300
H -13.881700 -24.682100 -36.008700
H -13.601500 -28.835100 -33.894000
H -13.554700 -24.859900 -33.635100
C -13.388900 -27.878500 -36.291100
C -13.352300 -25.486600 -36.121700
C -13.053900 -28.034700 -33.933500
C -13.023900 -25.659600 -33.780000
H -12.954800 -27.824900 -37.157800
H -12.912900 -25.438900 -36.984200
H -12.390600 -28.094200 -33.227800
N -12.368800 -27.981200 -35.238800
H -12.361000 -25.706900 -33.073300
N -12.342900 -25.552700 -35.067400
C -11.550300 -26.771200 -35.262800
H -11.089500 -26.716000 -36.113900
H -10.879500 -26.827700 -34.564200
38
Fragment
H -12.136600 -22.770100 -29.819900
C -11.284800 -22.848400 -30.184800
O -11.176700 -23.028500 -31.534000
H -10.548600 -24.113200 -33.723400
H -10.492700 -22.560300 -33.919300
O -10.411200 -22.595200 -28.042400
C -10.232100 -22.779500 -29.355700
C -10.024500 -23.318400 -33.536900
C -9.941500 -23.136900 -32.072100
H -9.690900 -22.662700 -27.655600
C -8.876300 -22.887800 -29.923700
C -8.848600 -23.090400 -31.310800
O -8.792100 -23.440800 -34.156700
H -8.470800 -22.696300 -34.275900
H -8.021400 -23.197000 -31.723700
O -7.887000 -22.818900 -29.172400
H -15.452600 -27.535500 -34.747800
H -15.427300 -25.972100 -34.634400
C -14.874200 -26.757100 -34.772500
N -14.246800 -26.671300 -36.089800
H -13.943700 -28.674000 -36.282700
N -13.908600 -26.850000 -33.698300
H -13.881700 -24.682100 -36.008700
H -13.601500 -28.835100 -33.894000
H -13.554700 -24.859900 -33.635100
C -13.388900 -27.878500 -36.291100
C -13.352300 -25.486600 -36.121700
C -13.053900 -28.034700 -33.933500
C -13.023900 -25.659600 -33.780000
H -12.954800 -27.824900 -37.157800
H -12.912900 -25.438900 -36.984200
H -12.390600 -28.094200 -33.227800
N -12.368800 -27.981200 -35.238800
H -12.361000 -25.706900 -33.073300
N -12.342900 -25.552700 -35.067400
C -11.550300 -26.771200 -35.262800
H -11.089500 -26.716000 -36.113900
H -10.879500 -26.827700 -34.564200
