20
Fragment
N -13.391100 -13.019700 -28.644800
H -12.899400 -19.281000 -26.973200
N -12.818500 -12.000400 -28.055100
N -12.797800 -14.177900 -28.266300
N -12.160700 -19.343800 -26.498800
H -11.913700 -20.121300 -26.169100
N -11.838400 -12.498700 -27.277000
C -11.832800 -13.837300 -27.416700
N -11.776100 -17.076800 -26.771800
C -11.416900 -18.261800 -26.279500
H -11.296800 -12.029800 -26.765300
C -10.932500 -16.065500 -26.498800
C -10.903300 -14.694900 -26.731100
C -10.175800 -18.396700 -25.519300
N -9.785100 -14.163200 -26.157700
C -9.777200 -19.696500 -25.002700
N -9.769900 -16.255200 -25.780800
N -9.517400 -20.742500 -24.624200
N -9.338800 -17.422800 -25.270700
N -9.071700 -15.095700 -25.572900
20
Fragment
N -19.004400 -13.019700 -28.644800
H -18.512700 -19.281000 -26.973200
N -18.431800 -12.000400 -28.055100
N -18.411100 -14.177900 -28.266300
N -17.774000 -19.343800 -26.498800
H -17.527000 -20.121300 -26.169100
N -17.451700 -12.498700 -27.277000
C -17.446100 -13.837300 -27.416700
N -17.389400 -17.076800 -26.771800
C -17.030200 -18.261800 -26.279500
H -16.910100 -12.029800 -26.765300
C -16.545800 -16.065500 -26.498800
C -16.516600 -14.694900 -26.731100
C -15.789100 -18.396700 -25.519300
N -15.398400 -14.163200 -26.157700
C -15.390500 -19.696500 -25.002700
N -15.383200 -16.255200 -25.780800
N -15.130700 -20.742500 -24.624200
N -14.952100 -17.422800 -25.270700
N -14.685000 -15.095700 -25.572900
40
Fragment
N -13.391100 -13.019700 -28.644800
H -12.899400 -19.281000 -26.973200
N -12.818500 -12.000400 -28.055100
N -12.797800 -14.177900 -28.266300
N -12.160700 -19.343800 -26.498800
H -11.913700 -20.121300 -26.169100
N -11.838400 -12.498700 -27.277000
C -11.832800 -13.837300 -27.416700
N -11.776100 -17.076800 -26.771800
C -11.416900 -18.261800 -26.279500
H -11.296800 -12.029800 -26.765300
C -10.932500 -16.065500 -26.498800
C -10.903300 -14.694900 -26.731100
C -10.175800 -18.396700 -25.519300
N -9.785100 -14.163200 -26.157700
C -9.777200 -19.696500 -25.002700
N -9.769900 -16.255200 -25.780800
N -9.517400 -20.742500 -24.624200
N -9.338800 -17.422800 -25.270700
N -9.071700 -15.095700 -25.572900
N -19.004400 -13.019700 -28.644800
H -18.512700 -19.281000 -26.973200
N -18.431800 -12.000400 -28.055100
N -18.411100 -14.177900 -28.266300
N -17.774000 -19.343800 -26.498800
H -17.527000 -20.121300 -26.169100
N -17.451700 -12.498700 -27.277000
C -17.446100 -13.837300 -27.416700
N -17.389400 -17.076800 -26.771800
C -17.030200 -18.261800 -26.279500
H -16.910100 -12.029800 -26.765300
C -16.545800 -16.065500 -26.498800
C -16.516600 -14.694900 -26.731100
C -15.789100 -18.396700 -25.519300
N -15.398400 -14.163200 -26.157700
C -15.390500 -19.696500 -25.002700
N -15.383200 -16.255200 -25.780800
N -15.130700 -20.742500 -24.624200
N -14.952100 -17.422800 -25.270700
N -14.685000 -15.095700 -25.572900
