16
Fragment
H -10.120400 -18.884200 -25.148500
N -9.929200 -12.864600 -26.078000
N -9.392700 -18.951700 -24.695600
C -9.193100 -13.513300 -25.494000
H -9.134700 -19.720000 -24.407600
N -9.062800 -16.693300 -24.883000
C -8.668600 -17.873200 -24.441800
C -8.260800 -14.303100 -24.785700
C -8.248200 -15.669000 -24.572500
C -7.433100 -18.006000 -23.675400
N -7.145800 -13.753600 -24.228700
N -7.084200 -15.850400 -23.882500
C -7.047600 -19.286800 -23.143700
N -6.784800 -20.318000 -22.729000
N -6.642500 -17.014200 -23.396000
N -6.417400 -14.675000 -23.673900
16
Fragment
H -7.394200 -13.545800 -19.773500
N -7.203000 -19.565400 -18.844000
N -6.666500 -13.478300 -20.226400
C -6.467000 -18.916700 -19.428000
H -6.408600 -12.710000 -20.514400
N -6.336700 -15.736700 -20.039000
C -5.942500 -14.556800 -20.480200
C -5.534600 -18.126900 -20.136300
C -5.522100 -16.761000 -20.349500
C -4.707000 -14.424000 -21.246600
N -4.419600 -18.676400 -20.693300
N -4.358000 -16.579600 -21.039500
C -4.321500 -13.143200 -21.778300
N -4.058700 -12.112000 -22.193000
N -3.916400 -15.415800 -21.526000
N -3.691200 -17.755000 -21.248100
32
Fragment
H -10.120400 -18.884200 -25.148500
N -9.929200 -12.864600 -26.078000
N -9.392700 -18.951700 -24.695600
C -9.193100 -13.513300 -25.494000
H -9.134700 -19.720000 -24.407600
N -9.062800 -16.693300 -24.883000
C -8.668600 -17.873200 -24.441800
C -8.260800 -14.303100 -24.785700
C -8.248200 -15.669000 -24.572500
C -7.433100 -18.006000 -23.675400
N -7.145800 -13.753600 -24.228700
N -7.084200 -15.850400 -23.882500
C -7.047600 -19.286800 -23.143700
N -6.784800 -20.318000 -22.729000
N -6.642500 -17.014200 -23.396000
N -6.417400 -14.675000 -23.673900
H -7.394200 -13.545800 -19.773500
N -7.203000 -19.565400 -18.844000
N -6.666500 -13.478300 -20.226400
C -6.467000 -18.916700 -19.428000
H -6.408600 -12.710000 -20.514400
N -6.336700 -15.736700 -20.039000
C -5.942500 -14.556800 -20.480200
C -5.534600 -18.126900 -20.136300
C -5.522100 -16.761000 -20.349500
C -4.707000 -14.424000 -21.246600
N -4.419600 -18.676400 -20.693300
N -4.358000 -16.579600 -21.039500
C -4.321500 -13.143200 -21.778300
N -4.058700 -12.112000 -22.193000
N -3.916400 -15.415800 -21.526000
N -3.691200 -17.755000 -21.248100
