20
Fragment
N -13.391100 -13.019700 -28.644800
H -12.899400 -19.281000 -26.973200
N -12.818500 -12.000400 -28.055100
N -12.797800 -14.177900 -28.266300
N -12.160700 -19.343800 -26.498800
H -11.913700 -20.121300 -26.169100
N -11.838400 -12.498700 -27.277000
C -11.832800 -13.837300 -27.416700
N -11.776100 -17.076800 -26.771800
C -11.416900 -18.261800 -26.279500
H -11.296800 -12.029800 -26.765300
C -10.932500 -16.065500 -26.498800
C -10.903300 -14.694900 -26.731100
C -10.175800 -18.396700 -25.519300
N -9.785100 -14.163200 -26.157700
C -9.777200 -19.696500 -25.002700
N -9.769900 -16.255200 -25.780800
N -9.517400 -20.742500 -24.624200
N -9.338800 -17.422800 -25.270700
N -9.071700 -15.095700 -25.572900
20
Fragment
N -10.584400 -20.377800 -20.090200
H -10.092700 -14.116500 -21.761800
N -10.011900 -21.397100 -20.679900
N -9.991100 -19.219600 -20.468700
N -9.354000 -14.053700 -22.236200
H -9.107000 -13.276200 -22.565900
N -9.031800 -20.898800 -21.458000
C -9.026200 -19.560200 -21.318300
N -8.969500 -16.320700 -21.963200
C -8.610200 -15.135700 -22.455500
H -8.490100 -21.367700 -21.969700
C -8.125800 -17.332000 -22.236200
C -8.096600 -18.702600 -22.003900
C -7.369100 -15.000800 -23.215700
N -6.978500 -19.234300 -22.577300
C -6.970600 -13.701000 -23.732300
N -6.963300 -17.142300 -22.954200
N -6.710700 -12.655000 -24.110800
N -6.532200 -15.974700 -23.464300
N -6.265000 -18.301800 -23.162100
40
Fragment
N -13.391100 -13.019700 -28.644800
H -12.899400 -19.281000 -26.973200
N -12.818500 -12.000400 -28.055100
N -12.797800 -14.177900 -28.266300
N -12.160700 -19.343800 -26.498800
H -11.913700 -20.121300 -26.169100
N -11.838400 -12.498700 -27.277000
C -11.832800 -13.837300 -27.416700
N -11.776100 -17.076800 -26.771800
C -11.416900 -18.261800 -26.279500
H -11.296800 -12.029800 -26.765300
C -10.932500 -16.065500 -26.498800
C -10.903300 -14.694900 -26.731100
C -10.175800 -18.396700 -25.519300
N -9.785100 -14.163200 -26.157700
C -9.777200 -19.696500 -25.002700
N -9.769900 -16.255200 -25.780800
N -9.517400 -20.742500 -24.624200
N -9.338800 -17.422800 -25.270700
N -9.071700 -15.095700 -25.572900
N -10.584400 -20.377800 -20.090200
H -10.092700 -14.116500 -21.761800
N -10.011900 -21.397100 -20.679900
N -9.991100 -19.219600 -20.468700
N -9.354000 -14.053700 -22.236200
H -9.107000 -13.276200 -22.565900
N -9.031800 -20.898800 -21.458000
C -9.026200 -19.560200 -21.318300
N -8.969500 -16.320700 -21.963200
C -8.610200 -15.135700 -22.455500
H -8.490100 -21.367700 -21.969700
C -8.125800 -17.332000 -22.236200
C -8.096600 -18.702600 -22.003900
C -7.369100 -15.000800 -23.215700
N -6.978500 -19.234300 -22.577300
C -6.970600 -13.701000 -23.732300
N -6.963300 -17.142300 -22.954200
N -6.710700 -12.655000 -24.110800
N -6.532200 -15.974700 -23.464300
N -6.265000 -18.301800 -23.162100
