20
Fragment
N -13.391100 -13.019700 -28.644800
H -12.899400 -19.281000 -26.973200
N -12.818500 -12.000400 -28.055100
N -12.797800 -14.177900 -28.266300
N -12.160700 -19.343800 -26.498800
H -11.913700 -20.121300 -26.169100
N -11.838400 -12.498700 -27.277000
C -11.832800 -13.837300 -27.416700
N -11.776100 -17.076800 -26.771800
C -11.416900 -18.261800 -26.279500
H -11.296800 -12.029800 -26.765300
C -10.932500 -16.065500 -26.498800
C -10.903300 -14.694900 -26.731100
C -10.175800 -18.396700 -25.519300
N -9.785100 -14.163200 -26.157700
C -9.777200 -19.696500 -25.002700
N -9.769900 -16.255200 -25.780800
N -9.517400 -20.742500 -24.624200
N -9.338800 -17.422800 -25.270700
N -9.071700 -15.095700 -25.572900
20
Fragment
N -18.994800 -8.416200 -31.284600
N -18.727700 -10.743300 -31.586800
N -18.549100 -14.063000 -32.233300
N -18.296600 -9.575700 -31.076700
C -18.289300 -13.017000 -31.854800
N -18.281400 -7.483700 -30.699800
C -17.890700 -11.717200 -31.338200
C -17.163200 -8.015400 -30.126400
C -17.134000 -9.386000 -30.358700
H -16.769700 -5.350300 -30.092200
C -16.649600 -11.582300 -30.578000
N -16.290400 -10.397300 -30.085700
C -16.233700 -7.157800 -29.440800
N -16.228100 -5.819200 -29.580500
H -16.152800 -13.441800 -30.688400
N -15.905800 -12.664300 -30.358700
N -15.268700 -7.498400 -28.591200
N -15.248000 -5.320900 -28.802400
H -15.167100 -12.601500 -29.884300
N -14.675400 -6.340200 -28.212700
40
Fragment
N -13.391100 -13.019700 -28.644800
H -12.899400 -19.281000 -26.973200
N -12.818500 -12.000400 -28.055100
N -12.797800 -14.177900 -28.266300
N -12.160700 -19.343800 -26.498800
H -11.913700 -20.121300 -26.169100
N -11.838400 -12.498700 -27.277000
C -11.832800 -13.837300 -27.416700
N -11.776100 -17.076800 -26.771800
C -11.416900 -18.261800 -26.279500
H -11.296800 -12.029800 -26.765300
C -10.932500 -16.065500 -26.498800
C -10.903300 -14.694900 -26.731100
C -10.175800 -18.396700 -25.519300
N -9.785100 -14.163200 -26.157700
C -9.777200 -19.696500 -25.002700
N -9.769900 -16.255200 -25.780800
N -9.517400 -20.742500 -24.624200
N -9.338800 -17.422800 -25.270700
N -9.071700 -15.095700 -25.572900
N -18.994800 -8.416200 -31.284600
N -18.727700 -10.743300 -31.586800
N -18.549100 -14.063000 -32.233300
N -18.296600 -9.575700 -31.076700
C -18.289300 -13.017000 -31.854800
N -18.281400 -7.483700 -30.699800
C -17.890700 -11.717200 -31.338200
C -17.163200 -8.015400 -30.126400
C -17.134000 -9.386000 -30.358700
H -16.769700 -5.350300 -30.092200
C -16.649600 -11.582300 -30.578000
N -16.290400 -10.397300 -30.085700
C -16.233700 -7.157800 -29.440800
N -16.228100 -5.819200 -29.580500
H -16.152800 -13.441800 -30.688400
N -15.905800 -12.664300 -30.358700
N -15.268700 -7.498400 -28.591200
N -15.248000 -5.320900 -28.802400
H -15.167100 -12.601500 -29.884300
N -14.675400 -6.340200 -28.212700
