16
Fragment
H -10.120400 -18.884200 -25.148500
N -9.929200 -12.864600 -26.078000
N -9.392700 -18.951700 -24.695600
C -9.193100 -13.513300 -25.494000
H -9.134700 -19.720000 -24.407600
N -9.062800 -16.693300 -24.883000
C -8.668600 -17.873200 -24.441800
C -8.260800 -14.303100 -24.785700
C -8.248200 -15.669000 -24.572500
C -7.433100 -18.006000 -23.675400
N -7.145800 -13.753600 -24.228700
N -7.084200 -15.850400 -23.882500
C -7.047600 -19.286800 -23.143700
N -6.784800 -20.318000 -22.729000
N -6.642500 -17.014200 -23.396000
N -6.417400 -14.675000 -23.673900
6
Fragment
H -12.454900 -22.933700 -24.586600
H -11.811500 -23.302400 -23.205400
C -11.688600 -23.321100 -24.157600
H -11.583900 -24.229900 -24.448500
C -10.516900 -22.571300 -24.502000
N -9.601500 -21.959000 -24.761000
22
Fragment
H -10.120400 -18.884200 -25.148500
N -9.929200 -12.864600 -26.078000
N -9.392700 -18.951700 -24.695600
C -9.193100 -13.513300 -25.494000
H -9.134700 -19.720000 -24.407600
N -9.062800 -16.693300 -24.883000
C -8.668600 -17.873200 -24.441800
C -8.260800 -14.303100 -24.785700
C -8.248200 -15.669000 -24.572500
C -7.433100 -18.006000 -23.675400
N -7.145800 -13.753600 -24.228700
N -7.084200 -15.850400 -23.882500
C -7.047600 -19.286800 -23.143700
N -6.784800 -20.318000 -22.729000
N -6.642500 -17.014200 -23.396000
N -6.417400 -14.675000 -23.673900
H -12.454900 -22.933700 -24.586600
H -11.811500 -23.302400 -23.205400
C -11.688600 -23.321100 -24.157600
H -11.583900 -24.229900 -24.448500
C -10.516900 -22.571300 -24.502000
N -9.601500 -21.959000 -24.761000
