16
Fragment
H -10.120400 -18.884200 -25.148500
N -9.929200 -12.864600 -26.078000
N -9.392700 -18.951700 -24.695600
C -9.193100 -13.513300 -25.494000
H -9.134700 -19.720000 -24.407600
N -9.062800 -16.693300 -24.883000
C -8.668600 -17.873200 -24.441800
C -8.260800 -14.303100 -24.785700
C -8.248200 -15.669000 -24.572500
C -7.433100 -18.006000 -23.675400
N -7.145800 -13.753600 -24.228700
N -7.084200 -15.850400 -23.882500
C -7.047600 -19.286800 -23.143700
N -6.784800 -20.318000 -22.729000
N -6.642500 -17.014200 -23.396000
N -6.417400 -14.675000 -23.673900
16
Fragment
N -15.391800 -8.189000 -28.735100
N -15.166700 -10.528200 -29.013000
N -15.024400 -13.832000 -29.680000
C -14.761600 -12.800800 -29.265300
N -14.725000 -9.364400 -28.526500
N -14.663400 -7.267600 -28.180300
C -14.376100 -11.520000 -28.733600
C -13.561000 -9.183000 -27.836500
C -13.548400 -7.817100 -27.623300
C -13.140600 -11.387200 -27.967200
N -12.746400 -10.207300 -27.526000
H -12.674500 -13.234000 -28.001400
C -12.616100 -7.027300 -26.915000
N -12.416500 -12.465700 -27.713400
N -11.880000 -6.378600 -26.331000
H -11.688800 -12.398200 -27.260500
32
Fragment
H -10.120400 -18.884200 -25.148500
N -9.929200 -12.864600 -26.078000
N -9.392700 -18.951700 -24.695600
C -9.193100 -13.513300 -25.494000
H -9.134700 -19.720000 -24.407600
N -9.062800 -16.693300 -24.883000
C -8.668600 -17.873200 -24.441800
C -8.260800 -14.303100 -24.785700
C -8.248200 -15.669000 -24.572500
C -7.433100 -18.006000 -23.675400
N -7.145800 -13.753600 -24.228700
N -7.084200 -15.850400 -23.882500
C -7.047600 -19.286800 -23.143700
N -6.784800 -20.318000 -22.729000
N -6.642500 -17.014200 -23.396000
N -6.417400 -14.675000 -23.673900
N -15.391800 -8.189000 -28.735100
N -15.166700 -10.528200 -29.013000
N -15.024400 -13.832000 -29.680000
C -14.761600 -12.800800 -29.265300
N -14.725000 -9.364400 -28.526500
N -14.663400 -7.267600 -28.180300
C -14.376100 -11.520000 -28.733600
C -13.561000 -9.183000 -27.836500
C -13.548400 -7.817100 -27.623300
C -13.140600 -11.387200 -27.967200
N -12.746400 -10.207300 -27.526000
H -12.674500 -13.234000 -28.001400
C -12.616100 -7.027300 -26.915000
N -12.416500 -12.465700 -27.713400
N -11.880000 -6.378600 -26.331000
H -11.688800 -12.398200 -27.260500
