48
Fragment
H -25.821600 -17.142200 -25.057700
N -25.812600 -17.591800 -27.445300
N -25.371400 -17.992500 -28.622100
C -24.893900 -17.392300 -25.196700
N -24.810200 -17.740400 -26.614900
H -24.777700 -14.906600 -26.152100
H -24.730400 -22.089100 -32.364800
H -24.616600 -18.195700 -24.682000
H -24.483200 -23.819700 -30.793000
C -24.372100 -21.907000 -31.497800
C -24.194400 -22.913800 -30.579900
H -24.183800 -19.904800 -31.825700
C -24.123300 -15.005300 -25.472700
C -24.090300 -18.365000 -28.436800
C -24.047800 -20.607900 -31.162000
C -23.981700 -16.242400 -24.849100
N -23.707600 -18.218500 -27.180300
C -23.696800 -22.619300 -29.324000
H -23.566000 -23.319300 -28.676700
C -23.560400 -20.302700 -29.912000
H -23.418700 -13.107900 -25.567700
C -23.383300 -21.321000 -28.988900
C -23.316000 -13.944900 -25.120300
H -23.307700 -18.276000 -30.299300
C -23.219700 -18.873500 -29.534900
H -23.018000 -21.134300 -28.101400
C -23.008900 -16.387800 -23.877600
H -22.887400 -17.253100 -23.447800
C -22.353800 -14.078100 -24.128200
H -22.285200 -18.835300 -29.223000
C -22.206400 -15.319000 -23.513300
H -22.159400 -13.184500 -21.718100
C -21.616200 -12.612900 -22.282600
C -21.561600 -12.915900 -23.638900
H -21.555500 -15.455900 -22.812500
H -21.021800 -11.326900 -20.828800
C -20.941600 -11.531900 -21.754000
C -20.775000 -12.095800 -24.465400
H -20.628100 -10.553400 -26.731100
C -20.553600 -12.380400 -25.893300
N -20.455700 -11.445400 -26.837100
N -20.314900 -13.544000 -26.463200
C -20.187300 -10.720900 -22.576800
N -20.156000 -12.017000 -28.008500
C -20.101900 -11.001700 -23.917300
N -20.069700 -13.277800 -27.772200
H -19.687600 -9.975000 -22.200900
H -19.555400 -10.427100 -24.489600
48
Fragment
H -24.682800 -9.635300 -34.132600
N -24.673700 -9.185700 -36.520200
N -24.232500 -8.785000 -37.697000
C -23.755000 -9.385100 -34.271600
N -23.671400 -9.037000 -35.689800
H -23.638800 -11.870800 -35.227000
H -23.591500 -4.688300 -41.439700
H -23.477800 -8.581800 -33.756900
H -23.344300 -2.957800 -39.867900
C -23.233300 -4.870400 -40.572700
C -23.055500 -3.863600 -39.654800
H -23.044900 -6.872600 -40.900700
C -22.984400 -11.772100 -34.547700
C -22.951500 -8.412400 -37.511700
C -22.908900 -6.169500 -40.236900
C -22.842800 -10.535000 -33.924000
N -22.568700 -8.559000 -36.255200
C -22.558000 -4.158200 -38.398900
H -22.427100 -3.458100 -37.751700
C -22.421600 -6.474800 -38.986900
H -22.279800 -13.669500 -34.642600
C -22.244400 -5.456500 -38.063800
C -22.177100 -12.832500 -34.195200
H -22.168900 -8.501500 -39.374300
C -22.080800 -7.903900 -38.609800
H -21.879200 -5.643200 -37.176300
C -21.870000 -10.389700 -32.952500
H -21.748500 -9.524400 -32.522700
C -21.215000 -12.699400 -33.203100
H -21.146300 -7.942200 -38.298000
C -21.067600 -11.458500 -32.588200
H -21.020600 -13.593000 -30.793000
C -20.477400 -14.164500 -31.357500
C -20.422800 -13.861500 -32.713800
H -20.416600 -11.321500 -31.887400
H -19.883000 -15.450600 -29.903700
C -19.802700 -15.245500 -30.828900
C -19.636100 -14.681700 -33.540400
H -19.489300 -16.224100 -35.806000
C -19.414700 -14.397100 -34.968200
N -19.316800 -15.332000 -35.912000
N -19.176000 -13.233400 -35.538100
C -19.048500 -16.056500 -31.651700
N -19.017100 -14.760500 -37.083400
C -18.963100 -15.775700 -32.992200
N -18.930800 -13.499700 -36.847100
H -18.548700 -16.802500 -31.275800
H -18.416500 -16.350300 -33.564500
96
Fragment
H -25.821600 -17.142200 -25.057700
N -25.812600 -17.591800 -27.445300
N -25.371400 -17.992500 -28.622100
C -24.893900 -17.392300 -25.196700
N -24.810200 -17.740400 -26.614900
H -24.777700 -14.906600 -26.152100
H -24.730400 -22.089100 -32.364800
H -24.616600 -18.195700 -24.682000
H -24.483200 -23.819700 -30.793000
C -24.372100 -21.907000 -31.497800
C -24.194400 -22.913800 -30.579900
H -24.183800 -19.904800 -31.825700
C -24.123300 -15.005300 -25.472700
C -24.090300 -18.365000 -28.436800
C -24.047800 -20.607900 -31.162000
C -23.981700 -16.242400 -24.849100
N -23.707600 -18.218500 -27.180300
C -23.696800 -22.619300 -29.324000
H -23.566000 -23.319300 -28.676700
C -23.560400 -20.302700 -29.912000
H -23.418700 -13.107900 -25.567700
C -23.383300 -21.321000 -28.988900
C -23.316000 -13.944900 -25.120300
H -23.307700 -18.276000 -30.299300
C -23.219700 -18.873500 -29.534900
H -23.018000 -21.134300 -28.101400
C -23.008900 -16.387800 -23.877600
H -22.887400 -17.253100 -23.447800
C -22.353800 -14.078100 -24.128200
H -22.285200 -18.835300 -29.223000
C -22.206400 -15.319000 -23.513300
H -22.159400 -13.184500 -21.718100
C -21.616200 -12.612900 -22.282600
C -21.561600 -12.915900 -23.638900
H -21.555500 -15.455900 -22.812500
H -21.021800 -11.326900 -20.828800
C -20.941600 -11.531900 -21.754000
C -20.775000 -12.095800 -24.465400
H -20.628100 -10.553400 -26.731100
C -20.553600 -12.380400 -25.893300
N -20.455700 -11.445400 -26.837100
N -20.314900 -13.544000 -26.463200
C -20.187300 -10.720900 -22.576800
N -20.156000 -12.017000 -28.008500
C -20.101900 -11.001700 -23.917300
N -20.069700 -13.277800 -27.772200
H -19.687600 -9.975000 -22.200900
H -19.555400 -10.427100 -24.489600
H -24.682800 -9.635300 -34.132600
N -24.673700 -9.185700 -36.520200
N -24.232500 -8.785000 -37.697000
C -23.755000 -9.385100 -34.271600
N -23.671400 -9.037000 -35.689800
H -23.638800 -11.870800 -35.227000
H -23.591500 -4.688300 -41.439700
H -23.477800 -8.581800 -33.756900
H -23.344300 -2.957800 -39.867900
C -23.233300 -4.870400 -40.572700
C -23.055500 -3.863600 -39.654800
H -23.044900 -6.872600 -40.900700
C -22.984400 -11.772100 -34.547700
C -22.951500 -8.412400 -37.511700
C -22.908900 -6.169500 -40.236900
C -22.842800 -10.535000 -33.924000
N -22.568700 -8.559000 -36.255200
C -22.558000 -4.158200 -38.398900
H -22.427100 -3.458100 -37.751700
C -22.421600 -6.474800 -38.986900
H -22.279800 -13.669500 -34.642600
C -22.244400 -5.456500 -38.063800
C -22.177100 -12.832500 -34.195200
H -22.168900 -8.501500 -39.374300
C -22.080800 -7.903900 -38.609800
H -21.879200 -5.643200 -37.176300
C -21.870000 -10.389700 -32.952500
H -21.748500 -9.524400 -32.522700
C -21.215000 -12.699400 -33.203100
H -21.146300 -7.942200 -38.298000
C -21.067600 -11.458500 -32.588200
H -21.020600 -13.593000 -30.793000
C -20.477400 -14.164500 -31.357500
C -20.422800 -13.861500 -32.713800
H -20.416600 -11.321500 -31.887400
H -19.883000 -15.450600 -29.903700
C -19.802700 -15.245500 -30.828900
C -19.636100 -14.681700 -33.540400
H -19.489300 -16.224100 -35.806000
C -19.414700 -14.397100 -34.968200
N -19.316800 -15.332000 -35.912000
N -19.176000 -13.233400 -35.538100
C -19.048500 -16.056500 -31.651700
N -19.017100 -14.760500 -37.083400
C -18.963100 -15.775700 -32.992200
N -18.930800 -13.499700 -36.847100
H -18.548700 -16.802500 -31.275800
H -18.416500 -16.350300 -33.564500
