48
Fragment
H -25.821600 -17.142200 -25.057700
N -25.812600 -17.591800 -27.445300
N -25.371400 -17.992500 -28.622100
C -24.893900 -17.392300 -25.196700
N -24.810200 -17.740400 -26.614900
H -24.777700 -14.906600 -26.152100
H -24.730400 -22.089100 -32.364800
H -24.616600 -18.195700 -24.682000
H -24.483200 -23.819700 -30.793000
C -24.372100 -21.907000 -31.497800
C -24.194400 -22.913800 -30.579900
H -24.183800 -19.904800 -31.825700
C -24.123300 -15.005300 -25.472700
C -24.090300 -18.365000 -28.436800
C -24.047800 -20.607900 -31.162000
C -23.981700 -16.242400 -24.849100
N -23.707600 -18.218500 -27.180300
C -23.696800 -22.619300 -29.324000
H -23.566000 -23.319300 -28.676700
C -23.560400 -20.302700 -29.912000
H -23.418700 -13.107900 -25.567700
C -23.383300 -21.321000 -28.988900
C -23.316000 -13.944900 -25.120300
H -23.307700 -18.276000 -30.299300
C -23.219700 -18.873500 -29.534900
H -23.018000 -21.134300 -28.101400
C -23.008900 -16.387800 -23.877600
H -22.887400 -17.253100 -23.447800
C -22.353800 -14.078100 -24.128200
H -22.285200 -18.835300 -29.223000
C -22.206400 -15.319000 -23.513300
H -22.159400 -13.184500 -21.718100
C -21.616200 -12.612900 -22.282600
C -21.561600 -12.915900 -23.638900
H -21.555500 -15.455900 -22.812500
H -21.021800 -11.326900 -20.828800
C -20.941600 -11.531900 -21.754000
C -20.775000 -12.095800 -24.465400
H -20.628100 -10.553400 -26.731100
C -20.553600 -12.380400 -25.893300
N -20.455700 -11.445400 -26.837100
N -20.314900 -13.544000 -26.463200
C -20.187300 -10.720900 -22.576800
N -20.156000 -12.017000 -28.008500
C -20.101900 -11.001700 -23.917300
N -20.069700 -13.277800 -27.772200
H -19.687600 -9.975000 -22.200900
H -19.555400 -10.427100 -24.489600
48
Fragment
H -31.536100 -14.252500 -39.034900
H -31.404000 -13.800300 -41.323500
N -31.021800 -17.103100 -35.752300
C -30.989600 -14.827100 -39.607100
N -30.935600 -15.842300 -35.516000
C -30.904200 -14.546300 -40.947700
N -30.776600 -17.369400 -37.061200
N -30.635900 -15.270800 -36.687400
C -30.538000 -16.205700 -37.631100
H -30.463400 -14.378700 -36.793300
C -30.316500 -15.921100 -39.059000
C -30.149900 -15.357300 -41.770400
H -30.069700 -15.152200 -42.695700
H -29.536000 -19.281300 -40.711900
C -29.529900 -16.741300 -39.885500
C -29.475300 -16.438300 -41.241900
H -28.932100 -17.009800 -41.806300
C -28.885100 -19.144300 -40.011100
H -28.806400 -22.660600 -34.301400
C -28.737700 -17.903400 -39.396200
H -28.204100 -21.078400 -40.076700
C -28.082700 -20.213100 -39.646900
H -28.073500 -24.959600 -35.423000
C -27.871800 -22.698900 -33.989600
H -27.783800 -22.101300 -33.225100
C -27.775600 -17.770300 -38.404100
C -27.708200 -25.146300 -34.535500
H -27.672800 -16.933300 -37.956800
C -27.531100 -24.128000 -33.612400
H -27.525500 -27.144700 -34.847700
C -27.394700 -26.444600 -34.200500
N -27.383900 -22.043800 -36.344100
C -27.109900 -20.067800 -38.675300
C -27.043700 -24.433300 -32.362400
C -27.001200 -22.190400 -35.087600
C -26.968200 -18.830700 -38.051700
H -26.907800 -23.730200 -31.698700
C -26.897200 -26.739200 -32.944500
C -26.719400 -25.732400 -32.026700
H -26.608400 -27.645000 -32.731400
H -26.474900 -22.021000 -38.842500
H -26.361200 -25.914500 -31.159600
H -26.313900 -18.732000 -37.372300
N -26.281300 -21.565800 -36.909500
C -26.197700 -21.217700 -38.327700
N -25.720200 -21.817800 -34.902300
N -25.278900 -21.417100 -36.079100
H -25.269900 -20.967500 -38.466800
96
Fragment
H -25.821600 -17.142200 -25.057700
N -25.812600 -17.591800 -27.445300
N -25.371400 -17.992500 -28.622100
C -24.893900 -17.392300 -25.196700
N -24.810200 -17.740400 -26.614900
H -24.777700 -14.906600 -26.152100
H -24.730400 -22.089100 -32.364800
H -24.616600 -18.195700 -24.682000
H -24.483200 -23.819700 -30.793000
C -24.372100 -21.907000 -31.497800
C -24.194400 -22.913800 -30.579900
H -24.183800 -19.904800 -31.825700
C -24.123300 -15.005300 -25.472700
C -24.090300 -18.365000 -28.436800
C -24.047800 -20.607900 -31.162000
C -23.981700 -16.242400 -24.849100
N -23.707600 -18.218500 -27.180300
C -23.696800 -22.619300 -29.324000
H -23.566000 -23.319300 -28.676700
C -23.560400 -20.302700 -29.912000
H -23.418700 -13.107900 -25.567700
C -23.383300 -21.321000 -28.988900
C -23.316000 -13.944900 -25.120300
H -23.307700 -18.276000 -30.299300
C -23.219700 -18.873500 -29.534900
H -23.018000 -21.134300 -28.101400
C -23.008900 -16.387800 -23.877600
H -22.887400 -17.253100 -23.447800
C -22.353800 -14.078100 -24.128200
H -22.285200 -18.835300 -29.223000
C -22.206400 -15.319000 -23.513300
H -22.159400 -13.184500 -21.718100
C -21.616200 -12.612900 -22.282600
C -21.561600 -12.915900 -23.638900
H -21.555500 -15.455900 -22.812500
H -21.021800 -11.326900 -20.828800
C -20.941600 -11.531900 -21.754000
C -20.775000 -12.095800 -24.465400
H -20.628100 -10.553400 -26.731100
C -20.553600 -12.380400 -25.893300
N -20.455700 -11.445400 -26.837100
N -20.314900 -13.544000 -26.463200
C -20.187300 -10.720900 -22.576800
N -20.156000 -12.017000 -28.008500
C -20.101900 -11.001700 -23.917300
N -20.069700 -13.277800 -27.772200
H -19.687600 -9.975000 -22.200900
H -19.555400 -10.427100 -24.489600
H -31.536100 -14.252500 -39.034900
H -31.404000 -13.800300 -41.323500
N -31.021800 -17.103100 -35.752300
C -30.989600 -14.827100 -39.607100
N -30.935600 -15.842300 -35.516000
C -30.904200 -14.546300 -40.947700
N -30.776600 -17.369400 -37.061200
N -30.635900 -15.270800 -36.687400
C -30.538000 -16.205700 -37.631100
H -30.463400 -14.378700 -36.793300
C -30.316500 -15.921100 -39.059000
C -30.149900 -15.357300 -41.770400
H -30.069700 -15.152200 -42.695700
H -29.536000 -19.281300 -40.711900
C -29.529900 -16.741300 -39.885500
C -29.475300 -16.438300 -41.241900
H -28.932100 -17.009800 -41.806300
C -28.885100 -19.144300 -40.011100
H -28.806400 -22.660600 -34.301400
C -28.737700 -17.903400 -39.396200
H -28.204100 -21.078400 -40.076700
C -28.082700 -20.213100 -39.646900
H -28.073500 -24.959600 -35.423000
C -27.871800 -22.698900 -33.989600
H -27.783800 -22.101300 -33.225100
C -27.775600 -17.770300 -38.404100
C -27.708200 -25.146300 -34.535500
H -27.672800 -16.933300 -37.956800
C -27.531100 -24.128000 -33.612400
H -27.525500 -27.144700 -34.847700
C -27.394700 -26.444600 -34.200500
N -27.383900 -22.043800 -36.344100
C -27.109900 -20.067800 -38.675300
C -27.043700 -24.433300 -32.362400
C -27.001200 -22.190400 -35.087600
C -26.968200 -18.830700 -38.051700
H -26.907800 -23.730200 -31.698700
C -26.897200 -26.739200 -32.944500
C -26.719400 -25.732400 -32.026700
H -26.608400 -27.645000 -32.731400
H -26.474900 -22.021000 -38.842500
H -26.361200 -25.914500 -31.159600
H -26.313900 -18.732000 -37.372300
N -26.281300 -21.565800 -36.909500
C -26.197700 -21.217700 -38.327700
N -25.720200 -21.817800 -34.902300
N -25.278900 -21.417100 -36.079100
H -25.269900 -20.967500 -38.466800
