48
Fragment
H -25.821600 -17.142200 -25.057700
N -25.812600 -17.591800 -27.445300
N -25.371400 -17.992500 -28.622100
C -24.893900 -17.392300 -25.196700
N -24.810200 -17.740400 -26.614900
H -24.777700 -14.906600 -26.152100
H -24.730400 -22.089100 -32.364800
H -24.616600 -18.195700 -24.682000
H -24.483200 -23.819700 -30.793000
C -24.372100 -21.907000 -31.497800
C -24.194400 -22.913800 -30.579900
H -24.183800 -19.904800 -31.825700
C -24.123300 -15.005300 -25.472700
C -24.090300 -18.365000 -28.436800
C -24.047800 -20.607900 -31.162000
C -23.981700 -16.242400 -24.849100
N -23.707600 -18.218500 -27.180300
C -23.696800 -22.619300 -29.324000
H -23.566000 -23.319300 -28.676700
C -23.560400 -20.302700 -29.912000
H -23.418700 -13.107900 -25.567700
C -23.383300 -21.321000 -28.988900
C -23.316000 -13.944900 -25.120300
H -23.307700 -18.276000 -30.299300
C -23.219700 -18.873500 -29.534900
H -23.018000 -21.134300 -28.101400
C -23.008900 -16.387800 -23.877600
H -22.887400 -17.253100 -23.447800
C -22.353800 -14.078100 -24.128200
H -22.285200 -18.835300 -29.223000
C -22.206400 -15.319000 -23.513300
H -22.159400 -13.184500 -21.718100
C -21.616200 -12.612900 -22.282600
C -21.561600 -12.915900 -23.638900
H -21.555500 -15.455900 -22.812500
H -21.021800 -11.326900 -20.828800
C -20.941600 -11.531900 -21.754000
C -20.775000 -12.095800 -24.465400
H -20.628100 -10.553400 -26.731100
C -20.553600 -12.380400 -25.893300
N -20.455700 -11.445400 -26.837100
N -20.314900 -13.544000 -26.463200
C -20.187300 -10.720900 -22.576800
N -20.156000 -12.017000 -28.008500
C -20.101900 -11.001700 -23.917300
N -20.069700 -13.277800 -27.772200
H -19.687600 -9.975000 -22.200900
H -19.555400 -10.427100 -24.489600
48
Fragment
H -19.048000 -6.601800 -20.885000
H -18.915800 -6.149600 -23.173700
N -18.533700 -9.452400 -17.602400
C -18.501400 -7.176400 -21.457300
N -18.447400 -8.191600 -17.366100
C -18.416000 -6.895600 -22.797800
N -18.288500 -9.718700 -18.911400
N -18.147700 -7.620100 -18.537500
C -18.049800 -8.555000 -19.481300
H -17.975200 -6.728000 -18.643500
C -17.828400 -8.270400 -20.909200
C -17.661800 -7.706600 -23.620600
H -17.581500 -7.501500 -24.545800
H -17.047900 -11.630600 -22.562100
C -17.041700 -9.090600 -21.735700
C -16.987100 -8.787600 -23.092000
H -16.443900 -9.359100 -23.656500
C -16.396900 -11.493600 -21.861300
H -16.318200 -15.009900 -16.151500
C -16.249500 -10.252700 -21.246400
H -15.716000 -13.427700 -21.926800
C -15.594500 -12.562400 -21.497000
H -15.585300 -17.308900 -17.273200
C -15.383700 -15.048200 -15.839700
H -15.295600 -14.450600 -15.075300
C -15.287400 -10.119600 -20.254300
C -15.220100 -17.495600 -16.385700
H -15.184700 -9.282600 -19.806900
C -15.043000 -16.477300 -15.462600
H -15.037400 -19.494000 -16.697800
C -14.906500 -18.793900 -16.050600
N -14.895800 -14.393100 -18.194300
C -14.621700 -12.417100 -20.525500
C -14.555600 -16.782600 -14.212600
C -14.513000 -14.539700 -16.937800
C -14.480100 -11.180000 -19.901800
H -14.419600 -16.079500 -13.548900
C -14.409000 -19.088500 -14.794700
C -14.231200 -18.081700 -13.876800
H -14.120200 -19.994300 -14.581600
H -13.986700 -14.370300 -20.692600
H -13.873000 -18.263800 -13.009800
H -13.825700 -11.081300 -19.222500
N -13.793100 -13.915100 -18.759700
C -13.709500 -13.567000 -20.177900
N -13.232000 -14.167100 -16.752500
N -12.790800 -13.766400 -17.929300
H -12.781700 -13.316800 -20.316900
96
Fragment
H -25.821600 -17.142200 -25.057700
N -25.812600 -17.591800 -27.445300
N -25.371400 -17.992500 -28.622100
C -24.893900 -17.392300 -25.196700
N -24.810200 -17.740400 -26.614900
H -24.777700 -14.906600 -26.152100
H -24.730400 -22.089100 -32.364800
H -24.616600 -18.195700 -24.682000
H -24.483200 -23.819700 -30.793000
C -24.372100 -21.907000 -31.497800
C -24.194400 -22.913800 -30.579900
H -24.183800 -19.904800 -31.825700
C -24.123300 -15.005300 -25.472700
C -24.090300 -18.365000 -28.436800
C -24.047800 -20.607900 -31.162000
C -23.981700 -16.242400 -24.849100
N -23.707600 -18.218500 -27.180300
C -23.696800 -22.619300 -29.324000
H -23.566000 -23.319300 -28.676700
C -23.560400 -20.302700 -29.912000
H -23.418700 -13.107900 -25.567700
C -23.383300 -21.321000 -28.988900
C -23.316000 -13.944900 -25.120300
H -23.307700 -18.276000 -30.299300
C -23.219700 -18.873500 -29.534900
H -23.018000 -21.134300 -28.101400
C -23.008900 -16.387800 -23.877600
H -22.887400 -17.253100 -23.447800
C -22.353800 -14.078100 -24.128200
H -22.285200 -18.835300 -29.223000
C -22.206400 -15.319000 -23.513300
H -22.159400 -13.184500 -21.718100
C -21.616200 -12.612900 -22.282600
C -21.561600 -12.915900 -23.638900
H -21.555500 -15.455900 -22.812500
H -21.021800 -11.326900 -20.828800
C -20.941600 -11.531900 -21.754000
C -20.775000 -12.095800 -24.465400
H -20.628100 -10.553400 -26.731100
C -20.553600 -12.380400 -25.893300
N -20.455700 -11.445400 -26.837100
N -20.314900 -13.544000 -26.463200
C -20.187300 -10.720900 -22.576800
N -20.156000 -12.017000 -28.008500
C -20.101900 -11.001700 -23.917300
N -20.069700 -13.277800 -27.772200
H -19.687600 -9.975000 -22.200900
H -19.555400 -10.427100 -24.489600
H -19.048000 -6.601800 -20.885000
H -18.915800 -6.149600 -23.173700
N -18.533700 -9.452400 -17.602400
C -18.501400 -7.176400 -21.457300
N -18.447400 -8.191600 -17.366100
C -18.416000 -6.895600 -22.797800
N -18.288500 -9.718700 -18.911400
N -18.147700 -7.620100 -18.537500
C -18.049800 -8.555000 -19.481300
H -17.975200 -6.728000 -18.643500
C -17.828400 -8.270400 -20.909200
C -17.661800 -7.706600 -23.620600
H -17.581500 -7.501500 -24.545800
H -17.047900 -11.630600 -22.562100
C -17.041700 -9.090600 -21.735700
C -16.987100 -8.787600 -23.092000
H -16.443900 -9.359100 -23.656500
C -16.396900 -11.493600 -21.861300
H -16.318200 -15.009900 -16.151500
C -16.249500 -10.252700 -21.246400
H -15.716000 -13.427700 -21.926800
C -15.594500 -12.562400 -21.497000
H -15.585300 -17.308900 -17.273200
C -15.383700 -15.048200 -15.839700
H -15.295600 -14.450600 -15.075300
C -15.287400 -10.119600 -20.254300
C -15.220100 -17.495600 -16.385700
H -15.184700 -9.282600 -19.806900
C -15.043000 -16.477300 -15.462600
H -15.037400 -19.494000 -16.697800
C -14.906500 -18.793900 -16.050600
N -14.895800 -14.393100 -18.194300
C -14.621700 -12.417100 -20.525500
C -14.555600 -16.782600 -14.212600
C -14.513000 -14.539700 -16.937800
C -14.480100 -11.180000 -19.901800
H -14.419600 -16.079500 -13.548900
C -14.409000 -19.088500 -14.794700
C -14.231200 -18.081700 -13.876800
H -14.120200 -19.994300 -14.581600
H -13.986700 -14.370300 -20.692600
H -13.873000 -18.263800 -13.009800
H -13.825700 -11.081300 -19.222500
N -13.793100 -13.915100 -18.759700
C -13.709500 -13.567000 -20.177900
N -13.232000 -14.167100 -16.752500
N -12.790800 -13.766400 -17.929300
H -12.781700 -13.316800 -20.316900
