48
Fragment
H -25.821600 -17.142200 -25.057700
N -25.812600 -17.591800 -27.445300
N -25.371400 -17.992500 -28.622100
C -24.893900 -17.392300 -25.196700
N -24.810200 -17.740400 -26.614900
H -24.777700 -14.906600 -26.152100
H -24.730400 -22.089100 -32.364800
H -24.616600 -18.195700 -24.682000
H -24.483200 -23.819700 -30.793000
C -24.372100 -21.907000 -31.497800
C -24.194400 -22.913800 -30.579900
H -24.183800 -19.904800 -31.825700
C -24.123300 -15.005300 -25.472700
C -24.090300 -18.365000 -28.436800
C -24.047800 -20.607900 -31.162000
C -23.981700 -16.242400 -24.849100
N -23.707600 -18.218500 -27.180300
C -23.696800 -22.619300 -29.324000
H -23.566000 -23.319300 -28.676700
C -23.560400 -20.302700 -29.912000
H -23.418700 -13.107900 -25.567700
C -23.383300 -21.321000 -28.988900
C -23.316000 -13.944900 -25.120300
H -23.307700 -18.276000 -30.299300
C -23.219700 -18.873500 -29.534900
H -23.018000 -21.134300 -28.101400
C -23.008900 -16.387800 -23.877600
H -22.887400 -17.253100 -23.447800
C -22.353800 -14.078100 -24.128200
H -22.285200 -18.835300 -29.223000
C -22.206400 -15.319000 -23.513300
H -22.159400 -13.184500 -21.718100
C -21.616200 -12.612900 -22.282600
C -21.561600 -12.915900 -23.638900
H -21.555500 -15.455900 -22.812500
H -21.021800 -11.326900 -20.828800
C -20.941600 -11.531900 -21.754000
C -20.775000 -12.095800 -24.465400
H -20.628100 -10.553400 -26.731100
C -20.553600 -12.380400 -25.893300
N -20.455700 -11.445400 -26.837100
N -20.314900 -13.544000 -26.463200
C -20.187300 -10.720900 -22.576800
N -20.156000 -12.017000 -28.008500
C -20.101900 -11.001700 -23.917300
N -20.069700 -13.277800 -27.772200
H -19.687600 -9.975000 -22.200900
H -19.555400 -10.427100 -24.489600
48
Fragment
H -24.682800 -24.936700 -34.132600
N -24.673700 -24.487100 -36.520200
N -24.232500 -24.086400 -37.697000
C -23.755000 -24.686500 -34.271600
N -23.671400 -24.338400 -35.689800
H -23.638800 -27.172200 -35.227000
H -23.591500 -19.989700 -41.439700
H -23.477800 -23.883200 -33.756900
H -23.344300 -18.259200 -39.867900
C -23.233300 -20.171800 -40.572700
C -23.055500 -19.165000 -39.654800
H -23.044900 -22.174000 -40.900700
C -22.984400 -27.073500 -34.547700
C -22.951500 -23.713800 -37.511700
C -22.908900 -21.470900 -40.236900
C -22.842800 -25.836400 -33.924000
N -22.568700 -23.860400 -36.255200
C -22.558000 -19.459600 -38.398900
H -22.427100 -18.759500 -37.751700
C -22.421600 -21.776200 -38.986900
H -22.279800 -28.970900 -34.642600
C -22.244400 -20.757900 -38.063800
C -22.177100 -28.133900 -34.195200
H -22.168900 -23.802900 -39.374300
C -22.080800 -23.205300 -38.609800
H -21.879200 -20.944600 -37.176300
C -21.870000 -25.691100 -32.952500
H -21.748500 -24.825800 -32.522700
C -21.215000 -28.000800 -33.203100
H -21.146300 -23.243600 -38.298000
C -21.067600 -26.759900 -32.588200
H -21.020600 -28.894400 -30.793000
C -20.477400 -29.465900 -31.357500
C -20.422800 -29.162900 -32.713800
H -20.416600 -26.622900 -31.887400
H -19.883000 -30.752000 -29.903700
C -19.802700 -30.546900 -30.828900
C -19.636100 -29.983100 -33.540400
H -19.489300 -31.525500 -35.806000
C -19.414700 -29.698500 -34.968200
N -19.316800 -30.633400 -35.912000
N -19.176000 -28.534800 -35.538100
C -19.048500 -31.357900 -31.651700
N -19.017100 -30.061900 -37.083400
C -18.963100 -31.077100 -32.992200
N -18.930800 -28.801100 -36.847100
H -18.548700 -32.103900 -31.275800
H -18.416500 -31.651700 -33.564500
96
Fragment
H -25.821600 -17.142200 -25.057700
N -25.812600 -17.591800 -27.445300
N -25.371400 -17.992500 -28.622100
C -24.893900 -17.392300 -25.196700
N -24.810200 -17.740400 -26.614900
H -24.777700 -14.906600 -26.152100
H -24.730400 -22.089100 -32.364800
H -24.616600 -18.195700 -24.682000
H -24.483200 -23.819700 -30.793000
C -24.372100 -21.907000 -31.497800
C -24.194400 -22.913800 -30.579900
H -24.183800 -19.904800 -31.825700
C -24.123300 -15.005300 -25.472700
C -24.090300 -18.365000 -28.436800
C -24.047800 -20.607900 -31.162000
C -23.981700 -16.242400 -24.849100
N -23.707600 -18.218500 -27.180300
C -23.696800 -22.619300 -29.324000
H -23.566000 -23.319300 -28.676700
C -23.560400 -20.302700 -29.912000
H -23.418700 -13.107900 -25.567700
C -23.383300 -21.321000 -28.988900
C -23.316000 -13.944900 -25.120300
H -23.307700 -18.276000 -30.299300
C -23.219700 -18.873500 -29.534900
H -23.018000 -21.134300 -28.101400
C -23.008900 -16.387800 -23.877600
H -22.887400 -17.253100 -23.447800
C -22.353800 -14.078100 -24.128200
H -22.285200 -18.835300 -29.223000
C -22.206400 -15.319000 -23.513300
H -22.159400 -13.184500 -21.718100
C -21.616200 -12.612900 -22.282600
C -21.561600 -12.915900 -23.638900
H -21.555500 -15.455900 -22.812500
H -21.021800 -11.326900 -20.828800
C -20.941600 -11.531900 -21.754000
C -20.775000 -12.095800 -24.465400
H -20.628100 -10.553400 -26.731100
C -20.553600 -12.380400 -25.893300
N -20.455700 -11.445400 -26.837100
N -20.314900 -13.544000 -26.463200
C -20.187300 -10.720900 -22.576800
N -20.156000 -12.017000 -28.008500
C -20.101900 -11.001700 -23.917300
N -20.069700 -13.277800 -27.772200
H -19.687600 -9.975000 -22.200900
H -19.555400 -10.427100 -24.489600
H -24.682800 -24.936700 -34.132600
N -24.673700 -24.487100 -36.520200
N -24.232500 -24.086400 -37.697000
C -23.755000 -24.686500 -34.271600
N -23.671400 -24.338400 -35.689800
H -23.638800 -27.172200 -35.227000
H -23.591500 -19.989700 -41.439700
H -23.477800 -23.883200 -33.756900
H -23.344300 -18.259200 -39.867900
C -23.233300 -20.171800 -40.572700
C -23.055500 -19.165000 -39.654800
H -23.044900 -22.174000 -40.900700
C -22.984400 -27.073500 -34.547700
C -22.951500 -23.713800 -37.511700
C -22.908900 -21.470900 -40.236900
C -22.842800 -25.836400 -33.924000
N -22.568700 -23.860400 -36.255200
C -22.558000 -19.459600 -38.398900
H -22.427100 -18.759500 -37.751700
C -22.421600 -21.776200 -38.986900
H -22.279800 -28.970900 -34.642600
C -22.244400 -20.757900 -38.063800
C -22.177100 -28.133900 -34.195200
H -22.168900 -23.802900 -39.374300
C -22.080800 -23.205300 -38.609800
H -21.879200 -20.944600 -37.176300
C -21.870000 -25.691100 -32.952500
H -21.748500 -24.825800 -32.522700
C -21.215000 -28.000800 -33.203100
H -21.146300 -23.243600 -38.298000
C -21.067600 -26.759900 -32.588200
H -21.020600 -28.894400 -30.793000
C -20.477400 -29.465900 -31.357500
C -20.422800 -29.162900 -32.713800
H -20.416600 -26.622900 -31.887400
H -19.883000 -30.752000 -29.903700
C -19.802700 -30.546900 -30.828900
C -19.636100 -29.983100 -33.540400
H -19.489300 -31.525500 -35.806000
C -19.414700 -29.698500 -34.968200
N -19.316800 -30.633400 -35.912000
N -19.176000 -28.534800 -35.538100
C -19.048500 -31.357900 -31.651700
N -19.017100 -30.061900 -37.083400
C -18.963100 -31.077100 -32.992200
N -18.930800 -28.801100 -36.847100
H -18.548700 -32.103900 -31.275800
H -18.416500 -31.651700 -33.564500
