48
Fragment
H -25.821600 -17.142200 -25.057700
N -25.812600 -17.591800 -27.445300
N -25.371400 -17.992500 -28.622100
C -24.893900 -17.392300 -25.196700
N -24.810200 -17.740400 -26.614900
H -24.777700 -14.906600 -26.152100
H -24.730400 -22.089100 -32.364800
H -24.616600 -18.195700 -24.682000
H -24.483200 -23.819700 -30.793000
C -24.372100 -21.907000 -31.497800
C -24.194400 -22.913800 -30.579900
H -24.183800 -19.904800 -31.825700
C -24.123300 -15.005300 -25.472700
C -24.090300 -18.365000 -28.436800
C -24.047800 -20.607900 -31.162000
C -23.981700 -16.242400 -24.849100
N -23.707600 -18.218500 -27.180300
C -23.696800 -22.619300 -29.324000
H -23.566000 -23.319300 -28.676700
C -23.560400 -20.302700 -29.912000
H -23.418700 -13.107900 -25.567700
C -23.383300 -21.321000 -28.988900
C -23.316000 -13.944900 -25.120300
H -23.307700 -18.276000 -30.299300
C -23.219700 -18.873500 -29.534900
H -23.018000 -21.134300 -28.101400
C -23.008900 -16.387800 -23.877600
H -22.887400 -17.253100 -23.447800
C -22.353800 -14.078100 -24.128200
H -22.285200 -18.835300 -29.223000
C -22.206400 -15.319000 -23.513300
H -22.159400 -13.184500 -21.718100
C -21.616200 -12.612900 -22.282600
C -21.561600 -12.915900 -23.638900
H -21.555500 -15.455900 -22.812500
H -21.021800 -11.326900 -20.828800
C -20.941600 -11.531900 -21.754000
C -20.775000 -12.095800 -24.465400
H -20.628100 -10.553400 -26.731100
C -20.553600 -12.380400 -25.893300
N -20.455700 -11.445400 -26.837100
N -20.314900 -13.544000 -26.463200
C -20.187300 -10.720900 -22.576800
N -20.156000 -12.017000 -28.008500
C -20.101900 -11.001700 -23.917300
N -20.069700 -13.277800 -27.772200
H -19.687600 -9.975000 -22.200900
H -19.555400 -10.427100 -24.489600
48
Fragment
H -25.821600 -24.792900 -25.057700
N -25.812600 -25.242500 -27.445300
N -25.371400 -25.643200 -28.622100
C -24.893900 -25.043000 -25.196700
N -24.810200 -25.391100 -26.614900
H -24.777700 -22.557300 -26.152100
H -24.730400 -29.739800 -32.364800
H -24.616600 -25.846400 -24.682000
H -24.483200 -31.470400 -30.793000
C -24.372100 -29.557700 -31.497800
C -24.194400 -30.564500 -30.579900
H -24.183800 -27.555500 -31.825700
C -24.123300 -22.656000 -25.472700
C -24.090300 -26.015700 -28.436800
C -24.047800 -28.258600 -31.162000
C -23.981700 -23.893100 -24.849100
N -23.707600 -25.869200 -27.180300
C -23.696800 -30.270000 -29.324000
H -23.566000 -30.970000 -28.676700
C -23.560400 -27.953400 -29.912000
H -23.418700 -20.758600 -25.567700
C -23.383300 -28.971700 -28.988900
C -23.316000 -21.595600 -25.120300
H -23.307700 -25.926700 -30.299300
C -23.219700 -26.524200 -29.534900
H -23.018000 -28.785000 -28.101400
C -23.008900 -24.038500 -23.877600
H -22.887400 -24.903800 -23.447800
C -22.353800 -21.728800 -24.128200
H -22.285200 -26.486000 -29.223000
C -22.206400 -22.969700 -23.513300
H -22.159400 -20.835200 -21.718100
C -21.616200 -20.263600 -22.282600
C -21.561600 -20.566600 -23.638900
H -21.555500 -23.106600 -22.812500
H -21.021800 -18.977600 -20.828800
C -20.941600 -19.182600 -21.754000
C -20.775000 -19.746500 -24.465400
H -20.628100 -18.204100 -26.731100
C -20.553600 -20.031100 -25.893300
N -20.455700 -19.096100 -26.837100
N -20.314900 -21.194700 -26.463200
C -20.187300 -18.371600 -22.576800
N -20.156000 -19.667700 -28.008500
C -20.101900 -18.652400 -23.917300
N -20.069700 -20.928500 -27.772200
H -19.687600 -17.625700 -22.200900
H -19.555400 -18.077800 -24.489600
96
Fragment
H -25.821600 -17.142200 -25.057700
N -25.812600 -17.591800 -27.445300
N -25.371400 -17.992500 -28.622100
C -24.893900 -17.392300 -25.196700
N -24.810200 -17.740400 -26.614900
H -24.777700 -14.906600 -26.152100
H -24.730400 -22.089100 -32.364800
H -24.616600 -18.195700 -24.682000
H -24.483200 -23.819700 -30.793000
C -24.372100 -21.907000 -31.497800
C -24.194400 -22.913800 -30.579900
H -24.183800 -19.904800 -31.825700
C -24.123300 -15.005300 -25.472700
C -24.090300 -18.365000 -28.436800
C -24.047800 -20.607900 -31.162000
C -23.981700 -16.242400 -24.849100
N -23.707600 -18.218500 -27.180300
C -23.696800 -22.619300 -29.324000
H -23.566000 -23.319300 -28.676700
C -23.560400 -20.302700 -29.912000
H -23.418700 -13.107900 -25.567700
C -23.383300 -21.321000 -28.988900
C -23.316000 -13.944900 -25.120300
H -23.307700 -18.276000 -30.299300
C -23.219700 -18.873500 -29.534900
H -23.018000 -21.134300 -28.101400
C -23.008900 -16.387800 -23.877600
H -22.887400 -17.253100 -23.447800
C -22.353800 -14.078100 -24.128200
H -22.285200 -18.835300 -29.223000
C -22.206400 -15.319000 -23.513300
H -22.159400 -13.184500 -21.718100
C -21.616200 -12.612900 -22.282600
C -21.561600 -12.915900 -23.638900
H -21.555500 -15.455900 -22.812500
H -21.021800 -11.326900 -20.828800
C -20.941600 -11.531900 -21.754000
C -20.775000 -12.095800 -24.465400
H -20.628100 -10.553400 -26.731100
C -20.553600 -12.380400 -25.893300
N -20.455700 -11.445400 -26.837100
N -20.314900 -13.544000 -26.463200
C -20.187300 -10.720900 -22.576800
N -20.156000 -12.017000 -28.008500
C -20.101900 -11.001700 -23.917300
N -20.069700 -13.277800 -27.772200
H -19.687600 -9.975000 -22.200900
H -19.555400 -10.427100 -24.489600
H -25.821600 -24.792900 -25.057700
N -25.812600 -25.242500 -27.445300
N -25.371400 -25.643200 -28.622100
C -24.893900 -25.043000 -25.196700
N -24.810200 -25.391100 -26.614900
H -24.777700 -22.557300 -26.152100
H -24.730400 -29.739800 -32.364800
H -24.616600 -25.846400 -24.682000
H -24.483200 -31.470400 -30.793000
C -24.372100 -29.557700 -31.497800
C -24.194400 -30.564500 -30.579900
H -24.183800 -27.555500 -31.825700
C -24.123300 -22.656000 -25.472700
C -24.090300 -26.015700 -28.436800
C -24.047800 -28.258600 -31.162000
C -23.981700 -23.893100 -24.849100
N -23.707600 -25.869200 -27.180300
C -23.696800 -30.270000 -29.324000
H -23.566000 -30.970000 -28.676700
C -23.560400 -27.953400 -29.912000
H -23.418700 -20.758600 -25.567700
C -23.383300 -28.971700 -28.988900
C -23.316000 -21.595600 -25.120300
H -23.307700 -25.926700 -30.299300
C -23.219700 -26.524200 -29.534900
H -23.018000 -28.785000 -28.101400
C -23.008900 -24.038500 -23.877600
H -22.887400 -24.903800 -23.447800
C -22.353800 -21.728800 -24.128200
H -22.285200 -26.486000 -29.223000
C -22.206400 -22.969700 -23.513300
H -22.159400 -20.835200 -21.718100
C -21.616200 -20.263600 -22.282600
C -21.561600 -20.566600 -23.638900
H -21.555500 -23.106600 -22.812500
H -21.021800 -18.977600 -20.828800
C -20.941600 -19.182600 -21.754000
C -20.775000 -19.746500 -24.465400
H -20.628100 -18.204100 -26.731100
C -20.553600 -20.031100 -25.893300
N -20.455700 -19.096100 -26.837100
N -20.314900 -21.194700 -26.463200
C -20.187300 -18.371600 -22.576800
N -20.156000 -19.667700 -28.008500
C -20.101900 -18.652400 -23.917300
N -20.069700 -20.928500 -27.772200
H -19.687600 -17.625700 -22.200900
H -19.555400 -18.077800 -24.489600
