48
Fragment
H -25.821600 -17.142200 -25.057700
N -25.812600 -17.591800 -27.445300
N -25.371400 -17.992500 -28.622100
C -24.893900 -17.392300 -25.196700
N -24.810200 -17.740400 -26.614900
H -24.777700 -14.906600 -26.152100
H -24.730400 -22.089100 -32.364800
H -24.616600 -18.195700 -24.682000
H -24.483200 -23.819700 -30.793000
C -24.372100 -21.907000 -31.497800
C -24.194400 -22.913800 -30.579900
H -24.183800 -19.904800 -31.825700
C -24.123300 -15.005300 -25.472700
C -24.090300 -18.365000 -28.436800
C -24.047800 -20.607900 -31.162000
C -23.981700 -16.242400 -24.849100
N -23.707600 -18.218500 -27.180300
C -23.696800 -22.619300 -29.324000
H -23.566000 -23.319300 -28.676700
C -23.560400 -20.302700 -29.912000
H -23.418700 -13.107900 -25.567700
C -23.383300 -21.321000 -28.988900
C -23.316000 -13.944900 -25.120300
H -23.307700 -18.276000 -30.299300
C -23.219700 -18.873500 -29.534900
H -23.018000 -21.134300 -28.101400
C -23.008900 -16.387800 -23.877600
H -22.887400 -17.253100 -23.447800
C -22.353800 -14.078100 -24.128200
H -22.285200 -18.835300 -29.223000
C -22.206400 -15.319000 -23.513300
H -22.159400 -13.184500 -21.718100
C -21.616200 -12.612900 -22.282600
C -21.561600 -12.915900 -23.638900
H -21.555500 -15.455900 -22.812500
H -21.021800 -11.326900 -20.828800
C -20.941600 -11.531900 -21.754000
C -20.775000 -12.095800 -24.465400
H -20.628100 -10.553400 -26.731100
C -20.553600 -12.380400 -25.893300
N -20.455700 -11.445400 -26.837100
N -20.314900 -13.544000 -26.463200
C -20.187300 -10.720900 -22.576800
N -20.156000 -12.017000 -28.008500
C -20.101900 -11.001700 -23.917300
N -20.069700 -13.277800 -27.772200
H -19.687600 -9.975000 -22.200900
H -19.555400 -10.427100 -24.489600
48
Fragment
H -32.675000 -27.826400 -29.959900
H -32.542800 -28.278500 -32.248600
N -32.160700 -24.975700 -26.677400
C -32.128500 -27.251800 -30.532200
N -32.074400 -26.236500 -26.441000
C -32.043100 -27.532600 -31.872700
N -31.915500 -24.709500 -27.986300
N -31.774700 -26.808100 -27.612400
C -31.676800 -25.873100 -28.556200
H -31.602300 -27.700100 -27.718400
C -31.455400 -26.157700 -29.984100
C -31.288800 -26.721600 -32.695500
H -31.208600 -26.926600 -33.620800
H -30.674900 -22.797600 -31.637000
C -30.668800 -25.337600 -30.810600
C -30.614200 -25.640600 -32.167000
H -30.071000 -25.069000 -32.731400
C -30.024000 -22.934500 -30.936200
H -29.945200 -19.418200 -25.226500
C -29.876600 -24.175400 -30.321300
H -29.343000 -21.000400 -31.001700
C -29.221500 -21.865700 -30.571900
H -29.212400 -17.119200 -26.348100
C -29.010700 -19.380000 -24.914600
H -28.922700 -19.977500 -24.150200
C -28.914400 -24.308600 -29.329200
C -28.847100 -16.932500 -25.460600
H -28.811700 -25.145600 -28.881800
C -28.670000 -17.950800 -24.537500
H -28.664400 -14.934200 -25.772800
C -28.533600 -15.634200 -25.125500
N -28.522800 -20.035000 -27.269200
C -28.248700 -22.011100 -29.600400
C -28.182600 -17.645600 -23.287500
C -28.140100 -19.888500 -26.012700
C -28.107100 -23.248200 -28.976800
H -28.046600 -18.348700 -22.623800
C -28.036000 -15.339700 -23.869600
C -27.858300 -16.346500 -22.951700
H -27.747200 -14.433800 -23.656500
H -27.613800 -20.057800 -29.767500
H -27.500000 -16.164400 -22.084700
H -27.452700 -23.346900 -28.297400
N -27.420200 -20.513100 -27.834600
C -27.336500 -20.861200 -29.252800
N -26.859100 -20.261000 -25.827400
N -26.417800 -20.661700 -27.004200
H -26.408800 -21.111300 -29.391800
96
Fragment
H -25.821600 -17.142200 -25.057700
N -25.812600 -17.591800 -27.445300
N -25.371400 -17.992500 -28.622100
C -24.893900 -17.392300 -25.196700
N -24.810200 -17.740400 -26.614900
H -24.777700 -14.906600 -26.152100
H -24.730400 -22.089100 -32.364800
H -24.616600 -18.195700 -24.682000
H -24.483200 -23.819700 -30.793000
C -24.372100 -21.907000 -31.497800
C -24.194400 -22.913800 -30.579900
H -24.183800 -19.904800 -31.825700
C -24.123300 -15.005300 -25.472700
C -24.090300 -18.365000 -28.436800
C -24.047800 -20.607900 -31.162000
C -23.981700 -16.242400 -24.849100
N -23.707600 -18.218500 -27.180300
C -23.696800 -22.619300 -29.324000
H -23.566000 -23.319300 -28.676700
C -23.560400 -20.302700 -29.912000
H -23.418700 -13.107900 -25.567700
C -23.383300 -21.321000 -28.988900
C -23.316000 -13.944900 -25.120300
H -23.307700 -18.276000 -30.299300
C -23.219700 -18.873500 -29.534900
H -23.018000 -21.134300 -28.101400
C -23.008900 -16.387800 -23.877600
H -22.887400 -17.253100 -23.447800
C -22.353800 -14.078100 -24.128200
H -22.285200 -18.835300 -29.223000
C -22.206400 -15.319000 -23.513300
H -22.159400 -13.184500 -21.718100
C -21.616200 -12.612900 -22.282600
C -21.561600 -12.915900 -23.638900
H -21.555500 -15.455900 -22.812500
H -21.021800 -11.326900 -20.828800
C -20.941600 -11.531900 -21.754000
C -20.775000 -12.095800 -24.465400
H -20.628100 -10.553400 -26.731100
C -20.553600 -12.380400 -25.893300
N -20.455700 -11.445400 -26.837100
N -20.314900 -13.544000 -26.463200
C -20.187300 -10.720900 -22.576800
N -20.156000 -12.017000 -28.008500
C -20.101900 -11.001700 -23.917300
N -20.069700 -13.277800 -27.772200
H -19.687600 -9.975000 -22.200900
H -19.555400 -10.427100 -24.489600
H -32.675000 -27.826400 -29.959900
H -32.542800 -28.278500 -32.248600
N -32.160700 -24.975700 -26.677400
C -32.128500 -27.251800 -30.532200
N -32.074400 -26.236500 -26.441000
C -32.043100 -27.532600 -31.872700
N -31.915500 -24.709500 -27.986300
N -31.774700 -26.808100 -27.612400
C -31.676800 -25.873100 -28.556200
H -31.602300 -27.700100 -27.718400
C -31.455400 -26.157700 -29.984100
C -31.288800 -26.721600 -32.695500
H -31.208600 -26.926600 -33.620800
H -30.674900 -22.797600 -31.637000
C -30.668800 -25.337600 -30.810600
C -30.614200 -25.640600 -32.167000
H -30.071000 -25.069000 -32.731400
C -30.024000 -22.934500 -30.936200
H -29.945200 -19.418200 -25.226500
C -29.876600 -24.175400 -30.321300
H -29.343000 -21.000400 -31.001700
C -29.221500 -21.865700 -30.571900
H -29.212400 -17.119200 -26.348100
C -29.010700 -19.380000 -24.914600
H -28.922700 -19.977500 -24.150200
C -28.914400 -24.308600 -29.329200
C -28.847100 -16.932500 -25.460600
H -28.811700 -25.145600 -28.881800
C -28.670000 -17.950800 -24.537500
H -28.664400 -14.934200 -25.772800
C -28.533600 -15.634200 -25.125500
N -28.522800 -20.035000 -27.269200
C -28.248700 -22.011100 -29.600400
C -28.182600 -17.645600 -23.287500
C -28.140100 -19.888500 -26.012700
C -28.107100 -23.248200 -28.976800
H -28.046600 -18.348700 -22.623800
C -28.036000 -15.339700 -23.869600
C -27.858300 -16.346500 -22.951700
H -27.747200 -14.433800 -23.656500
H -27.613800 -20.057800 -29.767500
H -27.500000 -16.164400 -22.084700
H -27.452700 -23.346900 -28.297400
N -27.420200 -20.513100 -27.834600
C -27.336500 -20.861200 -29.252800
N -26.859100 -20.261000 -25.827400
N -26.417800 -20.661700 -27.004200
H -26.408800 -21.111300 -29.391800
