27
Fragment
H -8.794900 -9.180000 -19.275300
H -8.438400 -11.315100 -20.164200
C -8.284800 -9.285100 -20.069800
C -8.072700 -10.552600 -20.598100
H -7.894200 -7.302800 -20.343200
C -7.749800 -8.169900 -20.704400
C -7.325700 -10.705800 -21.759500
O -7.065100 -11.901800 -22.514400
C -7.002800 -8.323000 -21.865800
C -6.790600 -9.591400 -22.394100
H -6.636900 -7.560600 -22.299800
C -6.347900 -11.397600 -23.603900
C -6.089800 -10.031900 -23.605500
H -6.053100 -13.127600 -24.641600
C -5.876800 -12.194000 -24.641800
C -5.361700 -9.461800 -24.643300
H -5.285000 -7.441400 -24.084500
C -5.148700 -11.624600 -25.679600
C -4.993600 -8.058400 -24.744900
C -4.891700 -10.258100 -25.679600
H -4.827300 -12.168600 -26.389100
C -4.222400 -7.625700 -25.798400
C -4.113800 -9.777500 -26.716000
H -3.978400 -6.709200 -25.854700
H -3.806900 -10.374400 -27.388900
C -3.795300 -8.514700 -26.783200
H -3.268900 -8.198400 -27.508900
16
Fragment
N -12.005700 -18.446900 -19.974400
C -11.509500 -18.389500 -21.010800
N -11.442100 -21.753900 -22.178400
C -11.075300 -20.742400 -22.562900
C -10.835700 -18.297600 -22.290900
C -10.609700 -19.471700 -23.033400
H -10.587300 -16.295000 -22.250300
C -10.407200 -17.083500 -22.748900
C -9.912600 -19.395500 -24.251000
H -9.753100 -20.182200 -24.760100
C -9.712800 -17.005800 -23.936800
C -9.461300 -18.176700 -24.702700
C -9.190600 -15.734300 -24.394800
N -8.776800 -14.744800 -24.771500
C -8.742200 -18.096600 -25.951600
N -8.191600 -18.021200 -26.939500
43
Fragment
H -8.794900 -9.180000 -19.275300
H -8.438400 -11.315100 -20.164200
C -8.284800 -9.285100 -20.069800
C -8.072700 -10.552600 -20.598100
H -7.894200 -7.302800 -20.343200
C -7.749800 -8.169900 -20.704400
C -7.325700 -10.705800 -21.759500
O -7.065100 -11.901800 -22.514400
C -7.002800 -8.323000 -21.865800
C -6.790600 -9.591400 -22.394100
H -6.636900 -7.560600 -22.299800
C -6.347900 -11.397600 -23.603900
C -6.089800 -10.031900 -23.605500
H -6.053100 -13.127600 -24.641600
C -5.876800 -12.194000 -24.641800
C -5.361700 -9.461800 -24.643300
H -5.285000 -7.441400 -24.084500
C -5.148700 -11.624600 -25.679600
C -4.993600 -8.058400 -24.744900
C -4.891700 -10.258100 -25.679600
H -4.827300 -12.168600 -26.389100
C -4.222400 -7.625700 -25.798400
C -4.113800 -9.777500 -26.716000
H -3.978400 -6.709200 -25.854700
H -3.806900 -10.374400 -27.388900
C -3.795300 -8.514700 -26.783200
H -3.268900 -8.198400 -27.508900
N -12.005700 -18.446900 -19.974400
C -11.509500 -18.389500 -21.010800
N -11.442100 -21.753900 -22.178400
C -11.075300 -20.742400 -22.562900
C -10.835700 -18.297600 -22.290900
C -10.609700 -19.471700 -23.033400
H -10.587300 -16.295000 -22.250300
C -10.407200 -17.083500 -22.748900
C -9.912600 -19.395500 -24.251000
H -9.753100 -20.182200 -24.760100
C -9.712800 -17.005800 -23.936800
C -9.461300 -18.176700 -24.702700
C -9.190600 -15.734300 -24.394800
N -8.776800 -14.744800 -24.771500
C -8.742200 -18.096600 -25.951600
N -8.191600 -18.021200 -26.939500
