27
Fragment
H -8.794900 -9.180000 -19.275300
H -8.438400 -11.315100 -20.164200
C -8.284800 -9.285100 -20.069800
C -8.072700 -10.552600 -20.598100
H -7.894200 -7.302800 -20.343200
C -7.749800 -8.169900 -20.704400
C -7.325700 -10.705800 -21.759500
O -7.065100 -11.901800 -22.514400
C -7.002800 -8.323000 -21.865800
C -6.790600 -9.591400 -22.394100
H -6.636900 -7.560600 -22.299800
C -6.347900 -11.397600 -23.603900
C -6.089800 -10.031900 -23.605500
H -6.053100 -13.127600 -24.641600
C -5.876800 -12.194000 -24.641800
C -5.361700 -9.461800 -24.643300
H -5.285000 -7.441400 -24.084500
C -5.148700 -11.624600 -25.679600
C -4.993600 -8.058400 -24.744900
C -4.891700 -10.258100 -25.679600
H -4.827300 -12.168600 -26.389100
C -4.222400 -7.625700 -25.798400
C -4.113800 -9.777500 -26.716000
H -3.978400 -6.709200 -25.854700
H -3.806900 -10.374400 -27.388900
C -3.795300 -8.514700 -26.783200
H -3.268900 -8.198400 -27.508900
16
Fragment
N -13.349100 -12.966700 -12.159100
C -12.852800 -13.024100 -13.195400
N -12.785400 -9.659700 -14.363000
C -12.418700 -10.671200 -14.747500
C -12.179100 -13.116000 -14.475600
C -11.953100 -11.941900 -15.218000
H -11.930700 -15.118600 -14.434900
C -11.750500 -14.330100 -14.933600
C -11.255900 -12.018100 -16.435700
H -11.096400 -11.231400 -16.944800
C -11.056100 -14.407800 -16.121500
C -10.804700 -13.236900 -16.887400
C -10.533900 -15.679300 -16.579500
N -10.120200 -16.668800 -16.956200
C -10.085500 -13.317000 -18.136300
N -9.534900 -13.392400 -19.124100
43
Fragment
H -8.794900 -9.180000 -19.275300
H -8.438400 -11.315100 -20.164200
C -8.284800 -9.285100 -20.069800
C -8.072700 -10.552600 -20.598100
H -7.894200 -7.302800 -20.343200
C -7.749800 -8.169900 -20.704400
C -7.325700 -10.705800 -21.759500
O -7.065100 -11.901800 -22.514400
C -7.002800 -8.323000 -21.865800
C -6.790600 -9.591400 -22.394100
H -6.636900 -7.560600 -22.299800
C -6.347900 -11.397600 -23.603900
C -6.089800 -10.031900 -23.605500
H -6.053100 -13.127600 -24.641600
C -5.876800 -12.194000 -24.641800
C -5.361700 -9.461800 -24.643300
H -5.285000 -7.441400 -24.084500
C -5.148700 -11.624600 -25.679600
C -4.993600 -8.058400 -24.744900
C -4.891700 -10.258100 -25.679600
H -4.827300 -12.168600 -26.389100
C -4.222400 -7.625700 -25.798400
C -4.113800 -9.777500 -26.716000
H -3.978400 -6.709200 -25.854700
H -3.806900 -10.374400 -27.388900
C -3.795300 -8.514700 -26.783200
H -3.268900 -8.198400 -27.508900
N -13.349100 -12.966700 -12.159100
C -12.852800 -13.024100 -13.195400
N -12.785400 -9.659700 -14.363000
C -12.418700 -10.671200 -14.747500
C -12.179100 -13.116000 -14.475600
C -11.953100 -11.941900 -15.218000
H -11.930700 -15.118600 -14.434900
C -11.750500 -14.330100 -14.933600
C -11.255900 -12.018100 -16.435700
H -11.096400 -11.231400 -16.944800
C -11.056100 -14.407800 -16.121500
C -10.804700 -13.236900 -16.887400
C -10.533900 -15.679300 -16.579500
N -10.120200 -16.668800 -16.956200
C -10.085500 -13.317000 -18.136300
N -9.534900 -13.392400 -19.124100
