27
Fragment
H -8.794900 -9.180000 -19.275300
H -8.438400 -11.315100 -20.164200
C -8.284800 -9.285100 -20.069800
C -8.072700 -10.552600 -20.598100
H -7.894200 -7.302800 -20.343200
C -7.749800 -8.169900 -20.704400
C -7.325700 -10.705800 -21.759500
O -7.065100 -11.901800 -22.514400
C -7.002800 -8.323000 -21.865800
C -6.790600 -9.591400 -22.394100
H -6.636900 -7.560600 -22.299800
C -6.347900 -11.397600 -23.603900
C -6.089800 -10.031900 -23.605500
H -6.053100 -13.127600 -24.641600
C -5.876800 -12.194000 -24.641800
C -5.361700 -9.461800 -24.643300
H -5.285000 -7.441400 -24.084500
C -5.148700 -11.624600 -25.679600
C -4.993600 -8.058400 -24.744900
C -4.891700 -10.258100 -25.679600
H -4.827300 -12.168600 -26.389100
C -4.222400 -7.625700 -25.798400
C -4.113800 -9.777500 -26.716000
H -3.978400 -6.709200 -25.854700
H -3.806900 -10.374400 -27.388900
C -3.795300 -8.514700 -26.783200
H -3.268900 -8.198400 -27.508900
16
Fragment
N -2.729900 -12.966700 -27.789800
C -2.233600 -13.024100 -28.826100
N -2.166200 -9.659700 -29.993700
C -1.799500 -10.671200 -30.378200
C -1.559900 -13.116000 -30.106300
C -1.333900 -11.941900 -30.848700
H -1.311500 -15.118600 -30.065600
C -1.131300 -14.330100 -30.564200
C -0.636700 -12.018100 -32.066300
H -0.477200 -11.231400 -32.575400
C -0.436900 -14.407800 -31.752200
C -0.185500 -13.236900 -32.518100
C 0.085200 -15.679300 -32.210100
N 0.499000 -16.668800 -32.586800
C 0.533700 -13.317000 -33.767000
N 1.084300 -13.392400 -34.754800
43
Fragment
H -8.794900 -9.180000 -19.275300
H -8.438400 -11.315100 -20.164200
C -8.284800 -9.285100 -20.069800
C -8.072700 -10.552600 -20.598100
H -7.894200 -7.302800 -20.343200
C -7.749800 -8.169900 -20.704400
C -7.325700 -10.705800 -21.759500
O -7.065100 -11.901800 -22.514400
C -7.002800 -8.323000 -21.865800
C -6.790600 -9.591400 -22.394100
H -6.636900 -7.560600 -22.299800
C -6.347900 -11.397600 -23.603900
C -6.089800 -10.031900 -23.605500
H -6.053100 -13.127600 -24.641600
C -5.876800 -12.194000 -24.641800
C -5.361700 -9.461800 -24.643300
H -5.285000 -7.441400 -24.084500
C -5.148700 -11.624600 -25.679600
C -4.993600 -8.058400 -24.744900
C -4.891700 -10.258100 -25.679600
H -4.827300 -12.168600 -26.389100
C -4.222400 -7.625700 -25.798400
C -4.113800 -9.777500 -26.716000
H -3.978400 -6.709200 -25.854700
H -3.806900 -10.374400 -27.388900
C -3.795300 -8.514700 -26.783200
H -3.268900 -8.198400 -27.508900
N -2.729900 -12.966700 -27.789800
C -2.233600 -13.024100 -28.826100
N -2.166200 -9.659700 -29.993700
C -1.799500 -10.671200 -30.378200
C -1.559900 -13.116000 -30.106300
C -1.333900 -11.941900 -30.848700
H -1.311500 -15.118600 -30.065600
C -1.131300 -14.330100 -30.564200
C -0.636700 -12.018100 -32.066300
H -0.477200 -11.231400 -32.575400
C -0.436900 -14.407800 -31.752200
C -0.185500 -13.236900 -32.518100
C 0.085200 -15.679300 -32.210100
N 0.499000 -16.668800 -32.586800
C 0.533700 -13.317000 -33.767000
N 1.084300 -13.392400 -34.754800
