27
Fragment
H -8.794900 -9.180000 -19.275300
H -8.438400 -11.315100 -20.164200
C -8.284800 -9.285100 -20.069800
C -8.072700 -10.552600 -20.598100
H -7.894200 -7.302800 -20.343200
C -7.749800 -8.169900 -20.704400
C -7.325700 -10.705800 -21.759500
O -7.065100 -11.901800 -22.514400
C -7.002800 -8.323000 -21.865800
C -6.790600 -9.591400 -22.394100
H -6.636900 -7.560600 -22.299800
C -6.347900 -11.397600 -23.603900
C -6.089800 -10.031900 -23.605500
H -6.053100 -13.127600 -24.641600
C -5.876800 -12.194000 -24.641800
C -5.361700 -9.461800 -24.643300
H -5.285000 -7.441400 -24.084500
C -5.148700 -11.624600 -25.679600
C -4.993600 -8.058400 -24.744900
C -4.891700 -10.258100 -25.679600
H -4.827300 -12.168600 -26.389100
C -4.222400 -7.625700 -25.798400
C -4.113800 -9.777500 -26.716000
H -3.978400 -6.709200 -25.854700
H -3.806900 -10.374400 -27.388900
C -3.795300 -8.514700 -26.783200
H -3.268900 -8.198400 -27.508900
27
Fragment
H -8.794900 -1.326600 -19.275300
H -8.438400 -3.461700 -20.164200
C -8.284800 -1.431700 -20.069800
C -8.072700 -2.699200 -20.598100
H -7.894200 0.550600 -20.343200
C -7.749800 -0.316500 -20.704400
C -7.325700 -2.852400 -21.759500
O -7.065100 -4.048400 -22.514400
C -7.002800 -0.469600 -21.865800
C -6.790600 -1.738000 -22.394100
H -6.636900 0.292800 -22.299800
C -6.347900 -3.544200 -23.603900
C -6.089800 -2.178500 -23.605500
H -6.053100 -5.274200 -24.641600
C -5.876800 -4.340600 -24.641800
C -5.361700 -1.608400 -24.643300
H -5.285000 0.412000 -24.084500
C -5.148700 -3.771200 -25.679600
C -4.993600 -0.205000 -24.744900
C -4.891700 -2.404700 -25.679600
H -4.827300 -4.315200 -26.389100
C -4.222400 0.227700 -25.798400
C -4.113800 -1.924100 -26.716000
H -3.978400 1.144200 -25.854700
H -3.806900 -2.521000 -27.388900
C -3.795300 -0.661300 -26.783200
H -3.268900 -0.345000 -27.508900
54
Fragment
H -8.794900 -9.180000 -19.275300
H -8.438400 -11.315100 -20.164200
C -8.284800 -9.285100 -20.069800
C -8.072700 -10.552600 -20.598100
H -7.894200 -7.302800 -20.343200
C -7.749800 -8.169900 -20.704400
C -7.325700 -10.705800 -21.759500
O -7.065100 -11.901800 -22.514400
C -7.002800 -8.323000 -21.865800
C -6.790600 -9.591400 -22.394100
H -6.636900 -7.560600 -22.299800
C -6.347900 -11.397600 -23.603900
C -6.089800 -10.031900 -23.605500
H -6.053100 -13.127600 -24.641600
C -5.876800 -12.194000 -24.641800
C -5.361700 -9.461800 -24.643300
H -5.285000 -7.441400 -24.084500
C -5.148700 -11.624600 -25.679600
C -4.993600 -8.058400 -24.744900
C -4.891700 -10.258100 -25.679600
H -4.827300 -12.168600 -26.389100
C -4.222400 -7.625700 -25.798400
C -4.113800 -9.777500 -26.716000
H -3.978400 -6.709200 -25.854700
H -3.806900 -10.374400 -27.388900
C -3.795300 -8.514700 -26.783200
H -3.268900 -8.198400 -27.508900
H -8.794900 -1.326600 -19.275300
H -8.438400 -3.461700 -20.164200
C -8.284800 -1.431700 -20.069800
C -8.072700 -2.699200 -20.598100
H -7.894200 0.550600 -20.343200
C -7.749800 -0.316500 -20.704400
C -7.325700 -2.852400 -21.759500
O -7.065100 -4.048400 -22.514400
C -7.002800 -0.469600 -21.865800
C -6.790600 -1.738000 -22.394100
H -6.636900 0.292800 -22.299800
C -6.347900 -3.544200 -23.603900
C -6.089800 -2.178500 -23.605500
H -6.053100 -5.274200 -24.641600
C -5.876800 -4.340600 -24.641800
C -5.361700 -1.608400 -24.643300
H -5.285000 0.412000 -24.084500
C -5.148700 -3.771200 -25.679600
C -4.993600 -0.205000 -24.744900
C -4.891700 -2.404700 -25.679600
H -4.827300 -4.315200 -26.389100
C -4.222400 0.227700 -25.798400
C -4.113800 -1.924100 -26.716000
H -3.978400 1.144200 -25.854700
H -3.806900 -2.521000 -27.388900
C -3.795300 -0.661300 -26.783200
H -3.268900 -0.345000 -27.508900
