27
Fragment
H -8.794900 -9.180000 -19.275300
H -8.438400 -11.315100 -20.164200
C -8.284800 -9.285100 -20.069800
C -8.072700 -10.552600 -20.598100
H -7.894200 -7.302800 -20.343200
C -7.749800 -8.169900 -20.704400
C -7.325700 -10.705800 -21.759500
O -7.065100 -11.901800 -22.514400
C -7.002800 -8.323000 -21.865800
C -6.790600 -9.591400 -22.394100
H -6.636900 -7.560600 -22.299800
C -6.347900 -11.397600 -23.603900
C -6.089800 -10.031900 -23.605500
H -6.053100 -13.127600 -24.641600
C -5.876800 -12.194000 -24.641800
C -5.361700 -9.461800 -24.643300
H -5.285000 -7.441400 -24.084500
C -5.148700 -11.624600 -25.679600
C -4.993600 -8.058400 -24.744900
C -4.891700 -10.258100 -25.679600
H -4.827300 -12.168600 -26.389100
C -4.222400 -7.625700 -25.798400
C -4.113800 -9.777500 -26.716000
H -3.978400 -6.709200 -25.854700
H -3.806900 -10.374400 -27.388900
C -3.795300 -8.514700 -26.783200
H -3.268900 -8.198400 -27.508900
27
Fragment
H -10.138300 -14.380200 -11.459900
H -9.781700 -12.245100 -12.348900
C -9.628200 -14.275100 -12.254500
C -9.416000 -13.007600 -12.782800
H -9.237600 -16.257400 -12.527800
C -9.093100 -15.390300 -12.889100
C -8.669000 -12.854400 -13.944100
O -8.408400 -11.658400 -14.699100
C -8.346200 -15.237200 -14.050400
C -8.134000 -13.968800 -14.578700
H -7.980300 -15.999600 -14.484500
C -7.691200 -12.162600 -15.788500
C -7.433200 -13.528300 -15.790100
H -7.396400 -10.432600 -16.826300
C -7.220100 -11.366200 -16.826400
C -6.705000 -14.098400 -16.828000
H -6.628300 -16.118800 -16.269200
C -6.492000 -11.935600 -17.864300
C -6.337000 -15.501800 -16.929600
C -6.235000 -13.302100 -17.864300
H -6.170600 -11.391600 -18.573800
C -5.565700 -15.934500 -17.983100
C -5.457200 -13.782700 -18.900600
H -5.321800 -16.851000 -18.039400
H -5.150300 -13.185800 -19.573500
C -5.138600 -15.045500 -18.967800
H -4.612300 -15.361800 -19.693600
54
Fragment
H -8.794900 -9.180000 -19.275300
H -8.438400 -11.315100 -20.164200
C -8.284800 -9.285100 -20.069800
C -8.072700 -10.552600 -20.598100
H -7.894200 -7.302800 -20.343200
C -7.749800 -8.169900 -20.704400
C -7.325700 -10.705800 -21.759500
O -7.065100 -11.901800 -22.514400
C -7.002800 -8.323000 -21.865800
C -6.790600 -9.591400 -22.394100
H -6.636900 -7.560600 -22.299800
C -6.347900 -11.397600 -23.603900
C -6.089800 -10.031900 -23.605500
H -6.053100 -13.127600 -24.641600
C -5.876800 -12.194000 -24.641800
C -5.361700 -9.461800 -24.643300
H -5.285000 -7.441400 -24.084500
C -5.148700 -11.624600 -25.679600
C -4.993600 -8.058400 -24.744900
C -4.891700 -10.258100 -25.679600
H -4.827300 -12.168600 -26.389100
C -4.222400 -7.625700 -25.798400
C -4.113800 -9.777500 -26.716000
H -3.978400 -6.709200 -25.854700
H -3.806900 -10.374400 -27.388900
C -3.795300 -8.514700 -26.783200
H -3.268900 -8.198400 -27.508900
H -10.138300 -14.380200 -11.459900
H -9.781700 -12.245100 -12.348900
C -9.628200 -14.275100 -12.254500
C -9.416000 -13.007600 -12.782800
H -9.237600 -16.257400 -12.527800
C -9.093100 -15.390300 -12.889100
C -8.669000 -12.854400 -13.944100
O -8.408400 -11.658400 -14.699100
C -8.346200 -15.237200 -14.050400
C -8.134000 -13.968800 -14.578700
H -7.980300 -15.999600 -14.484500
C -7.691200 -12.162600 -15.788500
C -7.433200 -13.528300 -15.790100
H -7.396400 -10.432600 -16.826300
C -7.220100 -11.366200 -16.826400
C -6.705000 -14.098400 -16.828000
H -6.628300 -16.118800 -16.269200
C -6.492000 -11.935600 -17.864300
C -6.337000 -15.501800 -16.929600
C -6.235000 -13.302100 -17.864300
H -6.170600 -11.391600 -18.573800
C -5.565700 -15.934500 -17.983100
C -5.457200 -13.782700 -18.900600
H -5.321800 -16.851000 -18.039400
H -5.150300 -13.185800 -19.573500
C -5.138600 -15.045500 -18.967800
H -4.612300 -15.361800 -19.693600
