31
Fragment
H -22.728200 -13.510600 -14.006300
H -22.295000 -12.409600 -11.846400
C -21.894900 -13.168700 -13.703700
C -21.646300 -12.570300 -12.522300
H -21.361300 -14.020300 -16.088500
N -20.698900 -13.184500 -14.381500
C -20.493100 -13.809700 -15.685900
N -20.313900 -12.224700 -12.435400
H -20.003200 -13.193200 -16.269700
H -19.975700 -14.634500 -15.574900
C -19.770100 -12.603600 -13.580200
H -19.413200 -8.904500 -16.410300
O -19.060600 -9.162100 -15.482900
O -19.006500 -11.181500 -16.408700
H -18.978000 -15.238800 -13.190100
C -18.759400 -10.443600 -15.481100
H -18.357500 -10.362300 -13.459700
C -18.323600 -12.388900 -13.945700
H -18.126700 -12.911200 -14.775700
C -18.050500 -10.905200 -14.229000
C -18.004600 -15.334600 -13.250800
H -17.734500 -16.184400 -12.843800
H -17.732600 -15.322700 -14.192800
C -17.446200 -12.905300 -12.839000
N -17.363900 -14.233100 -12.546700
H -17.075900 -10.765200 -14.333500
N -16.718700 -12.181800 -12.010000
C -16.526900 -14.355700 -11.463500
H -16.269400 -15.158300 -11.024800
C -16.145600 -13.097100 -11.152200
H -15.561000 -12.872500 -10.437600
31
Fragment
H -28.019000 -11.793800 -21.530600
C -27.434400 -11.569200 -20.816000
H -27.310600 -9.508000 -20.943400
C -27.053100 -10.310600 -20.504700
N -26.861400 -12.484500 -19.958200
H -26.504100 -13.901100 -17.634700
N -26.216100 -10.433200 -19.421500
C -26.133800 -11.761000 -19.129200
H -25.847400 -9.343600 -17.775400
H -25.845500 -8.481900 -19.124400
C -25.575400 -9.331700 -18.717400
C -25.529500 -13.761100 -17.739200
H -25.453300 -11.755100 -17.192500
C -25.256400 -12.277400 -18.022500
H -25.222500 -14.304000 -18.508500
C -24.820600 -14.222700 -16.487100
H -24.602100 -9.427500 -18.778100
O -24.573500 -13.484800 -15.559500
O -24.519400 -15.504200 -16.485300
H -24.166800 -15.761800 -15.557900
C -23.809900 -12.062700 -18.388000
H -23.604300 -10.031800 -16.393300
H -23.576800 -11.473100 -15.698500
N -23.266100 -12.441600 -19.532800
C -23.086900 -10.856600 -16.282300
N -22.881100 -11.481800 -17.586700
H -22.218800 -10.646000 -15.879700
C -21.933700 -12.096000 -19.445900
C -21.685100 -11.497600 -18.264500
H -21.285000 -12.256700 -20.121900
H -20.851800 -11.155700 -17.961900
62
Fragment
H -22.728200 -13.510600 -14.006300
H -22.295000 -12.409600 -11.846400
C -21.894900 -13.168700 -13.703700
C -21.646300 -12.570300 -12.522300
H -21.361300 -14.020300 -16.088500
N -20.698900 -13.184500 -14.381500
C -20.493100 -13.809700 -15.685900
N -20.313900 -12.224700 -12.435400
H -20.003200 -13.193200 -16.269700
H -19.975700 -14.634500 -15.574900
C -19.770100 -12.603600 -13.580200
H -19.413200 -8.904500 -16.410300
O -19.060600 -9.162100 -15.482900
O -19.006500 -11.181500 -16.408700
H -18.978000 -15.238800 -13.190100
C -18.759400 -10.443600 -15.481100
H -18.357500 -10.362300 -13.459700
C -18.323600 -12.388900 -13.945700
H -18.126700 -12.911200 -14.775700
C -18.050500 -10.905200 -14.229000
C -18.004600 -15.334600 -13.250800
H -17.734500 -16.184400 -12.843800
H -17.732600 -15.322700 -14.192800
C -17.446200 -12.905300 -12.839000
N -17.363900 -14.233100 -12.546700
H -17.075900 -10.765200 -14.333500
N -16.718700 -12.181800 -12.010000
C -16.526900 -14.355700 -11.463500
H -16.269400 -15.158300 -11.024800
C -16.145600 -13.097100 -11.152200
H -15.561000 -12.872500 -10.437600
H -28.019000 -11.793800 -21.530600
C -27.434400 -11.569200 -20.816000
H -27.310600 -9.508000 -20.943400
C -27.053100 -10.310600 -20.504700
N -26.861400 -12.484500 -19.958200
H -26.504100 -13.901100 -17.634700
N -26.216100 -10.433200 -19.421500
C -26.133800 -11.761000 -19.129200
H -25.847400 -9.343600 -17.775400
H -25.845500 -8.481900 -19.124400
C -25.575400 -9.331700 -18.717400
C -25.529500 -13.761100 -17.739200
H -25.453300 -11.755100 -17.192500
C -25.256400 -12.277400 -18.022500
H -25.222500 -14.304000 -18.508500
C -24.820600 -14.222700 -16.487100
H -24.602100 -9.427500 -18.778100
O -24.573500 -13.484800 -15.559500
O -24.519400 -15.504200 -16.485300
H -24.166800 -15.761800 -15.557900
C -23.809900 -12.062700 -18.388000
H -23.604300 -10.031800 -16.393300
H -23.576800 -11.473100 -15.698500
N -23.266100 -12.441600 -19.532800
C -23.086900 -10.856600 -16.282300
N -22.881100 -11.481800 -17.586700
H -22.218800 -10.646000 -15.879700
C -21.933700 -12.096000 -19.445900
C -21.685100 -11.497600 -18.264500
H -21.285000 -12.256700 -20.121900
H -20.851800 -11.155700 -17.961900
