31
Fragment
H -22.728200 -13.510600 -14.006300
H -22.295000 -12.409600 -11.846400
C -21.894900 -13.168700 -13.703700
C -21.646300 -12.570300 -12.522300
H -21.361300 -14.020300 -16.088500
N -20.698900 -13.184500 -14.381500
C -20.493100 -13.809700 -15.685900
N -20.313900 -12.224700 -12.435400
H -20.003200 -13.193200 -16.269700
H -19.975700 -14.634500 -15.574900
C -19.770100 -12.603600 -13.580200
H -19.413200 -8.904500 -16.410300
O -19.060600 -9.162100 -15.482900
O -19.006500 -11.181500 -16.408700
H -18.978000 -15.238800 -13.190100
C -18.759400 -10.443600 -15.481100
H -18.357500 -10.362300 -13.459700
C -18.323600 -12.388900 -13.945700
H -18.126700 -12.911200 -14.775700
C -18.050500 -10.905200 -14.229000
C -18.004600 -15.334600 -13.250800
H -17.734500 -16.184400 -12.843800
H -17.732600 -15.322700 -14.192800
C -17.446200 -12.905300 -12.839000
N -17.363900 -14.233100 -12.546700
H -17.075900 -10.765200 -14.333500
N -16.718700 -12.181800 -12.010000
C -16.526900 -14.355700 -11.463500
H -16.269400 -15.158300 -11.024800
C -16.145600 -13.097100 -11.152200
H -15.561000 -12.872500 -10.437600
6
Fragment
H -16.192500 -10.261200 -11.738700
O -15.866000 -9.488300 -11.572400
H -15.265000 -9.067300 -13.395700
C -14.856600 -9.236700 -12.520900
H -14.338400 -8.451500 -12.246000
H -14.263500 -10.014500 -12.581600
37
Fragment
H -22.728200 -13.510600 -14.006300
H -22.295000 -12.409600 -11.846400
C -21.894900 -13.168700 -13.703700
C -21.646300 -12.570300 -12.522300
H -21.361300 -14.020300 -16.088500
N -20.698900 -13.184500 -14.381500
C -20.493100 -13.809700 -15.685900
N -20.313900 -12.224700 -12.435400
H -20.003200 -13.193200 -16.269700
H -19.975700 -14.634500 -15.574900
C -19.770100 -12.603600 -13.580200
H -19.413200 -8.904500 -16.410300
O -19.060600 -9.162100 -15.482900
O -19.006500 -11.181500 -16.408700
H -18.978000 -15.238800 -13.190100
C -18.759400 -10.443600 -15.481100
H -18.357500 -10.362300 -13.459700
C -18.323600 -12.388900 -13.945700
H -18.126700 -12.911200 -14.775700
C -18.050500 -10.905200 -14.229000
C -18.004600 -15.334600 -13.250800
H -17.734500 -16.184400 -12.843800
H -17.732600 -15.322700 -14.192800
C -17.446200 -12.905300 -12.839000
N -17.363900 -14.233100 -12.546700
H -17.075900 -10.765200 -14.333500
N -16.718700 -12.181800 -12.010000
C -16.526900 -14.355700 -11.463500
H -16.269400 -15.158300 -11.024800
C -16.145600 -13.097100 -11.152200
H -15.561000 -12.872500 -10.437600
H -16.192500 -10.261200 -11.738700
O -15.866000 -9.488300 -11.572400
H -15.265000 -9.067300 -13.395700
C -14.856600 -9.236700 -12.520900
H -14.338400 -8.451500 -12.246000
H -14.263500 -10.014500 -12.581600
