31
Fragment
H -22.728200 -13.510600 -14.006300
H -22.295000 -12.409600 -11.846400
C -21.894900 -13.168700 -13.703700
C -21.646300 -12.570300 -12.522300
H -21.361300 -14.020300 -16.088500
N -20.698900 -13.184500 -14.381500
C -20.493100 -13.809700 -15.685900
N -20.313900 -12.224700 -12.435400
H -20.003200 -13.193200 -16.269700
H -19.975700 -14.634500 -15.574900
C -19.770100 -12.603600 -13.580200
H -19.413200 -8.904500 -16.410300
O -19.060600 -9.162100 -15.482900
O -19.006500 -11.181500 -16.408700
H -18.978000 -15.238800 -13.190100
C -18.759400 -10.443600 -15.481100
H -18.357500 -10.362300 -13.459700
C -18.323600 -12.388900 -13.945700
H -18.126700 -12.911200 -14.775700
C -18.050500 -10.905200 -14.229000
C -18.004600 -15.334600 -13.250800
H -17.734500 -16.184400 -12.843800
H -17.732600 -15.322700 -14.192800
C -17.446200 -12.905300 -12.839000
N -17.363900 -14.233100 -12.546700
H -17.075900 -10.765200 -14.333500
N -16.718700 -12.181800 -12.010000
C -16.526900 -14.355700 -11.463500
H -16.269400 -15.158300 -11.024800
C -16.145600 -13.097100 -11.152200
H -15.561000 -12.872500 -10.437600
31
Fragment
H -22.881900 -7.044700 -8.678300
H -22.448700 -8.145600 -6.518300
C -22.048600 -7.386600 -8.375700
C -21.799900 -7.985000 -7.194200
H -21.514900 -6.534900 -10.760500
N -20.852600 -7.370800 -9.053500
C -20.646700 -6.745600 -10.357900
N -20.467500 -8.330500 -7.107400
H -20.156800 -7.362100 -10.941700
H -20.129400 -5.920700 -10.246900
C -19.923800 -7.951700 -8.252200
H -19.566800 -11.650700 -11.082300
O -19.214300 -11.393100 -10.154900
O -19.160100 -9.373800 -11.080700
H -19.131600 -5.316400 -7.862000
C -18.913100 -10.111600 -10.153100
H -18.511200 -10.192900 -8.131600
C -18.477300 -8.166400 -8.617700
H -18.280400 -7.644100 -9.447700
C -18.204200 -9.650000 -8.901000
C -18.158200 -5.220600 -7.922800
H -17.888100 -4.370900 -7.515700
H -17.886300 -5.232500 -8.864800
C -17.599900 -7.649900 -7.510900
N -17.517500 -6.322100 -7.218600
H -17.229600 -9.790100 -9.005400
N -16.872300 -8.373500 -6.682000
C -16.680600 -6.199500 -6.135400
H -16.423100 -5.397000 -5.696700
C -16.299200 -7.458200 -5.824200
H -15.714600 -7.682700 -5.109600
62
Fragment
H -22.728200 -13.510600 -14.006300
H -22.295000 -12.409600 -11.846400
C -21.894900 -13.168700 -13.703700
C -21.646300 -12.570300 -12.522300
H -21.361300 -14.020300 -16.088500
N -20.698900 -13.184500 -14.381500
C -20.493100 -13.809700 -15.685900
N -20.313900 -12.224700 -12.435400
H -20.003200 -13.193200 -16.269700
H -19.975700 -14.634500 -15.574900
C -19.770100 -12.603600 -13.580200
H -19.413200 -8.904500 -16.410300
O -19.060600 -9.162100 -15.482900
O -19.006500 -11.181500 -16.408700
H -18.978000 -15.238800 -13.190100
C -18.759400 -10.443600 -15.481100
H -18.357500 -10.362300 -13.459700
C -18.323600 -12.388900 -13.945700
H -18.126700 -12.911200 -14.775700
C -18.050500 -10.905200 -14.229000
C -18.004600 -15.334600 -13.250800
H -17.734500 -16.184400 -12.843800
H -17.732600 -15.322700 -14.192800
C -17.446200 -12.905300 -12.839000
N -17.363900 -14.233100 -12.546700
H -17.075900 -10.765200 -14.333500
N -16.718700 -12.181800 -12.010000
C -16.526900 -14.355700 -11.463500
H -16.269400 -15.158300 -11.024800
C -16.145600 -13.097100 -11.152200
H -15.561000 -12.872500 -10.437600
H -22.881900 -7.044700 -8.678300
H -22.448700 -8.145600 -6.518300
C -22.048600 -7.386600 -8.375700
C -21.799900 -7.985000 -7.194200
H -21.514900 -6.534900 -10.760500
N -20.852600 -7.370800 -9.053500
C -20.646700 -6.745600 -10.357900
N -20.467500 -8.330500 -7.107400
H -20.156800 -7.362100 -10.941700
H -20.129400 -5.920700 -10.246900
C -19.923800 -7.951700 -8.252200
H -19.566800 -11.650700 -11.082300
O -19.214300 -11.393100 -10.154900
O -19.160100 -9.373800 -11.080700
H -19.131600 -5.316400 -7.862000
C -18.913100 -10.111600 -10.153100
H -18.511200 -10.192900 -8.131600
C -18.477300 -8.166400 -8.617700
H -18.280400 -7.644100 -9.447700
C -18.204200 -9.650000 -8.901000
C -18.158200 -5.220600 -7.922800
H -17.888100 -4.370900 -7.515700
H -17.886300 -5.232500 -8.864800
C -17.599900 -7.649900 -7.510900
N -17.517500 -6.322100 -7.218600
H -17.229600 -9.790100 -9.005400
N -16.872300 -8.373500 -6.682000
C -16.680600 -6.199500 -6.135400
H -16.423100 -5.397000 -5.696700
C -16.299200 -7.458200 -5.824200
H -15.714600 -7.682700 -5.109600
