31
Fragment
H -22.728200 -13.510600 -14.006300
H -22.295000 -12.409600 -11.846400
C -21.894900 -13.168700 -13.703700
C -21.646300 -12.570300 -12.522300
H -21.361300 -14.020300 -16.088500
N -20.698900 -13.184500 -14.381500
C -20.493100 -13.809700 -15.685900
N -20.313900 -12.224700 -12.435400
H -20.003200 -13.193200 -16.269700
H -19.975700 -14.634500 -15.574900
C -19.770100 -12.603600 -13.580200
H -19.413200 -8.904500 -16.410300
O -19.060600 -9.162100 -15.482900
O -19.006500 -11.181500 -16.408700
H -18.978000 -15.238800 -13.190100
C -18.759400 -10.443600 -15.481100
H -18.357500 -10.362300 -13.459700
C -18.323600 -12.388900 -13.945700
H -18.126700 -12.911200 -14.775700
C -18.050500 -10.905200 -14.229000
C -18.004600 -15.334600 -13.250800
H -17.734500 -16.184400 -12.843800
H -17.732600 -15.322700 -14.192800
C -17.446200 -12.905300 -12.839000
N -17.363900 -14.233100 -12.546700
H -17.075900 -10.765200 -14.333500
N -16.718700 -12.181800 -12.010000
C -16.526900 -14.355700 -11.463500
H -16.269400 -15.158300 -11.024800
C -16.145600 -13.097100 -11.152200
H -15.561000 -12.872500 -10.437600
31
Fragment
H -28.172700 -16.983600 -16.202600
C -27.588100 -17.208100 -15.488000
H -27.464300 -19.269300 -15.615400
C -27.206800 -18.466800 -15.176700
N -27.015000 -16.292800 -14.630100
H -26.657800 -14.876200 -12.306700
N -26.369800 -18.344200 -14.093500
C -26.287400 -17.016400 -13.801200
H -26.001000 -19.433800 -12.447400
H -25.999200 -20.295400 -13.796400
C -25.729100 -19.445700 -13.389400
C -25.683100 -15.016300 -12.411100
H -25.606900 -17.022200 -11.864500
C -25.410000 -16.499900 -12.694500
H -25.376100 -14.473400 -13.180500
C -24.974300 -14.554700 -11.159000
H -24.755700 -19.349900 -13.450100
O -24.727200 -15.292500 -10.231400
O -24.673100 -13.273200 -11.157200
H -24.320500 -13.015600 -10.229800
C -23.963600 -16.714600 -13.060000
H -23.757900 -18.745600 -11.065300
H -23.730500 -17.304200 -10.370500
N -23.419800 -16.335800 -14.204800
C -23.240600 -17.920700 -10.954200
N -23.034800 -17.295500 -12.258600
H -22.372400 -18.131400 -10.551600
C -22.087400 -16.681300 -14.117900
C -21.838700 -17.279700 -12.936500
H -21.438600 -16.520700 -14.793800
H -21.005500 -17.621600 -12.633800
62
Fragment
H -22.728200 -13.510600 -14.006300
H -22.295000 -12.409600 -11.846400
C -21.894900 -13.168700 -13.703700
C -21.646300 -12.570300 -12.522300
H -21.361300 -14.020300 -16.088500
N -20.698900 -13.184500 -14.381500
C -20.493100 -13.809700 -15.685900
N -20.313900 -12.224700 -12.435400
H -20.003200 -13.193200 -16.269700
H -19.975700 -14.634500 -15.574900
C -19.770100 -12.603600 -13.580200
H -19.413200 -8.904500 -16.410300
O -19.060600 -9.162100 -15.482900
O -19.006500 -11.181500 -16.408700
H -18.978000 -15.238800 -13.190100
C -18.759400 -10.443600 -15.481100
H -18.357500 -10.362300 -13.459700
C -18.323600 -12.388900 -13.945700
H -18.126700 -12.911200 -14.775700
C -18.050500 -10.905200 -14.229000
C -18.004600 -15.334600 -13.250800
H -17.734500 -16.184400 -12.843800
H -17.732600 -15.322700 -14.192800
C -17.446200 -12.905300 -12.839000
N -17.363900 -14.233100 -12.546700
H -17.075900 -10.765200 -14.333500
N -16.718700 -12.181800 -12.010000
C -16.526900 -14.355700 -11.463500
H -16.269400 -15.158300 -11.024800
C -16.145600 -13.097100 -11.152200
H -15.561000 -12.872500 -10.437600
H -28.172700 -16.983600 -16.202600
C -27.588100 -17.208100 -15.488000
H -27.464300 -19.269300 -15.615400
C -27.206800 -18.466800 -15.176700
N -27.015000 -16.292800 -14.630100
H -26.657800 -14.876200 -12.306700
N -26.369800 -18.344200 -14.093500
C -26.287400 -17.016400 -13.801200
H -26.001000 -19.433800 -12.447400
H -25.999200 -20.295400 -13.796400
C -25.729100 -19.445700 -13.389400
C -25.683100 -15.016300 -12.411100
H -25.606900 -17.022200 -11.864500
C -25.410000 -16.499900 -12.694500
H -25.376100 -14.473400 -13.180500
C -24.974300 -14.554700 -11.159000
H -24.755700 -19.349900 -13.450100
O -24.727200 -15.292500 -10.231400
O -24.673100 -13.273200 -11.157200
H -24.320500 -13.015600 -10.229800
C -23.963600 -16.714600 -13.060000
H -23.757900 -18.745600 -11.065300
H -23.730500 -17.304200 -10.370500
N -23.419800 -16.335800 -14.204800
C -23.240600 -17.920700 -10.954200
N -23.034800 -17.295500 -12.258600
H -22.372400 -18.131400 -10.551600
C -22.087400 -16.681300 -14.117900
C -21.838700 -17.279700 -12.936500
H -21.438600 -16.520700 -14.793800
H -21.005500 -17.621600 -12.633800
