37
Fragment
H -10.445100 -10.526100 -28.284500
Cl -10.241500 -5.248500 -24.375200
H -10.237200 -12.536600 -29.442000
H -9.851200 -3.835100 -26.758200
C -9.688900 -10.671300 -28.857300
C -9.571000 -11.852100 -29.540600
C -9.165300 -4.504700 -26.714000
C -9.113200 -5.384000 -25.673800
H -8.807500 -8.872600 -28.483400
C -8.731000 -9.687200 -28.984800
C -8.502900 -12.050000 -30.354700
H -8.421900 -12.880300 -30.830700
H -8.219300 -3.956100 -28.422200
C -8.204300 -4.594000 -27.706600
C -8.139700 -6.352200 -25.616000
H -8.111300 -6.959000 -24.871600
C -7.653500 -9.875900 -29.843100
C -7.514300 -11.067100 -30.521300
C -7.221700 -5.572700 -27.706600
C -7.204000 -6.453700 -26.620500
H -7.107000 -6.639200 -32.098600
N -6.824100 -7.744700 -29.413100
H -6.759100 -11.220400 -31.094100
N -6.708700 -8.857000 -30.082800
H -6.312900 -6.416200 -33.541700
N -6.289400 -6.534500 -32.589800
C -6.226500 -5.536500 -28.828400
C -6.029700 -6.733500 -29.618800
H -6.002200 -8.978500 -30.720200
Cl -5.964000 -7.652600 -26.465900
O -5.643900 -4.503300 -29.088500
C -5.117200 -6.555200 -31.947400
N -4.990500 -6.713000 -30.592700
N -3.913000 -6.424900 -32.491300
C -3.649400 -6.621800 -30.354700
H -3.250100 -6.674000 -29.482800
N -2.987800 -6.460100 -31.456100
12
Fragment
H -5.316700 -9.648300 -34.673700
O -5.219700 -9.628100 -32.316200
H -4.468400 -10.884500 -35.129200
C -4.449700 -9.938900 -34.964300
H -4.210400 -9.478300 -35.771700
C -4.045300 -9.516200 -32.634000
N -3.549800 -9.677700 -33.862900
H -3.424800 -9.299200 -31.933800
C -2.136200 -9.540900 -34.143400
H -1.900000 -8.790100 -34.694100
H -1.828600 -10.350800 -34.556400
H -1.726500 -9.445400 -33.281600
49
Fragment
H -10.445100 -10.526100 -28.284500
Cl -10.241500 -5.248500 -24.375200
H -10.237200 -12.536600 -29.442000
H -9.851200 -3.835100 -26.758200
C -9.688900 -10.671300 -28.857300
C -9.571000 -11.852100 -29.540600
C -9.165300 -4.504700 -26.714000
C -9.113200 -5.384000 -25.673800
H -8.807500 -8.872600 -28.483400
C -8.731000 -9.687200 -28.984800
C -8.502900 -12.050000 -30.354700
H -8.421900 -12.880300 -30.830700
H -8.219300 -3.956100 -28.422200
C -8.204300 -4.594000 -27.706600
C -8.139700 -6.352200 -25.616000
H -8.111300 -6.959000 -24.871600
C -7.653500 -9.875900 -29.843100
C -7.514300 -11.067100 -30.521300
C -7.221700 -5.572700 -27.706600
C -7.204000 -6.453700 -26.620500
H -7.107000 -6.639200 -32.098600
N -6.824100 -7.744700 -29.413100
H -6.759100 -11.220400 -31.094100
N -6.708700 -8.857000 -30.082800
H -6.312900 -6.416200 -33.541700
N -6.289400 -6.534500 -32.589800
C -6.226500 -5.536500 -28.828400
C -6.029700 -6.733500 -29.618800
H -6.002200 -8.978500 -30.720200
Cl -5.964000 -7.652600 -26.465900
O -5.643900 -4.503300 -29.088500
C -5.117200 -6.555200 -31.947400
N -4.990500 -6.713000 -30.592700
N -3.913000 -6.424900 -32.491300
C -3.649400 -6.621800 -30.354700
H -3.250100 -6.674000 -29.482800
N -2.987800 -6.460100 -31.456100
H -5.316700 -9.648300 -34.673700
O -5.219700 -9.628100 -32.316200
H -4.468400 -10.884500 -35.129200
C -4.449700 -9.938900 -34.964300
H -4.210400 -9.478300 -35.771700
C -4.045300 -9.516200 -32.634000
N -3.549800 -9.677700 -33.862900
H -3.424800 -9.299200 -31.933800
C -2.136200 -9.540900 -34.143400
H -1.900000 -8.790100 -34.694100
H -1.828600 -10.350800 -34.556400
H -1.726500 -9.445400 -33.281600
