37
Fragment
H -10.445100 -10.526100 -28.284500
Cl -10.241500 -5.248500 -24.375200
H -10.237200 -12.536600 -29.442000
H -9.851200 -3.835100 -26.758200
C -9.688900 -10.671300 -28.857300
C -9.571000 -11.852100 -29.540600
C -9.165300 -4.504700 -26.714000
C -9.113200 -5.384000 -25.673800
H -8.807500 -8.872600 -28.483400
C -8.731000 -9.687200 -28.984800
C -8.502900 -12.050000 -30.354700
H -8.421900 -12.880300 -30.830700
H -8.219300 -3.956100 -28.422200
C -8.204300 -4.594000 -27.706600
C -8.139700 -6.352200 -25.616000
H -8.111300 -6.959000 -24.871600
C -7.653500 -9.875900 -29.843100
C -7.514300 -11.067100 -30.521300
C -7.221700 -5.572700 -27.706600
C -7.204000 -6.453700 -26.620500
H -7.107000 -6.639200 -32.098600
N -6.824100 -7.744700 -29.413100
H -6.759100 -11.220400 -31.094100
N -6.708700 -8.857000 -30.082800
H -6.312900 -6.416200 -33.541700
N -6.289400 -6.534500 -32.589800
C -6.226500 -5.536500 -28.828400
C -6.029700 -6.733500 -29.618800
H -6.002200 -8.978500 -30.720200
Cl -5.964000 -7.652600 -26.465900
O -5.643900 -4.503300 -29.088500
C -5.117200 -6.555200 -31.947400
N -4.990500 -6.713000 -30.592700
N -3.913000 -6.424900 -32.491300
C -3.649400 -6.621800 -30.354700
H -3.250100 -6.674000 -29.482800
N -2.987800 -6.460100 -31.456100
37
Fragment
N -19.251500 -10.890600 -19.534500
H -18.989200 -10.676600 -21.507900
C -18.589900 -10.728800 -20.635900
N -18.326300 -10.925800 -18.499400
N -17.248800 -10.637700 -20.398000
C -17.122100 -10.795500 -19.043300
O -16.595400 -12.847400 -21.902200
Cl -16.275400 -9.698100 -24.524800
H -16.237100 -8.372200 -20.270500
C -16.209600 -10.617200 -21.371900
C -16.012800 -11.814100 -22.162200
N -15.949900 -10.816200 -18.400800
H -15.926400 -10.934500 -17.449000
N -15.530600 -8.493700 -20.907900
H -15.480200 -6.130300 -19.896600
N -15.415200 -9.606000 -21.577600
H -15.132300 -10.711500 -18.892000
C -15.035400 -10.897000 -24.370100
C -15.017700 -11.778000 -23.284000
C -14.725000 -6.283600 -20.469400
C -14.585800 -7.474800 -21.147500
H -14.128000 -10.391700 -26.119100
C -14.099700 -10.998500 -25.374700
C -14.035000 -12.756700 -23.284000
H -14.020000 -13.394600 -22.568500
H -13.817500 -4.470400 -20.160000
C -13.736400 -5.300700 -20.635900
C -13.508300 -7.663400 -22.005900
H -13.431800 -8.478100 -22.507300
C -13.126100 -11.966700 -25.316900
C -13.074000 -12.846000 -24.276700
C -12.668300 -5.498600 -21.450100
C -12.550400 -6.679400 -22.133400
H -12.388200 -13.515600 -24.232500
H -12.002200 -4.814100 -21.548700
Cl -11.997800 -12.102200 -26.615400
H -11.794200 -6.824600 -22.706100
74
Fragment
H -10.445100 -10.526100 -28.284500
Cl -10.241500 -5.248500 -24.375200
H -10.237200 -12.536600 -29.442000
H -9.851200 -3.835100 -26.758200
C -9.688900 -10.671300 -28.857300
C -9.571000 -11.852100 -29.540600
C -9.165300 -4.504700 -26.714000
C -9.113200 -5.384000 -25.673800
H -8.807500 -8.872600 -28.483400
C -8.731000 -9.687200 -28.984800
C -8.502900 -12.050000 -30.354700
H -8.421900 -12.880300 -30.830700
H -8.219300 -3.956100 -28.422200
C -8.204300 -4.594000 -27.706600
C -8.139700 -6.352200 -25.616000
H -8.111300 -6.959000 -24.871600
C -7.653500 -9.875900 -29.843100
C -7.514300 -11.067100 -30.521300
C -7.221700 -5.572700 -27.706600
C -7.204000 -6.453700 -26.620500
H -7.107000 -6.639200 -32.098600
N -6.824100 -7.744700 -29.413100
H -6.759100 -11.220400 -31.094100
N -6.708700 -8.857000 -30.082800
H -6.312900 -6.416200 -33.541700
N -6.289400 -6.534500 -32.589800
C -6.226500 -5.536500 -28.828400
C -6.029700 -6.733500 -29.618800
H -6.002200 -8.978500 -30.720200
Cl -5.964000 -7.652600 -26.465900
O -5.643900 -4.503300 -29.088500
C -5.117200 -6.555200 -31.947400
N -4.990500 -6.713000 -30.592700
N -3.913000 -6.424900 -32.491300
C -3.649400 -6.621800 -30.354700
H -3.250100 -6.674000 -29.482800
N -2.987800 -6.460100 -31.456100
N -19.251500 -10.890600 -19.534500
H -18.989200 -10.676600 -21.507900
C -18.589900 -10.728800 -20.635900
N -18.326300 -10.925800 -18.499400
N -17.248800 -10.637700 -20.398000
C -17.122100 -10.795500 -19.043300
O -16.595400 -12.847400 -21.902200
Cl -16.275400 -9.698100 -24.524800
H -16.237100 -8.372200 -20.270500
C -16.209600 -10.617200 -21.371900
C -16.012800 -11.814100 -22.162200
N -15.949900 -10.816200 -18.400800
H -15.926400 -10.934500 -17.449000
N -15.530600 -8.493700 -20.907900
H -15.480200 -6.130300 -19.896600
N -15.415200 -9.606000 -21.577600
H -15.132300 -10.711500 -18.892000
C -15.035400 -10.897000 -24.370100
C -15.017700 -11.778000 -23.284000
C -14.725000 -6.283600 -20.469400
C -14.585800 -7.474800 -21.147500
H -14.128000 -10.391700 -26.119100
C -14.099700 -10.998500 -25.374700
C -14.035000 -12.756700 -23.284000
H -14.020000 -13.394600 -22.568500
H -13.817500 -4.470400 -20.160000
C -13.736400 -5.300700 -20.635900
C -13.508300 -7.663400 -22.005900
H -13.431800 -8.478100 -22.507300
C -13.126100 -11.966700 -25.316900
C -13.074000 -12.846000 -24.276700
C -12.668300 -5.498600 -21.450100
C -12.550400 -6.679400 -22.133400
H -12.388200 -13.515600 -24.232500
H -12.002200 -4.814100 -21.548700
Cl -11.997800 -12.102200 -26.615400
H -11.794200 -6.824600 -22.706100
