37
Fragment
H -10.445100 -10.526100 -28.284500
Cl -10.241500 -5.248500 -24.375200
H -10.237200 -12.536600 -29.442000
H -9.851200 -3.835100 -26.758200
C -9.688900 -10.671300 -28.857300
C -9.571000 -11.852100 -29.540600
C -9.165300 -4.504700 -26.714000
C -9.113200 -5.384000 -25.673800
H -8.807500 -8.872600 -28.483400
C -8.731000 -9.687200 -28.984800
C -8.502900 -12.050000 -30.354700
H -8.421900 -12.880300 -30.830700
H -8.219300 -3.956100 -28.422200
C -8.204300 -4.594000 -27.706600
C -8.139700 -6.352200 -25.616000
H -8.111300 -6.959000 -24.871600
C -7.653500 -9.875900 -29.843100
C -7.514300 -11.067100 -30.521300
C -7.221700 -5.572700 -27.706600
C -7.204000 -6.453700 -26.620500
H -7.107000 -6.639200 -32.098600
N -6.824100 -7.744700 -29.413100
H -6.759100 -11.220400 -31.094100
N -6.708700 -8.857000 -30.082800
H -6.312900 -6.416200 -33.541700
N -6.289400 -6.534500 -32.589800
C -6.226500 -5.536500 -28.828400
C -6.029700 -6.733500 -29.618800
H -6.002200 -8.978500 -30.720200
Cl -5.964000 -7.652600 -26.465900
O -5.643900 -4.503300 -29.088500
C -5.117200 -6.555200 -31.947400
N -4.990500 -6.713000 -30.592700
N -3.913000 -6.424900 -32.491300
C -3.649400 -6.621800 -30.354700
H -3.250100 -6.674000 -29.482800
N -2.987800 -6.460100 -31.456100
37
Fragment
H -10.753200 -0.383800 -28.284500
Cl -10.549600 4.893900 -24.375200
H -10.545300 -2.394300 -29.442000
H -10.159300 6.307200 -26.758200
C -9.997100 -0.529000 -28.857300
C -9.879200 -1.709800 -29.540600
C -9.473400 5.637600 -26.714000
C -9.421300 4.758300 -25.673800
H -9.115600 1.269700 -28.483400
C -9.039100 0.455100 -28.984800
C -8.811000 -1.907700 -30.354700
H -8.730000 -2.738000 -30.830700
H -8.527400 6.186200 -28.422200
C -8.512400 5.548400 -27.706600
C -8.447800 3.790100 -25.616000
H -8.419400 3.183300 -24.871600
C -7.961600 0.266500 -29.843100
C -7.822400 -0.924800 -30.521300
C -7.529800 4.569600 -27.706600
C -7.512100 3.688700 -26.620500
H -7.415100 3.503200 -32.098600
N -7.132200 2.397600 -29.413100
H -7.067200 -1.078100 -31.094100
N -7.016800 1.285300 -30.082800
H -6.621000 3.726200 -33.541700
N -6.597500 3.607800 -32.589800
C -6.534700 4.605800 -28.828400
C -6.337900 3.408800 -29.618800
H -6.310300 1.163800 -30.720200
Cl -6.272100 2.489700 -26.465900
O -5.952000 5.639000 -29.088500
C -5.425300 3.587100 -31.947400
N -5.298600 3.429400 -30.592700
N -4.221100 3.717400 -32.491300
C -3.957500 3.520500 -30.354700
H -3.558200 3.468300 -29.482800
N -3.295900 3.682200 -31.456100
74
Fragment
H -10.445100 -10.526100 -28.284500
Cl -10.241500 -5.248500 -24.375200
H -10.237200 -12.536600 -29.442000
H -9.851200 -3.835100 -26.758200
C -9.688900 -10.671300 -28.857300
C -9.571000 -11.852100 -29.540600
C -9.165300 -4.504700 -26.714000
C -9.113200 -5.384000 -25.673800
H -8.807500 -8.872600 -28.483400
C -8.731000 -9.687200 -28.984800
C -8.502900 -12.050000 -30.354700
H -8.421900 -12.880300 -30.830700
H -8.219300 -3.956100 -28.422200
C -8.204300 -4.594000 -27.706600
C -8.139700 -6.352200 -25.616000
H -8.111300 -6.959000 -24.871600
C -7.653500 -9.875900 -29.843100
C -7.514300 -11.067100 -30.521300
C -7.221700 -5.572700 -27.706600
C -7.204000 -6.453700 -26.620500
H -7.107000 -6.639200 -32.098600
N -6.824100 -7.744700 -29.413100
H -6.759100 -11.220400 -31.094100
N -6.708700 -8.857000 -30.082800
H -6.312900 -6.416200 -33.541700
N -6.289400 -6.534500 -32.589800
C -6.226500 -5.536500 -28.828400
C -6.029700 -6.733500 -29.618800
H -6.002200 -8.978500 -30.720200
Cl -5.964000 -7.652600 -26.465900
O -5.643900 -4.503300 -29.088500
C -5.117200 -6.555200 -31.947400
N -4.990500 -6.713000 -30.592700
N -3.913000 -6.424900 -32.491300
C -3.649400 -6.621800 -30.354700
H -3.250100 -6.674000 -29.482800
N -2.987800 -6.460100 -31.456100
H -10.753200 -0.383800 -28.284500
Cl -10.549600 4.893900 -24.375200
H -10.545300 -2.394300 -29.442000
H -10.159300 6.307200 -26.758200
C -9.997100 -0.529000 -28.857300
C -9.879200 -1.709800 -29.540600
C -9.473400 5.637600 -26.714000
C -9.421300 4.758300 -25.673800
H -9.115600 1.269700 -28.483400
C -9.039100 0.455100 -28.984800
C -8.811000 -1.907700 -30.354700
H -8.730000 -2.738000 -30.830700
H -8.527400 6.186200 -28.422200
C -8.512400 5.548400 -27.706600
C -8.447800 3.790100 -25.616000
H -8.419400 3.183300 -24.871600
C -7.961600 0.266500 -29.843100
C -7.822400 -0.924800 -30.521300
C -7.529800 4.569600 -27.706600
C -7.512100 3.688700 -26.620500
H -7.415100 3.503200 -32.098600
N -7.132200 2.397600 -29.413100
H -7.067200 -1.078100 -31.094100
N -7.016800 1.285300 -30.082800
H -6.621000 3.726200 -33.541700
N -6.597500 3.607800 -32.589800
C -6.534700 4.605800 -28.828400
C -6.337900 3.408800 -29.618800
H -6.310300 1.163800 -30.720200
Cl -6.272100 2.489700 -26.465900
O -5.952000 5.639000 -29.088500
C -5.425300 3.587100 -31.947400
N -5.298600 3.429400 -30.592700
N -4.221100 3.717400 -32.491300
C -3.957500 3.520500 -30.354700
H -3.558200 3.468300 -29.482800
N -3.295900 3.682200 -31.456100
