37
Fragment
H -10.445100 -10.526100 -28.284500
Cl -10.241500 -5.248500 -24.375200
H -10.237200 -12.536600 -29.442000
H -9.851200 -3.835100 -26.758200
C -9.688900 -10.671300 -28.857300
C -9.571000 -11.852100 -29.540600
C -9.165300 -4.504700 -26.714000
C -9.113200 -5.384000 -25.673800
H -8.807500 -8.872600 -28.483400
C -8.731000 -9.687200 -28.984800
C -8.502900 -12.050000 -30.354700
H -8.421900 -12.880300 -30.830700
H -8.219300 -3.956100 -28.422200
C -8.204300 -4.594000 -27.706600
C -8.139700 -6.352200 -25.616000
H -8.111300 -6.959000 -24.871600
C -7.653500 -9.875900 -29.843100
C -7.514300 -11.067100 -30.521300
C -7.221700 -5.572700 -27.706600
C -7.204000 -6.453700 -26.620500
H -7.107000 -6.639200 -32.098600
N -6.824100 -7.744700 -29.413100
H -6.759100 -11.220400 -31.094100
N -6.708700 -8.857000 -30.082800
H -6.312900 -6.416200 -33.541700
N -6.289400 -6.534500 -32.589800
C -6.226500 -5.536500 -28.828400
C -6.029700 -6.733500 -29.618800
H -6.002200 -8.978500 -30.720200
Cl -5.964000 -7.652600 -26.465900
O -5.643900 -4.503300 -29.088500
C -5.117200 -6.555200 -31.947400
N -4.990500 -6.713000 -30.592700
N -3.913000 -6.424900 -32.491300
C -3.649400 -6.621800 -30.354700
H -3.250100 -6.674000 -29.482800
N -2.987800 -6.460100 -31.456100
37
Fragment
H -16.176000 -20.668400 -28.284500
Cl -15.972400 -15.390800 -24.375200
H -15.968100 -22.678900 -29.442000
H -15.582100 -13.977400 -26.758200
C -15.419800 -20.813600 -28.857300
C -15.301900 -21.994400 -29.540600
C -14.896200 -14.647000 -26.714000
C -14.844100 -15.526400 -25.673800
H -14.538400 -19.014900 -28.483400
C -14.461900 -19.829600 -28.984800
C -14.233800 -22.192300 -30.354700
H -14.152800 -23.022700 -30.830700
H -13.950200 -14.098400 -28.422200
C -13.935200 -14.736300 -27.706600
C -13.870600 -16.494600 -25.616000
H -13.842200 -17.101300 -24.871600
C -13.384400 -20.018200 -29.843100
C -13.245200 -21.209400 -30.521300
C -12.952600 -15.715000 -27.706600
C -12.934900 -16.596000 -26.620500
H -12.837900 -16.781500 -32.098600
N -12.555000 -17.887000 -29.413100
H -12.490000 -21.362800 -31.094100
N -12.439600 -18.999300 -30.082800
H -12.043800 -16.558500 -33.541700
N -12.020300 -16.676800 -32.589800
C -11.957400 -15.678900 -28.828400
C -11.760600 -16.875800 -29.618800
H -11.733100 -19.120800 -30.720200
Cl -11.694800 -17.794900 -26.465900
O -11.374800 -14.645600 -29.088500
C -10.848100 -16.697500 -31.947400
N -10.721400 -16.855300 -30.592700
N -9.643900 -16.567200 -32.491300
C -9.380300 -16.764200 -30.354700
H -8.981000 -16.816400 -29.482800
N -8.718700 -16.602400 -31.456100
74
Fragment
H -10.445100 -10.526100 -28.284500
Cl -10.241500 -5.248500 -24.375200
H -10.237200 -12.536600 -29.442000
H -9.851200 -3.835100 -26.758200
C -9.688900 -10.671300 -28.857300
C -9.571000 -11.852100 -29.540600
C -9.165300 -4.504700 -26.714000
C -9.113200 -5.384000 -25.673800
H -8.807500 -8.872600 -28.483400
C -8.731000 -9.687200 -28.984800
C -8.502900 -12.050000 -30.354700
H -8.421900 -12.880300 -30.830700
H -8.219300 -3.956100 -28.422200
C -8.204300 -4.594000 -27.706600
C -8.139700 -6.352200 -25.616000
H -8.111300 -6.959000 -24.871600
C -7.653500 -9.875900 -29.843100
C -7.514300 -11.067100 -30.521300
C -7.221700 -5.572700 -27.706600
C -7.204000 -6.453700 -26.620500
H -7.107000 -6.639200 -32.098600
N -6.824100 -7.744700 -29.413100
H -6.759100 -11.220400 -31.094100
N -6.708700 -8.857000 -30.082800
H -6.312900 -6.416200 -33.541700
N -6.289400 -6.534500 -32.589800
C -6.226500 -5.536500 -28.828400
C -6.029700 -6.733500 -29.618800
H -6.002200 -8.978500 -30.720200
Cl -5.964000 -7.652600 -26.465900
O -5.643900 -4.503300 -29.088500
C -5.117200 -6.555200 -31.947400
N -4.990500 -6.713000 -30.592700
N -3.913000 -6.424900 -32.491300
C -3.649400 -6.621800 -30.354700
H -3.250100 -6.674000 -29.482800
N -2.987800 -6.460100 -31.456100
H -16.176000 -20.668400 -28.284500
Cl -15.972400 -15.390800 -24.375200
H -15.968100 -22.678900 -29.442000
H -15.582100 -13.977400 -26.758200
C -15.419800 -20.813600 -28.857300
C -15.301900 -21.994400 -29.540600
C -14.896200 -14.647000 -26.714000
C -14.844100 -15.526400 -25.673800
H -14.538400 -19.014900 -28.483400
C -14.461900 -19.829600 -28.984800
C -14.233800 -22.192300 -30.354700
H -14.152800 -23.022700 -30.830700
H -13.950200 -14.098400 -28.422200
C -13.935200 -14.736300 -27.706600
C -13.870600 -16.494600 -25.616000
H -13.842200 -17.101300 -24.871600
C -13.384400 -20.018200 -29.843100
C -13.245200 -21.209400 -30.521300
C -12.952600 -15.715000 -27.706600
C -12.934900 -16.596000 -26.620500
H -12.837900 -16.781500 -32.098600
N -12.555000 -17.887000 -29.413100
H -12.490000 -21.362800 -31.094100
N -12.439600 -18.999300 -30.082800
H -12.043800 -16.558500 -33.541700
N -12.020300 -16.676800 -32.589800
C -11.957400 -15.678900 -28.828400
C -11.760600 -16.875800 -29.618800
H -11.733100 -19.120800 -30.720200
Cl -11.694800 -17.794900 -26.465900
O -11.374800 -14.645600 -29.088500
C -10.848100 -16.697500 -31.947400
N -10.721400 -16.855300 -30.592700
N -9.643900 -16.567200 -32.491300
C -9.380300 -16.764200 -30.354700
H -8.981000 -16.816400 -29.482800
N -8.718700 -16.602400 -31.456100
