34
Fragment
H -8.984300 -33.270400 -10.800200
H -8.349200 -31.415900 -12.035900
C -8.105400 -33.543800 -10.528800
H -8.090400 -33.672500 -9.577100
H -7.877500 -34.366300 -10.966600
H -7.831300 -29.680300 -13.592700
H -7.496000 -37.824500 -6.083200
C -7.467800 -31.456600 -11.742300
H -7.460800 -28.636400 -12.484900
C -7.121200 -29.335400 -13.046900
C -7.116400 -32.489300 -10.905100
H -7.061000 -35.933300 -7.358200
C -6.624400 -37.633000 -6.345400
C -6.564100 -30.440700 -12.190900
H -6.426300 -28.984400 -13.609400
C -6.366200 -36.500200 -7.111100
N -5.849600 -32.553500 -10.424800
N -5.822300 -34.559700 -9.101200
H -5.764200 -39.229400 -5.448600
C -5.588300 -38.480100 -5.970400
O -5.351800 -30.431200 -11.886000
H -5.331700 -31.904400 -10.671500
C -5.278000 -33.445500 -9.537400
C -5.058800 -36.222500 -7.504600
N -4.810400 -35.051400 -8.272600
C -4.290600 -38.202700 -6.377200
N -4.025300 -33.156300 -9.075700
C -4.018100 -37.081800 -7.161100
C -3.766400 -34.178000 -8.261900
H -3.597600 -38.769000 -6.125000
H -3.151100 -36.910200 -7.451000
N -2.622700 -34.323200 -7.559300
H -2.611000 -34.824500 -6.780400
H -2.153100 -33.581700 -7.524500
34
Fragment
H -13.348300 -44.388700 -13.377000
H -12.890400 -45.631500 -14.121000
N -12.878600 -45.130200 -13.342200
H -12.350300 -47.717200 -13.450500
H -11.903800 -49.576000 -14.776500
C -11.735000 -44.985000 -12.639600
C -11.483300 -47.888800 -13.740400
N -11.476100 -43.963300 -11.825800
C -11.210800 -49.009700 -14.524300
N -10.691000 -45.858400 -12.628800
C -10.442600 -47.029500 -13.396900
C -10.223400 -44.252500 -11.364100
H -10.169700 -42.711400 -10.230000
O -10.149600 -41.238200 -9.015500
C -9.913100 -49.287100 -14.931100
H -9.737200 -50.036400 -15.452900
N -9.679100 -45.366700 -11.800300
N -9.651800 -43.360500 -10.476700
C -9.135200 -47.307200 -13.790400
H -9.075100 -39.791400 -7.292100
C -8.937300 -41.247700 -8.710600
C -8.877000 -48.440000 -14.556100
H -8.440400 -46.740300 -13.543300
C -8.384900 -43.296300 -9.996300
C -8.380200 -40.142400 -7.854600
H -8.040600 -39.443400 -8.416600
C -8.033600 -42.263600 -9.159200
H -8.005400 -48.631500 -14.818300
H -7.670100 -40.487300 -7.308800
H -7.623900 -45.173300 -9.934900
H -7.411000 -44.479500 -11.324400
C -7.396000 -44.350800 -10.372700
H -7.152200 -42.222900 -8.865600
H -6.517100 -44.077400 -10.101300
68
Fragment
H -8.984300 -33.270400 -10.800200
H -8.349200 -31.415900 -12.035900
C -8.105400 -33.543800 -10.528800
H -8.090400 -33.672500 -9.577100
H -7.877500 -34.366300 -10.966600
H -7.831300 -29.680300 -13.592700
H -7.496000 -37.824500 -6.083200
C -7.467800 -31.456600 -11.742300
H -7.460800 -28.636400 -12.484900
C -7.121200 -29.335400 -13.046900
C -7.116400 -32.489300 -10.905100
H -7.061000 -35.933300 -7.358200
C -6.624400 -37.633000 -6.345400
C -6.564100 -30.440700 -12.190900
H -6.426300 -28.984400 -13.609400
C -6.366200 -36.500200 -7.111100
N -5.849600 -32.553500 -10.424800
N -5.822300 -34.559700 -9.101200
H -5.764200 -39.229400 -5.448600
C -5.588300 -38.480100 -5.970400
O -5.351800 -30.431200 -11.886000
H -5.331700 -31.904400 -10.671500
C -5.278000 -33.445500 -9.537400
C -5.058800 -36.222500 -7.504600
N -4.810400 -35.051400 -8.272600
C -4.290600 -38.202700 -6.377200
N -4.025300 -33.156300 -9.075700
C -4.018100 -37.081800 -7.161100
C -3.766400 -34.178000 -8.261900
H -3.597600 -38.769000 -6.125000
H -3.151100 -36.910200 -7.451000
N -2.622700 -34.323200 -7.559300
H -2.611000 -34.824500 -6.780400
H -2.153100 -33.581700 -7.524500
H -13.348300 -44.388700 -13.377000
H -12.890400 -45.631500 -14.121000
N -12.878600 -45.130200 -13.342200
H -12.350300 -47.717200 -13.450500
H -11.903800 -49.576000 -14.776500
C -11.735000 -44.985000 -12.639600
C -11.483300 -47.888800 -13.740400
N -11.476100 -43.963300 -11.825800
C -11.210800 -49.009700 -14.524300
N -10.691000 -45.858400 -12.628800
C -10.442600 -47.029500 -13.396900
C -10.223400 -44.252500 -11.364100
H -10.169700 -42.711400 -10.230000
O -10.149600 -41.238200 -9.015500
C -9.913100 -49.287100 -14.931100
H -9.737200 -50.036400 -15.452900
N -9.679100 -45.366700 -11.800300
N -9.651800 -43.360500 -10.476700
C -9.135200 -47.307200 -13.790400
H -9.075100 -39.791400 -7.292100
C -8.937300 -41.247700 -8.710600
C -8.877000 -48.440000 -14.556100
H -8.440400 -46.740300 -13.543300
C -8.384900 -43.296300 -9.996300
C -8.380200 -40.142400 -7.854600
H -8.040600 -39.443400 -8.416600
C -8.033600 -42.263600 -9.159200
H -8.005400 -48.631500 -14.818300
H -7.670100 -40.487300 -7.308800
H -7.623900 -45.173300 -9.934900
H -7.411000 -44.479500 -11.324400
C -7.396000 -44.350800 -10.372700
H -7.152200 -42.222900 -8.865600
H -6.517100 -44.077400 -10.101300
