34
Fragment
H -8.984300 -33.270400 -10.800200
H -8.349200 -31.415900 -12.035900
C -8.105400 -33.543800 -10.528800
H -8.090400 -33.672500 -9.577100
H -7.877500 -34.366300 -10.966600
H -7.831300 -29.680300 -13.592700
H -7.496000 -37.824500 -6.083200
C -7.467800 -31.456600 -11.742300
H -7.460800 -28.636400 -12.484900
C -7.121200 -29.335400 -13.046900
C -7.116400 -32.489300 -10.905100
H -7.061000 -35.933300 -7.358200
C -6.624400 -37.633000 -6.345400
C -6.564100 -30.440700 -12.190900
H -6.426300 -28.984400 -13.609400
C -6.366200 -36.500200 -7.111100
N -5.849600 -32.553500 -10.424800
N -5.822300 -34.559700 -9.101200
H -5.764200 -39.229400 -5.448600
C -5.588300 -38.480100 -5.970400
O -5.351800 -30.431200 -11.886000
H -5.331700 -31.904400 -10.671500
C -5.278000 -33.445500 -9.537400
C -5.058800 -36.222500 -7.504600
N -4.810400 -35.051400 -8.272600
C -4.290600 -38.202700 -6.377200
N -4.025300 -33.156300 -9.075700
C -4.018100 -37.081800 -7.161100
C -3.766400 -34.178000 -8.261900
H -3.597600 -38.769000 -6.125000
H -3.151100 -36.910200 -7.451000
N -2.622700 -34.323200 -7.559300
H -2.611000 -34.824500 -6.780400
H -2.153100 -33.581700 -7.524500
34
Fragment
H -5.884000 -42.378600 -6.619900
H -5.248900 -44.233100 -7.855600
C -5.005100 -42.105200 -6.348500
H -4.990100 -41.976500 -5.396800
H -4.777200 -41.282700 -6.786300
H -4.731000 -45.968700 -9.412400
H -4.395700 -37.824500 -1.902900
C -4.367600 -44.192400 -7.562000
H -4.360500 -47.012600 -8.304600
C -4.020900 -46.313600 -8.866600
C -4.016200 -43.159700 -6.724800
H -3.960700 -39.715700 -3.177900
C -3.524100 -38.016000 -2.165100
C -3.463800 -45.208300 -8.010600
H -3.326000 -46.664600 -9.429100
C -3.266000 -39.148800 -2.930800
N -2.749400 -43.095500 -6.244500
N -2.722100 -41.089300 -4.920900
H -2.663900 -36.419600 -1.268300
C -2.488100 -37.168900 -1.790100
O -2.251500 -45.217800 -7.705700
H -2.231400 -43.744600 -6.491200
C -2.177700 -42.203500 -5.357100
C -1.958500 -39.426500 -3.324300
N -1.710100 -40.597600 -4.092300
C -1.190300 -37.446300 -2.196900
N -0.925000 -42.492700 -4.895400
C -0.917800 -38.567200 -2.980800
C -0.666100 -41.471000 -4.081600
H -0.497300 -36.880000 -1.944700
H -0.050800 -38.738800 -3.270700
N 0.477500 -41.325800 -3.379000
H 0.489200 -40.824500 -2.600100
H 0.947200 -42.067300 -3.344200
68
Fragment
H -8.984300 -33.270400 -10.800200
H -8.349200 -31.415900 -12.035900
C -8.105400 -33.543800 -10.528800
H -8.090400 -33.672500 -9.577100
H -7.877500 -34.366300 -10.966600
H -7.831300 -29.680300 -13.592700
H -7.496000 -37.824500 -6.083200
C -7.467800 -31.456600 -11.742300
H -7.460800 -28.636400 -12.484900
C -7.121200 -29.335400 -13.046900
C -7.116400 -32.489300 -10.905100
H -7.061000 -35.933300 -7.358200
C -6.624400 -37.633000 -6.345400
C -6.564100 -30.440700 -12.190900
H -6.426300 -28.984400 -13.609400
C -6.366200 -36.500200 -7.111100
N -5.849600 -32.553500 -10.424800
N -5.822300 -34.559700 -9.101200
H -5.764200 -39.229400 -5.448600
C -5.588300 -38.480100 -5.970400
O -5.351800 -30.431200 -11.886000
H -5.331700 -31.904400 -10.671500
C -5.278000 -33.445500 -9.537400
C -5.058800 -36.222500 -7.504600
N -4.810400 -35.051400 -8.272600
C -4.290600 -38.202700 -6.377200
N -4.025300 -33.156300 -9.075700
C -4.018100 -37.081800 -7.161100
C -3.766400 -34.178000 -8.261900
H -3.597600 -38.769000 -6.125000
H -3.151100 -36.910200 -7.451000
N -2.622700 -34.323200 -7.559300
H -2.611000 -34.824500 -6.780400
H -2.153100 -33.581700 -7.524500
H -5.884000 -42.378600 -6.619900
H -5.248900 -44.233100 -7.855600
C -5.005100 -42.105200 -6.348500
H -4.990100 -41.976500 -5.396800
H -4.777200 -41.282700 -6.786300
H -4.731000 -45.968700 -9.412400
H -4.395700 -37.824500 -1.902900
C -4.367600 -44.192400 -7.562000
H -4.360500 -47.012600 -8.304600
C -4.020900 -46.313600 -8.866600
C -4.016200 -43.159700 -6.724800
H -3.960700 -39.715700 -3.177900
C -3.524100 -38.016000 -2.165100
C -3.463800 -45.208300 -8.010600
H -3.326000 -46.664600 -9.429100
C -3.266000 -39.148800 -2.930800
N -2.749400 -43.095500 -6.244500
N -2.722100 -41.089300 -4.920900
H -2.663900 -36.419600 -1.268300
C -2.488100 -37.168900 -1.790100
O -2.251500 -45.217800 -7.705700
H -2.231400 -43.744600 -6.491200
C -2.177700 -42.203500 -5.357100
C -1.958500 -39.426500 -3.324300
N -1.710100 -40.597600 -4.092300
C -1.190300 -37.446300 -2.196900
N -0.925000 -42.492700 -4.895400
C -0.917800 -38.567200 -2.980800
C -0.666100 -41.471000 -4.081600
H -0.497300 -36.880000 -1.944700
H -0.050800 -38.738800 -3.270700
N 0.477500 -41.325800 -3.379000
H 0.489200 -40.824500 -2.600100
H 0.947200 -42.067300 -3.344200
