34
Fragment
H -8.984300 -33.270400 -10.800200
H -8.349200 -31.415900 -12.035900
C -8.105400 -33.543800 -10.528800
H -8.090400 -33.672500 -9.577100
H -7.877500 -34.366300 -10.966600
H -7.831300 -29.680300 -13.592700
H -7.496000 -37.824500 -6.083200
C -7.467800 -31.456600 -11.742300
H -7.460800 -28.636400 -12.484900
C -7.121200 -29.335400 -13.046900
C -7.116400 -32.489300 -10.905100
H -7.061000 -35.933300 -7.358200
C -6.624400 -37.633000 -6.345400
C -6.564100 -30.440700 -12.190900
H -6.426300 -28.984400 -13.609400
C -6.366200 -36.500200 -7.111100
N -5.849600 -32.553500 -10.424800
N -5.822300 -34.559700 -9.101200
H -5.764200 -39.229400 -5.448600
C -5.588300 -38.480100 -5.970400
O -5.351800 -30.431200 -11.886000
H -5.331700 -31.904400 -10.671500
C -5.278000 -33.445500 -9.537400
C -5.058800 -36.222500 -7.504600
N -4.810400 -35.051400 -8.272600
C -4.290600 -38.202700 -6.377200
N -4.025300 -33.156300 -9.075700
C -4.018100 -37.081800 -7.161100
C -3.766400 -34.178000 -8.261900
H -3.597600 -38.769000 -6.125000
H -3.151100 -36.910200 -7.451000
N -2.622700 -34.323200 -7.559300
H -2.611000 -34.824500 -6.780400
H -2.153100 -33.581700 -7.524500
34
Fragment
H -1.613500 -33.270400 -10.800200
H -0.978400 -31.415900 -12.035900
C -0.734600 -33.543800 -10.528800
H -0.719600 -33.672500 -9.577100
H -0.506700 -34.366300 -10.966600
H -0.460500 -29.680300 -13.592700
H -0.125200 -37.824500 -6.083200
C -0.097000 -31.456600 -11.742300
H -0.090000 -28.636400 -12.484900
C 0.249600 -29.335400 -13.046900
C 0.254400 -32.489300 -10.905100
H 0.309800 -35.933300 -7.358200
C 0.746400 -37.633000 -6.345400
C 0.806700 -30.440700 -12.190900
H 0.944500 -28.984400 -13.609400
C 1.004600 -36.500200 -7.111100
N 1.521200 -32.553500 -10.424800
N 1.548500 -34.559700 -9.101200
H 1.606600 -39.229400 -5.448600
C 1.782500 -38.480100 -5.970400
O 2.019000 -30.431200 -11.886000
H 2.039100 -31.904400 -10.671500
C 2.092800 -33.445500 -9.537400
C 2.312000 -36.222500 -7.504600
N 2.560400 -35.051400 -8.272600
C 3.080200 -38.202700 -6.377200
N 3.345500 -33.156300 -9.075700
C 3.352700 -37.081800 -7.161100
C 3.604400 -34.178000 -8.261900
H 3.773200 -38.769000 -6.125000
H 4.219700 -36.910200 -7.451000
N 4.748100 -34.323200 -7.559300
H 4.759800 -34.824500 -6.780400
H 5.217700 -33.581700 -7.524500
68
Fragment
H -8.984300 -33.270400 -10.800200
H -8.349200 -31.415900 -12.035900
C -8.105400 -33.543800 -10.528800
H -8.090400 -33.672500 -9.577100
H -7.877500 -34.366300 -10.966600
H -7.831300 -29.680300 -13.592700
H -7.496000 -37.824500 -6.083200
C -7.467800 -31.456600 -11.742300
H -7.460800 -28.636400 -12.484900
C -7.121200 -29.335400 -13.046900
C -7.116400 -32.489300 -10.905100
H -7.061000 -35.933300 -7.358200
C -6.624400 -37.633000 -6.345400
C -6.564100 -30.440700 -12.190900
H -6.426300 -28.984400 -13.609400
C -6.366200 -36.500200 -7.111100
N -5.849600 -32.553500 -10.424800
N -5.822300 -34.559700 -9.101200
H -5.764200 -39.229400 -5.448600
C -5.588300 -38.480100 -5.970400
O -5.351800 -30.431200 -11.886000
H -5.331700 -31.904400 -10.671500
C -5.278000 -33.445500 -9.537400
C -5.058800 -36.222500 -7.504600
N -4.810400 -35.051400 -8.272600
C -4.290600 -38.202700 -6.377200
N -4.025300 -33.156300 -9.075700
C -4.018100 -37.081800 -7.161100
C -3.766400 -34.178000 -8.261900
H -3.597600 -38.769000 -6.125000
H -3.151100 -36.910200 -7.451000
N -2.622700 -34.323200 -7.559300
H -2.611000 -34.824500 -6.780400
H -2.153100 -33.581700 -7.524500
H -1.613500 -33.270400 -10.800200
H -0.978400 -31.415900 -12.035900
C -0.734600 -33.543800 -10.528800
H -0.719600 -33.672500 -9.577100
H -0.506700 -34.366300 -10.966600
H -0.460500 -29.680300 -13.592700
H -0.125200 -37.824500 -6.083200
C -0.097000 -31.456600 -11.742300
H -0.090000 -28.636400 -12.484900
C 0.249600 -29.335400 -13.046900
C 0.254400 -32.489300 -10.905100
H 0.309800 -35.933300 -7.358200
C 0.746400 -37.633000 -6.345400
C 0.806700 -30.440700 -12.190900
H 0.944500 -28.984400 -13.609400
C 1.004600 -36.500200 -7.111100
N 1.521200 -32.553500 -10.424800
N 1.548500 -34.559700 -9.101200
H 1.606600 -39.229400 -5.448600
C 1.782500 -38.480100 -5.970400
O 2.019000 -30.431200 -11.886000
H 2.039100 -31.904400 -10.671500
C 2.092800 -33.445500 -9.537400
C 2.312000 -36.222500 -7.504600
N 2.560400 -35.051400 -8.272600
C 3.080200 -38.202700 -6.377200
N 3.345500 -33.156300 -9.075700
C 3.352700 -37.081800 -7.161100
C 3.604400 -34.178000 -8.261900
H 3.773200 -38.769000 -6.125000
H 4.219700 -36.910200 -7.451000
N 4.748100 -34.323200 -7.559300
H 4.759800 -34.824500 -6.780400
H 5.217700 -33.581700 -7.524500
