34
Fragment
H -8.984300 -33.270400 -10.800200
H -8.349200 -31.415900 -12.035900
C -8.105400 -33.543800 -10.528800
H -8.090400 -33.672500 -9.577100
H -7.877500 -34.366300 -10.966600
H -7.831300 -29.680300 -13.592700
H -7.496000 -37.824500 -6.083200
C -7.467800 -31.456600 -11.742300
H -7.460800 -28.636400 -12.484900
C -7.121200 -29.335400 -13.046900
C -7.116400 -32.489300 -10.905100
H -7.061000 -35.933300 -7.358200
C -6.624400 -37.633000 -6.345400
C -6.564100 -30.440700 -12.190900
H -6.426300 -28.984400 -13.609400
C -6.366200 -36.500200 -7.111100
N -5.849600 -32.553500 -10.424800
N -5.822300 -34.559700 -9.101200
H -5.764200 -39.229400 -5.448600
C -5.588300 -38.480100 -5.970400
O -5.351800 -30.431200 -11.886000
H -5.331700 -31.904400 -10.671500
C -5.278000 -33.445500 -9.537400
C -5.058800 -36.222500 -7.504600
N -4.810400 -35.051400 -8.272600
C -4.290600 -38.202700 -6.377200
N -4.025300 -33.156300 -9.075700
C -4.018100 -37.081800 -7.161100
C -3.766400 -34.178000 -8.261900
H -3.597600 -38.769000 -6.125000
H -3.151100 -36.910200 -7.451000
N -2.622700 -34.323200 -7.559300
H -2.611000 -34.824500 -6.780400
H -2.153100 -33.581700 -7.524500
34
Fragment
H -5.977500 -22.774700 -13.377000
H -5.519600 -24.017500 -14.121000
N -5.507800 -23.516200 -13.342200
H -4.979500 -26.103200 -13.450500
H -4.533000 -27.962000 -14.776500
C -4.364200 -23.371000 -12.639600
C -4.112500 -26.274800 -13.740400
N -4.105300 -22.349300 -11.825800
C -3.840000 -27.395700 -14.524300
N -3.320200 -24.244400 -12.628800
C -3.071800 -25.415500 -13.396900
C -2.852600 -22.638500 -11.364100
H -2.798900 -21.097400 -10.230000
O -2.778800 -19.624200 -9.015500
C -2.542300 -27.673100 -14.931100
H -2.366400 -28.422400 -15.452900
N -2.308300 -23.752700 -11.800300
N -2.281000 -21.746500 -10.476700
C -1.764400 -25.693200 -13.790400
H -1.704300 -18.177400 -7.292100
C -1.566500 -19.633700 -8.710600
C -1.506200 -26.826000 -14.556100
H -1.069600 -25.126300 -13.543300
C -1.014100 -21.682300 -9.996300
C -1.009400 -18.528400 -7.854600
H -0.669800 -17.829400 -8.416600
C -0.662800 -20.649600 -9.159200
H -0.634600 -27.017500 -14.818300
H -0.299300 -18.873300 -7.308800
H -0.253100 -23.559300 -9.934900
H -0.040200 -22.865500 -11.324400
C -0.025200 -22.736800 -10.372700
H 0.218600 -20.608900 -8.865600
H 0.853700 -22.463400 -10.101300
68
Fragment
H -8.984300 -33.270400 -10.800200
H -8.349200 -31.415900 -12.035900
C -8.105400 -33.543800 -10.528800
H -8.090400 -33.672500 -9.577100
H -7.877500 -34.366300 -10.966600
H -7.831300 -29.680300 -13.592700
H -7.496000 -37.824500 -6.083200
C -7.467800 -31.456600 -11.742300
H -7.460800 -28.636400 -12.484900
C -7.121200 -29.335400 -13.046900
C -7.116400 -32.489300 -10.905100
H -7.061000 -35.933300 -7.358200
C -6.624400 -37.633000 -6.345400
C -6.564100 -30.440700 -12.190900
H -6.426300 -28.984400 -13.609400
C -6.366200 -36.500200 -7.111100
N -5.849600 -32.553500 -10.424800
N -5.822300 -34.559700 -9.101200
H -5.764200 -39.229400 -5.448600
C -5.588300 -38.480100 -5.970400
O -5.351800 -30.431200 -11.886000
H -5.331700 -31.904400 -10.671500
C -5.278000 -33.445500 -9.537400
C -5.058800 -36.222500 -7.504600
N -4.810400 -35.051400 -8.272600
C -4.290600 -38.202700 -6.377200
N -4.025300 -33.156300 -9.075700
C -4.018100 -37.081800 -7.161100
C -3.766400 -34.178000 -8.261900
H -3.597600 -38.769000 -6.125000
H -3.151100 -36.910200 -7.451000
N -2.622700 -34.323200 -7.559300
H -2.611000 -34.824500 -6.780400
H -2.153100 -33.581700 -7.524500
H -5.977500 -22.774700 -13.377000
H -5.519600 -24.017500 -14.121000
N -5.507800 -23.516200 -13.342200
H -4.979500 -26.103200 -13.450500
H -4.533000 -27.962000 -14.776500
C -4.364200 -23.371000 -12.639600
C -4.112500 -26.274800 -13.740400
N -4.105300 -22.349300 -11.825800
C -3.840000 -27.395700 -14.524300
N -3.320200 -24.244400 -12.628800
C -3.071800 -25.415500 -13.396900
C -2.852600 -22.638500 -11.364100
H -2.798900 -21.097400 -10.230000
O -2.778800 -19.624200 -9.015500
C -2.542300 -27.673100 -14.931100
H -2.366400 -28.422400 -15.452900
N -2.308300 -23.752700 -11.800300
N -2.281000 -21.746500 -10.476700
C -1.764400 -25.693200 -13.790400
H -1.704300 -18.177400 -7.292100
C -1.566500 -19.633700 -8.710600
C -1.506200 -26.826000 -14.556100
H -1.069600 -25.126300 -13.543300
C -1.014100 -21.682300 -9.996300
C -1.009400 -18.528400 -7.854600
H -0.669800 -17.829400 -8.416600
C -0.662800 -20.649600 -9.159200
H -0.634600 -27.017500 -14.818300
H -0.299300 -18.873300 -7.308800
H -0.253100 -23.559300 -9.934900
H -0.040200 -22.865500 -11.324400
C -0.025200 -22.736800 -10.372700
H 0.218600 -20.608900 -8.865600
H 0.853700 -22.463400 -10.101300
