29
Fragment
H -13.181400 -20.158900 -20.990600
H -13.121200 -18.562000 -21.074900
C -12.628900 -19.391500 -21.248400
H -12.567200 -15.565700 -18.205200
H -12.424500 -17.234500 -14.502300
H -12.413700 -19.449300 -22.202200
N -12.307900 -18.375800 -12.880500
N -12.273600 -18.038600 -14.178900
H -12.158700 -22.997200 -17.810300
N -12.042400 -19.641200 -12.818400
H -11.979100 -17.166800 -16.680700
C -11.971000 -19.129100 -14.901900
C -11.874300 -18.007600 -17.111900
C -11.838600 -19.185500 -16.364300
N -11.817900 -20.140600 -14.065200
O -11.765500 -16.997500 -19.329000
C -11.755800 -18.075300 -18.502800
C -11.744000 -15.698300 -18.719600
C -11.682100 -20.432600 -16.977100
H -11.679500 -15.012700 -19.416800
H -11.644200 -21.224000 -16.453300
C -11.609700 -19.325200 -19.123900
C -11.583000 -20.500300 -18.362200
O -11.438400 -21.640100 -19.075800
O -11.423000 -19.395700 -20.486700
C -11.346500 -22.871700 -18.344600
H -11.250500 -23.617900 -18.971500
H -10.970400 -15.630600 -18.122000
H -10.566800 -22.842100 -17.750500
29
Fragment
H -12.102300 -29.895600 -23.262700
H -11.698700 -22.684100 -22.891200
H -11.418600 -30.671400 -22.041700
C -11.322600 -29.925200 -22.668600
O -11.246100 -26.449200 -20.526500
O -11.230800 -28.693600 -21.937400
C -11.086100 -27.553800 -22.651000
C -11.059400 -26.378700 -21.889300
H -11.024900 -28.277500 -24.559900
H -10.989600 -22.066200 -21.596400
C -10.987000 -27.486100 -24.036100
C -10.925100 -22.751800 -22.293600
C -10.913300 -25.128800 -22.510400
O -10.903600 -24.051000 -21.684300
N -10.851200 -27.194100 -26.948000
C -10.830500 -26.239000 -24.649000
C -10.794800 -25.061100 -23.901300
C -10.698100 -26.182600 -26.111400
H -10.690000 -24.220300 -24.332600
N -10.626700 -26.694700 -28.194800
H -10.510400 -30.050700 -23.202900
N -10.395500 -25.092100 -26.834400
N -10.361200 -25.429300 -28.132700
H -10.255400 -26.502800 -18.811000
H -10.244600 -24.288000 -26.511000
H -10.102000 -22.619200 -22.808000
C -10.040200 -26.445000 -19.764900
H -9.547900 -25.615500 -19.938300
H -9.487800 -27.212400 -20.022700
58
Fragment
H -13.181400 -20.158900 -20.990600
H -13.121200 -18.562000 -21.074900
C -12.628900 -19.391500 -21.248400
H -12.567200 -15.565700 -18.205200
H -12.424500 -17.234500 -14.502300
H -12.413700 -19.449300 -22.202200
N -12.307900 -18.375800 -12.880500
N -12.273600 -18.038600 -14.178900
H -12.158700 -22.997200 -17.810300
N -12.042400 -19.641200 -12.818400
H -11.979100 -17.166800 -16.680700
C -11.971000 -19.129100 -14.901900
C -11.874300 -18.007600 -17.111900
C -11.838600 -19.185500 -16.364300
N -11.817900 -20.140600 -14.065200
O -11.765500 -16.997500 -19.329000
C -11.755800 -18.075300 -18.502800
C -11.744000 -15.698300 -18.719600
C -11.682100 -20.432600 -16.977100
H -11.679500 -15.012700 -19.416800
H -11.644200 -21.224000 -16.453300
C -11.609700 -19.325200 -19.123900
C -11.583000 -20.500300 -18.362200
O -11.438400 -21.640100 -19.075800
O -11.423000 -19.395700 -20.486700
C -11.346500 -22.871700 -18.344600
H -11.250500 -23.617900 -18.971500
H -10.970400 -15.630600 -18.122000
H -10.566800 -22.842100 -17.750500
H -12.102300 -29.895600 -23.262700
H -11.698700 -22.684100 -22.891200
H -11.418600 -30.671400 -22.041700
C -11.322600 -29.925200 -22.668600
O -11.246100 -26.449200 -20.526500
O -11.230800 -28.693600 -21.937400
C -11.086100 -27.553800 -22.651000
C -11.059400 -26.378700 -21.889300
H -11.024900 -28.277500 -24.559900
H -10.989600 -22.066200 -21.596400
C -10.987000 -27.486100 -24.036100
C -10.925100 -22.751800 -22.293600
C -10.913300 -25.128800 -22.510400
O -10.903600 -24.051000 -21.684300
N -10.851200 -27.194100 -26.948000
C -10.830500 -26.239000 -24.649000
C -10.794800 -25.061100 -23.901300
C -10.698100 -26.182600 -26.111400
H -10.690000 -24.220300 -24.332600
N -10.626700 -26.694700 -28.194800
H -10.510400 -30.050700 -23.202900
N -10.395500 -25.092100 -26.834400
N -10.361200 -25.429300 -28.132700
H -10.255400 -26.502800 -18.811000
H -10.244600 -24.288000 -26.511000
H -10.102000 -22.619200 -22.808000
C -10.040200 -26.445000 -19.764900
H -9.547900 -25.615500 -19.938300
H -9.487800 -27.212400 -20.022700
