29
Fragment
H -13.181400 -20.158900 -20.990600
H -13.121200 -18.562000 -21.074900
C -12.628900 -19.391500 -21.248400
H -12.567200 -15.565700 -18.205200
H -12.424500 -17.234500 -14.502300
H -12.413700 -19.449300 -22.202200
N -12.307900 -18.375800 -12.880500
N -12.273600 -18.038600 -14.178900
H -12.158700 -22.997200 -17.810300
N -12.042400 -19.641200 -12.818400
H -11.979100 -17.166800 -16.680700
C -11.971000 -19.129100 -14.901900
C -11.874300 -18.007600 -17.111900
C -11.838600 -19.185500 -16.364300
N -11.817900 -20.140600 -14.065200
O -11.765500 -16.997500 -19.329000
C -11.755800 -18.075300 -18.502800
C -11.744000 -15.698300 -18.719600
C -11.682100 -20.432600 -16.977100
H -11.679500 -15.012700 -19.416800
H -11.644200 -21.224000 -16.453300
C -11.609700 -19.325200 -19.123900
C -11.583000 -20.500300 -18.362200
O -11.438400 -21.640100 -19.075800
O -11.423000 -19.395700 -20.486700
C -11.346500 -22.871700 -18.344600
H -11.250500 -23.617900 -18.971500
H -10.970400 -15.630600 -18.122000
H -10.566800 -22.842100 -17.750500
29
Fragment
H -12.940400 -15.788600 -11.544600
H -12.536800 -8.577100 -11.173200
H -12.256700 -16.564400 -10.323600
C -12.160700 -15.818200 -10.950500
O -12.084200 -12.342200 -8.808500
O -12.068900 -14.586600 -10.219300
C -11.924200 -13.446800 -10.933000
C -11.897500 -12.271700 -10.171300
H -11.863000 -14.170500 -12.841800
H -11.827700 -7.959200 -9.878300
C -11.825100 -13.379100 -12.318000
C -11.763200 -8.644800 -10.575600
C -11.751400 -11.021800 -10.792300
O -11.741700 -9.944000 -9.966200
N -11.689300 -13.087100 -15.230000
C -11.668600 -12.132000 -12.930900
C -11.632900 -10.954100 -12.183300
C -11.536300 -12.075600 -14.393300
H -11.528200 -10.113300 -12.614500
N -11.464800 -12.587700 -16.476800
H -11.348500 -15.943700 -11.484900
N -11.233600 -10.985100 -15.116300
N -11.199300 -11.322300 -16.414700
H -11.093500 -12.395800 -7.092900
H -11.082700 -10.181000 -14.792900
H -10.940100 -8.512200 -11.090000
C -10.878300 -12.338000 -8.046800
H -10.386000 -11.508500 -8.220200
H -10.325900 -13.105400 -8.304600
58
Fragment
H -13.181400 -20.158900 -20.990600
H -13.121200 -18.562000 -21.074900
C -12.628900 -19.391500 -21.248400
H -12.567200 -15.565700 -18.205200
H -12.424500 -17.234500 -14.502300
H -12.413700 -19.449300 -22.202200
N -12.307900 -18.375800 -12.880500
N -12.273600 -18.038600 -14.178900
H -12.158700 -22.997200 -17.810300
N -12.042400 -19.641200 -12.818400
H -11.979100 -17.166800 -16.680700
C -11.971000 -19.129100 -14.901900
C -11.874300 -18.007600 -17.111900
C -11.838600 -19.185500 -16.364300
N -11.817900 -20.140600 -14.065200
O -11.765500 -16.997500 -19.329000
C -11.755800 -18.075300 -18.502800
C -11.744000 -15.698300 -18.719600
C -11.682100 -20.432600 -16.977100
H -11.679500 -15.012700 -19.416800
H -11.644200 -21.224000 -16.453300
C -11.609700 -19.325200 -19.123900
C -11.583000 -20.500300 -18.362200
O -11.438400 -21.640100 -19.075800
O -11.423000 -19.395700 -20.486700
C -11.346500 -22.871700 -18.344600
H -11.250500 -23.617900 -18.971500
H -10.970400 -15.630600 -18.122000
H -10.566800 -22.842100 -17.750500
H -12.940400 -15.788600 -11.544600
H -12.536800 -8.577100 -11.173200
H -12.256700 -16.564400 -10.323600
C -12.160700 -15.818200 -10.950500
O -12.084200 -12.342200 -8.808500
O -12.068900 -14.586600 -10.219300
C -11.924200 -13.446800 -10.933000
C -11.897500 -12.271700 -10.171300
H -11.863000 -14.170500 -12.841800
H -11.827700 -7.959200 -9.878300
C -11.825100 -13.379100 -12.318000
C -11.763200 -8.644800 -10.575600
C -11.751400 -11.021800 -10.792300
O -11.741700 -9.944000 -9.966200
N -11.689300 -13.087100 -15.230000
C -11.668600 -12.132000 -12.930900
C -11.632900 -10.954100 -12.183300
C -11.536300 -12.075600 -14.393300
H -11.528200 -10.113300 -12.614500
N -11.464800 -12.587700 -16.476800
H -11.348500 -15.943700 -11.484900
N -11.233600 -10.985100 -15.116300
N -11.199300 -11.322300 -16.414700
H -11.093500 -12.395800 -7.092900
H -11.082700 -10.181000 -14.792900
H -10.940100 -8.512200 -11.090000
C -10.878300 -12.338000 -8.046800
H -10.386000 -11.508500 -8.220200
H -10.325900 -13.105400 -8.304600
