29
Fragment
H -13.181400 -20.158900 -20.990600
H -13.121200 -18.562000 -21.074900
C -12.628900 -19.391500 -21.248400
H -12.567200 -15.565700 -18.205200
H -12.424500 -17.234500 -14.502300
H -12.413700 -19.449300 -22.202200
N -12.307900 -18.375800 -12.880500
N -12.273600 -18.038600 -14.178900
H -12.158700 -22.997200 -17.810300
N -12.042400 -19.641200 -12.818400
H -11.979100 -17.166800 -16.680700
C -11.971000 -19.129100 -14.901900
C -11.874300 -18.007600 -17.111900
C -11.838600 -19.185500 -16.364300
N -11.817900 -20.140600 -14.065200
O -11.765500 -16.997500 -19.329000
C -11.755800 -18.075300 -18.502800
C -11.744000 -15.698300 -18.719600
C -11.682100 -20.432600 -16.977100
H -11.679500 -15.012700 -19.416800
H -11.644200 -21.224000 -16.453300
C -11.609700 -19.325200 -19.123900
C -11.583000 -20.500300 -18.362200
O -11.438400 -21.640100 -19.075800
O -11.423000 -19.395700 -20.486700
C -11.346500 -22.871700 -18.344600
H -11.250500 -23.617900 -18.971500
H -10.970400 -15.630600 -18.122000
H -10.566800 -22.842100 -17.750500
29
Fragment
H -17.257900 -15.108600 -15.131500
H -17.197700 -16.705500 -15.215900
C -16.705500 -15.876000 -15.389300
H -16.643700 -19.701800 -12.346200
H -16.501100 -18.033000 -8.643200
H -16.490200 -15.818200 -16.343200
N -16.384500 -16.891700 -7.021500
N -16.350100 -17.228900 -8.319800
H -16.235200 -12.270300 -11.951300
N -16.119000 -15.626300 -6.959400
H -16.055600 -18.100700 -10.821600
C -16.047500 -16.138400 -9.042800
C -15.950900 -17.259900 -11.252900
C -15.915100 -16.082000 -10.505200
N -15.894500 -15.126900 -8.206200
O -15.842100 -18.270000 -13.469900
C -15.832400 -17.192200 -12.643800
C -15.820600 -19.569200 -12.860600
C -15.758600 -14.834900 -11.118100
H -15.756100 -20.254800 -13.557800
H -15.720800 -14.043500 -10.594300
C -15.686300 -15.942300 -13.264900
C -15.659600 -14.767200 -12.503200
O -15.514900 -13.627400 -13.216800
O -15.499600 -15.871800 -14.627700
C -15.423100 -12.395800 -12.485600
H -15.327100 -11.649600 -13.112500
H -15.046900 -19.636900 -12.263000
H -14.643400 -12.425400 -11.891500
58
Fragment
H -13.181400 -20.158900 -20.990600
H -13.121200 -18.562000 -21.074900
C -12.628900 -19.391500 -21.248400
H -12.567200 -15.565700 -18.205200
H -12.424500 -17.234500 -14.502300
H -12.413700 -19.449300 -22.202200
N -12.307900 -18.375800 -12.880500
N -12.273600 -18.038600 -14.178900
H -12.158700 -22.997200 -17.810300
N -12.042400 -19.641200 -12.818400
H -11.979100 -17.166800 -16.680700
C -11.971000 -19.129100 -14.901900
C -11.874300 -18.007600 -17.111900
C -11.838600 -19.185500 -16.364300
N -11.817900 -20.140600 -14.065200
O -11.765500 -16.997500 -19.329000
C -11.755800 -18.075300 -18.502800
C -11.744000 -15.698300 -18.719600
C -11.682100 -20.432600 -16.977100
H -11.679500 -15.012700 -19.416800
H -11.644200 -21.224000 -16.453300
C -11.609700 -19.325200 -19.123900
C -11.583000 -20.500300 -18.362200
O -11.438400 -21.640100 -19.075800
O -11.423000 -19.395700 -20.486700
C -11.346500 -22.871700 -18.344600
H -11.250500 -23.617900 -18.971500
H -10.970400 -15.630600 -18.122000
H -10.566800 -22.842100 -17.750500
H -17.257900 -15.108600 -15.131500
H -17.197700 -16.705500 -15.215900
C -16.705500 -15.876000 -15.389300
H -16.643700 -19.701800 -12.346200
H -16.501100 -18.033000 -8.643200
H -16.490200 -15.818200 -16.343200
N -16.384500 -16.891700 -7.021500
N -16.350100 -17.228900 -8.319800
H -16.235200 -12.270300 -11.951300
N -16.119000 -15.626300 -6.959400
H -16.055600 -18.100700 -10.821600
C -16.047500 -16.138400 -9.042800
C -15.950900 -17.259900 -11.252900
C -15.915100 -16.082000 -10.505200
N -15.894500 -15.126900 -8.206200
O -15.842100 -18.270000 -13.469900
C -15.832400 -17.192200 -12.643800
C -15.820600 -19.569200 -12.860600
C -15.758600 -14.834900 -11.118100
H -15.756100 -20.254800 -13.557800
H -15.720800 -14.043500 -10.594300
C -15.686300 -15.942300 -13.264900
C -15.659600 -14.767200 -12.503200
O -15.514900 -13.627400 -13.216800
O -15.499600 -15.871800 -14.627700
C -15.423100 -12.395800 -12.485600
H -15.327100 -11.649600 -13.112500
H -15.046900 -19.636900 -12.263000
H -14.643400 -12.425400 -11.891500
