29
Fragment
H -13.181400 -20.158900 -20.990600
H -13.121200 -18.562000 -21.074900
C -12.628900 -19.391500 -21.248400
H -12.567200 -15.565700 -18.205200
H -12.424500 -17.234500 -14.502300
H -12.413700 -19.449300 -22.202200
N -12.307900 -18.375800 -12.880500
N -12.273600 -18.038600 -14.178900
H -12.158700 -22.997200 -17.810300
N -12.042400 -19.641200 -12.818400
H -11.979100 -17.166800 -16.680700
C -11.971000 -19.129100 -14.901900
C -11.874300 -18.007600 -17.111900
C -11.838600 -19.185500 -16.364300
N -11.817900 -20.140600 -14.065200
O -11.765500 -16.997500 -19.329000
C -11.755800 -18.075300 -18.502800
C -11.744000 -15.698300 -18.719600
C -11.682100 -20.432600 -16.977100
H -11.679500 -15.012700 -19.416800
H -11.644200 -21.224000 -16.453300
C -11.609700 -19.325200 -19.123900
C -11.583000 -20.500300 -18.362200
O -11.438400 -21.640100 -19.075800
O -11.423000 -19.395700 -20.486700
C -11.346500 -22.871700 -18.344600
H -11.250500 -23.617900 -18.971500
H -10.970400 -15.630600 -18.122000
H -10.566800 -22.842100 -17.750500
29
Fragment
H -16.178800 -19.478900 -17.403700
H -15.775300 -26.690400 -17.032200
H -15.495200 -18.703100 -16.182600
C -15.399100 -19.449300 -16.809600
O -15.322600 -22.925300 -14.667500
O -15.307300 -20.680900 -16.078400
C -15.162600 -21.820700 -16.792000
C -15.135900 -22.995800 -16.030300
H -15.101500 -21.097000 -18.700900
H -15.066200 -27.308300 -15.737400
C -15.063600 -21.888400 -18.177100
C -15.001700 -26.622700 -16.434600
C -14.989800 -24.245700 -16.651400
O -14.980100 -25.323500 -15.825200
N -14.927700 -22.180400 -21.089000
C -14.907100 -23.135500 -18.789900
C -14.871300 -24.313400 -18.042300
C -14.774700 -23.191900 -20.252300
H -14.766600 -25.154200 -18.473500
N -14.703200 -22.679800 -22.335800
H -14.587000 -19.323800 -17.343900
N -14.472100 -24.282400 -20.975300
N -14.437700 -23.945200 -22.273700
H -14.332000 -22.871700 -12.952000
H -14.321100 -25.086500 -20.651900
H -14.178500 -26.755300 -16.949000
C -14.116700 -22.929500 -13.905800
H -13.624500 -23.759000 -14.079300
H -13.564300 -22.162100 -14.163600
58
Fragment
H -13.181400 -20.158900 -20.990600
H -13.121200 -18.562000 -21.074900
C -12.628900 -19.391500 -21.248400
H -12.567200 -15.565700 -18.205200
H -12.424500 -17.234500 -14.502300
H -12.413700 -19.449300 -22.202200
N -12.307900 -18.375800 -12.880500
N -12.273600 -18.038600 -14.178900
H -12.158700 -22.997200 -17.810300
N -12.042400 -19.641200 -12.818400
H -11.979100 -17.166800 -16.680700
C -11.971000 -19.129100 -14.901900
C -11.874300 -18.007600 -17.111900
C -11.838600 -19.185500 -16.364300
N -11.817900 -20.140600 -14.065200
O -11.765500 -16.997500 -19.329000
C -11.755800 -18.075300 -18.502800
C -11.744000 -15.698300 -18.719600
C -11.682100 -20.432600 -16.977100
H -11.679500 -15.012700 -19.416800
H -11.644200 -21.224000 -16.453300
C -11.609700 -19.325200 -19.123900
C -11.583000 -20.500300 -18.362200
O -11.438400 -21.640100 -19.075800
O -11.423000 -19.395700 -20.486700
C -11.346500 -22.871700 -18.344600
H -11.250500 -23.617900 -18.971500
H -10.970400 -15.630600 -18.122000
H -10.566800 -22.842100 -17.750500
H -16.178800 -19.478900 -17.403700
H -15.775300 -26.690400 -17.032200
H -15.495200 -18.703100 -16.182600
C -15.399100 -19.449300 -16.809600
O -15.322600 -22.925300 -14.667500
O -15.307300 -20.680900 -16.078400
C -15.162600 -21.820700 -16.792000
C -15.135900 -22.995800 -16.030300
H -15.101500 -21.097000 -18.700900
H -15.066200 -27.308300 -15.737400
C -15.063600 -21.888400 -18.177100
C -15.001700 -26.622700 -16.434600
C -14.989800 -24.245700 -16.651400
O -14.980100 -25.323500 -15.825200
N -14.927700 -22.180400 -21.089000
C -14.907100 -23.135500 -18.789900
C -14.871300 -24.313400 -18.042300
C -14.774700 -23.191900 -20.252300
H -14.766600 -25.154200 -18.473500
N -14.703200 -22.679800 -22.335800
H -14.587000 -19.323800 -17.343900
N -14.472100 -24.282400 -20.975300
N -14.437700 -23.945200 -22.273700
H -14.332000 -22.871700 -12.952000
H -14.321100 -25.086500 -20.651900
H -14.178500 -26.755300 -16.949000
C -14.116700 -22.929500 -13.905800
H -13.624500 -23.759000 -14.079300
H -13.564300 -22.162100 -14.163600
