29
Fragment
H -13.181400 -20.158900 -20.990600
H -13.121200 -18.562000 -21.074900
C -12.628900 -19.391500 -21.248400
H -12.567200 -15.565700 -18.205200
H -12.424500 -17.234500 -14.502300
H -12.413700 -19.449300 -22.202200
N -12.307900 -18.375800 -12.880500
N -12.273600 -18.038600 -14.178900
H -12.158700 -22.997200 -17.810300
N -12.042400 -19.641200 -12.818400
H -11.979100 -17.166800 -16.680700
C -11.971000 -19.129100 -14.901900
C -11.874300 -18.007600 -17.111900
C -11.838600 -19.185500 -16.364300
N -11.817900 -20.140600 -14.065200
O -11.765500 -16.997500 -19.329000
C -11.755800 -18.075300 -18.502800
C -11.744000 -15.698300 -18.719600
C -11.682100 -20.432600 -16.977100
H -11.679500 -15.012700 -19.416800
H -11.644200 -21.224000 -16.453300
C -11.609700 -19.325200 -19.123900
C -11.583000 -20.500300 -18.362200
O -11.438400 -21.640100 -19.075800
O -11.423000 -19.395700 -20.486700
C -11.346500 -22.871700 -18.344600
H -11.250500 -23.617900 -18.971500
H -10.970400 -15.630600 -18.122000
H -10.566800 -22.842100 -17.750500
29
Fragment
H -14.019500 -20.158900 -9.272500
H -13.959300 -18.562000 -9.356900
C -13.467000 -19.391500 -9.530300
H -13.405300 -15.565700 -6.487100
H -13.262700 -17.234500 -2.784200
H -13.251800 -19.449300 -10.484200
N -13.146000 -18.375800 -1.162400
N -13.111700 -18.038600 -2.460800
H -12.996800 -22.997200 -6.092200
N -12.880600 -19.641200 -1.100300
H -12.817200 -17.166800 -4.962600
C -12.809100 -19.129100 -3.183800
C -12.712500 -18.007600 -5.393800
C -12.676700 -19.185500 -4.646200
N -12.656100 -20.140600 -2.347100
O -12.603600 -16.997500 -7.610900
C -12.594000 -18.075300 -6.784800
C -12.582100 -15.698300 -7.001500
C -12.520200 -20.432600 -5.259100
H -12.517600 -15.012700 -7.698800
H -12.482300 -21.224000 -4.735300
C -12.447900 -19.325200 -7.405800
C -12.421100 -20.500300 -6.644100
O -12.276500 -21.640100 -7.357800
O -12.261100 -19.395700 -8.768600
C -12.184700 -22.871700 -6.626600
H -12.088600 -23.617900 -7.253500
H -11.808500 -15.630600 -6.403900
H -11.404900 -22.842100 -6.032500
58
Fragment
H -13.181400 -20.158900 -20.990600
H -13.121200 -18.562000 -21.074900
C -12.628900 -19.391500 -21.248400
H -12.567200 -15.565700 -18.205200
H -12.424500 -17.234500 -14.502300
H -12.413700 -19.449300 -22.202200
N -12.307900 -18.375800 -12.880500
N -12.273600 -18.038600 -14.178900
H -12.158700 -22.997200 -17.810300
N -12.042400 -19.641200 -12.818400
H -11.979100 -17.166800 -16.680700
C -11.971000 -19.129100 -14.901900
C -11.874300 -18.007600 -17.111900
C -11.838600 -19.185500 -16.364300
N -11.817900 -20.140600 -14.065200
O -11.765500 -16.997500 -19.329000
C -11.755800 -18.075300 -18.502800
C -11.744000 -15.698300 -18.719600
C -11.682100 -20.432600 -16.977100
H -11.679500 -15.012700 -19.416800
H -11.644200 -21.224000 -16.453300
C -11.609700 -19.325200 -19.123900
C -11.583000 -20.500300 -18.362200
O -11.438400 -21.640100 -19.075800
O -11.423000 -19.395700 -20.486700
C -11.346500 -22.871700 -18.344600
H -11.250500 -23.617900 -18.971500
H -10.970400 -15.630600 -18.122000
H -10.566800 -22.842100 -17.750500
H -14.019500 -20.158900 -9.272500
H -13.959300 -18.562000 -9.356900
C -13.467000 -19.391500 -9.530300
H -13.405300 -15.565700 -6.487100
H -13.262700 -17.234500 -2.784200
H -13.251800 -19.449300 -10.484200
N -13.146000 -18.375800 -1.162400
N -13.111700 -18.038600 -2.460800
H -12.996800 -22.997200 -6.092200
N -12.880600 -19.641200 -1.100300
H -12.817200 -17.166800 -4.962600
C -12.809100 -19.129100 -3.183800
C -12.712500 -18.007600 -5.393800
C -12.676700 -19.185500 -4.646200
N -12.656100 -20.140600 -2.347100
O -12.603600 -16.997500 -7.610900
C -12.594000 -18.075300 -6.784800
C -12.582100 -15.698300 -7.001500
C -12.520200 -20.432600 -5.259100
H -12.517600 -15.012700 -7.698800
H -12.482300 -21.224000 -4.735300
C -12.447900 -19.325200 -7.405800
C -12.421100 -20.500300 -6.644100
O -12.276500 -21.640100 -7.357800
O -12.261100 -19.395700 -8.768600
C -12.184700 -22.871700 -6.626600
H -12.088600 -23.617900 -7.253500
H -11.808500 -15.630600 -6.403900
H -11.404900 -22.842100 -6.032500
