29
Fragment
H -13.181400 -20.158900 -20.990600
H -13.121200 -18.562000 -21.074900
C -12.628900 -19.391500 -21.248400
H -12.567200 -15.565700 -18.205200
H -12.424500 -17.234500 -14.502300
H -12.413700 -19.449300 -22.202200
N -12.307900 -18.375800 -12.880500
N -12.273600 -18.038600 -14.178900
H -12.158700 -22.997200 -17.810300
N -12.042400 -19.641200 -12.818400
H -11.979100 -17.166800 -16.680700
C -11.971000 -19.129100 -14.901900
C -11.874300 -18.007600 -17.111900
C -11.838600 -19.185500 -16.364300
N -11.817900 -20.140600 -14.065200
O -11.765500 -16.997500 -19.329000
C -11.755800 -18.075300 -18.502800
C -11.744000 -15.698300 -18.719600
C -11.682100 -20.432600 -16.977100
H -11.679500 -15.012700 -19.416800
H -11.644200 -21.224000 -16.453300
C -11.609700 -19.325200 -19.123900
C -11.583000 -20.500300 -18.362200
O -11.438400 -21.640100 -19.075800
O -11.423000 -19.395700 -20.486700
C -11.346500 -22.871700 -18.344600
H -11.250500 -23.617900 -18.971500
H -10.970400 -15.630600 -18.122000
H -10.566800 -22.842100 -17.750500
3
Fragment
H -16.926000 -19.693400 -20.928500
O -16.084900 -19.672200 -20.936700
H -15.699900 -20.412800 -20.940200
32
Fragment
H -13.181400 -20.158900 -20.990600
H -13.121200 -18.562000 -21.074900
C -12.628900 -19.391500 -21.248400
H -12.567200 -15.565700 -18.205200
H -12.424500 -17.234500 -14.502300
H -12.413700 -19.449300 -22.202200
N -12.307900 -18.375800 -12.880500
N -12.273600 -18.038600 -14.178900
H -12.158700 -22.997200 -17.810300
N -12.042400 -19.641200 -12.818400
H -11.979100 -17.166800 -16.680700
C -11.971000 -19.129100 -14.901900
C -11.874300 -18.007600 -17.111900
C -11.838600 -19.185500 -16.364300
N -11.817900 -20.140600 -14.065200
O -11.765500 -16.997500 -19.329000
C -11.755800 -18.075300 -18.502800
C -11.744000 -15.698300 -18.719600
C -11.682100 -20.432600 -16.977100
H -11.679500 -15.012700 -19.416800
H -11.644200 -21.224000 -16.453300
C -11.609700 -19.325200 -19.123900
C -11.583000 -20.500300 -18.362200
O -11.438400 -21.640100 -19.075800
O -11.423000 -19.395700 -20.486700
C -11.346500 -22.871700 -18.344600
H -11.250500 -23.617900 -18.971500
H -10.970400 -15.630600 -18.122000
H -10.566800 -22.842100 -17.750500
H -16.926000 -19.693400 -20.928500
O -16.084900 -19.672200 -20.936700
H -15.699900 -20.412800 -20.940200
