11
Fragment
H -28.529300 -17.698700 -36.516900
H -28.005900 -18.534100 -37.777600
H -28.000300 -16.934300 -37.819700
C -27.876400 -17.720100 -37.247500
C -26.474400 -17.709800 -36.672100
H -26.368000 -16.906500 -36.103300
H -26.359900 -18.505400 -36.094300
O -25.614900 -17.620300 -38.904500
C -25.403800 -17.710600 -37.710800
O -24.181800 -17.824500 -37.206600
H -23.541500 -17.769300 -37.903400
20
Fragment
O -27.376600 -20.677800 -40.134100
N -26.363500 -20.739900 -39.433100
O -26.362100 -20.812300 -38.200800
O -25.091700 -20.677700 -41.411700
C -25.088800 -20.725800 -40.064300
H -24.251800 -20.657500 -43.801400
C -23.841200 -20.754000 -39.542300
C -23.762400 -20.676900 -41.770500
H -23.600600 -20.788400 -38.624000
C -23.524100 -20.636800 -43.191300
C -22.973600 -20.721400 -40.655900
H -22.908600 -20.625200 -45.572200
N -22.314700 -20.573100 -43.622800
N -22.178300 -20.582000 -44.980100
H -22.024000 -20.729000 -40.634100
C -20.932500 -20.509900 -45.547500
O -20.839500 -20.560400 -46.793500
H -20.034300 -20.398000 -43.848900
N -19.889100 -20.368400 -44.735900
H -19.073700 -20.399300 -45.109600
31
Fragment
H -28.529300 -17.698700 -36.516900
H -28.005900 -18.534100 -37.777600
H -28.000300 -16.934300 -37.819700
C -27.876400 -17.720100 -37.247500
C -26.474400 -17.709800 -36.672100
H -26.368000 -16.906500 -36.103300
H -26.359900 -18.505400 -36.094300
O -25.614900 -17.620300 -38.904500
C -25.403800 -17.710600 -37.710800
O -24.181800 -17.824500 -37.206600
H -23.541500 -17.769300 -37.903400
O -27.376600 -20.677800 -40.134100
N -26.363500 -20.739900 -39.433100
O -26.362100 -20.812300 -38.200800
O -25.091700 -20.677700 -41.411700
C -25.088800 -20.725800 -40.064300
H -24.251800 -20.657500 -43.801400
C -23.841200 -20.754000 -39.542300
C -23.762400 -20.676900 -41.770500
H -23.600600 -20.788400 -38.624000
C -23.524100 -20.636800 -43.191300
C -22.973600 -20.721400 -40.655900
H -22.908600 -20.625200 -45.572200
N -22.314700 -20.573100 -43.622800
N -22.178300 -20.582000 -44.980100
H -22.024000 -20.729000 -40.634100
C -20.932500 -20.509900 -45.547500
O -20.839500 -20.560400 -46.793500
H -20.034300 -20.398000 -43.848900
N -19.889100 -20.368400 -44.735900
H -19.073700 -20.399300 -45.109600
