11
Fragment
H -28.529300 -17.698700 -36.516900
H -28.005900 -18.534100 -37.777600
H -28.000300 -16.934300 -37.819700
C -27.876400 -17.720100 -37.247500
C -26.474400 -17.709800 -36.672100
H -26.368000 -16.906500 -36.103300
H -26.359900 -18.505400 -36.094300
O -25.614900 -17.620300 -38.904500
C -25.403800 -17.710600 -37.710800
O -24.181800 -17.824500 -37.206600
H -23.541500 -17.769300 -37.903400
11
Fragment
H -25.170200 -14.413000 -37.831500
O -24.560300 -14.536600 -37.140100
C -23.328100 -14.477400 -37.634000
O -23.101500 -14.228600 -38.796800
H -22.455600 -14.228500 -35.793900
H -22.286300 -15.711800 -36.369100
C -22.261400 -14.752200 -36.611400
C -20.869800 -14.402400 -37.104300
H -20.827600 -13.445400 -37.311100
H -20.669400 -14.920400 -37.911800
H -20.213800 -14.615400 -36.408300
22
Fragment
H -28.529300 -17.698700 -36.516900
H -28.005900 -18.534100 -37.777600
H -28.000300 -16.934300 -37.819700
C -27.876400 -17.720100 -37.247500
C -26.474400 -17.709800 -36.672100
H -26.368000 -16.906500 -36.103300
H -26.359900 -18.505400 -36.094300
O -25.614900 -17.620300 -38.904500
C -25.403800 -17.710600 -37.710800
O -24.181800 -17.824500 -37.206600
H -23.541500 -17.769300 -37.903400
H -25.170200 -14.413000 -37.831500
O -24.560300 -14.536600 -37.140100
C -23.328100 -14.477400 -37.634000
O -23.101500 -14.228600 -38.796800
H -22.455600 -14.228500 -35.793900
H -22.286300 -15.711800 -36.369100
C -22.261400 -14.752200 -36.611400
C -20.869800 -14.402400 -37.104300
H -20.827600 -13.445400 -37.311100
H -20.669400 -14.920400 -37.911800
H -20.213800 -14.615400 -36.408300
