11
Fragment
H -28.529300 -17.698700 -36.516900
H -28.005900 -18.534100 -37.777600
H -28.000300 -16.934300 -37.819700
C -27.876400 -17.720100 -37.247500
C -26.474400 -17.709800 -36.672100
H -26.368000 -16.906500 -36.103300
H -26.359900 -18.505400 -36.094300
O -25.614900 -17.620300 -38.904500
C -25.403800 -17.710600 -37.710800
O -24.181800 -17.824500 -37.206600
H -23.541500 -17.769300 -37.903400
20
Fragment
H -28.278100 -18.393700 -28.315400
N -27.462700 -18.424600 -28.689100
H -27.317500 -18.395000 -29.576100
O -26.512200 -18.232600 -26.631500
C -26.419200 -18.283100 -27.877500
H -25.327800 -18.064000 -32.790900
N -25.173400 -18.211000 -28.444800
N -25.037100 -18.219900 -29.802200
H -24.443200 -18.167800 -27.852800
C -24.378100 -18.071600 -32.769100
C -23.827700 -18.156200 -30.233700
H -23.751200 -18.004600 -34.801000
C -23.589300 -18.116100 -31.654500
C -23.510500 -18.039000 -33.882700
H -23.100000 -18.135500 -29.623600
C -22.262900 -18.067200 -33.360600
O -22.260100 -18.115300 -32.013300
O -20.989600 -17.980700 -35.224200
N -20.988300 -18.053100 -33.991900
O -19.975100 -18.115200 -33.290900
31
Fragment
H -28.529300 -17.698700 -36.516900
H -28.005900 -18.534100 -37.777600
H -28.000300 -16.934300 -37.819700
C -27.876400 -17.720100 -37.247500
C -26.474400 -17.709800 -36.672100
H -26.368000 -16.906500 -36.103300
H -26.359900 -18.505400 -36.094300
O -25.614900 -17.620300 -38.904500
C -25.403800 -17.710600 -37.710800
O -24.181800 -17.824500 -37.206600
H -23.541500 -17.769300 -37.903400
H -28.278100 -18.393700 -28.315400
N -27.462700 -18.424600 -28.689100
H -27.317500 -18.395000 -29.576100
O -26.512200 -18.232600 -26.631500
C -26.419200 -18.283100 -27.877500
H -25.327800 -18.064000 -32.790900
N -25.173400 -18.211000 -28.444800
N -25.037100 -18.219900 -29.802200
H -24.443200 -18.167800 -27.852800
C -24.378100 -18.071600 -32.769100
C -23.827700 -18.156200 -30.233700
H -23.751200 -18.004600 -34.801000
C -23.589300 -18.116100 -31.654500
C -23.510500 -18.039000 -33.882700
H -23.100000 -18.135500 -29.623600
C -22.262900 -18.067200 -33.360600
O -22.260100 -18.115300 -32.013300
O -20.989600 -17.980700 -35.224200
N -20.988300 -18.053100 -33.991900
O -19.975100 -18.115200 -33.290900
