19
Fragment
O -19.819000 -12.486200 -32.081100
H -18.789000 -12.486200 -30.491800
C -18.759000 -12.486200 -31.481400
H -18.040700 -12.486200 -34.048100
C -17.434700 -12.486200 -32.077300
H -17.317400 -13.278200 -36.126900
H -17.317400 -11.694300 -36.126900
C -17.256700 -12.486200 -33.467500
C -16.736300 -12.486200 -36.253800
H -16.502700 -12.486200 -30.258800
H -16.361400 -12.486200 -37.158500
C -16.333100 -12.486200 -31.223900
C -15.982300 -12.486200 -33.992200
O -15.654700 -12.486200 -35.316400
C -15.051100 -12.486200 -31.745000
C -14.879000 -12.486200 -33.113400
H -14.282900 -12.486200 -31.150700
O -13.643600 -12.486200 -33.694000
H -12.919500 -12.486200 -33.027600
19
Fragment
O -28.132700 -12.486200 -32.081100
H -27.102700 -12.486200 -30.491800
C -27.072700 -12.486200 -31.481400
H -26.354400 -12.486200 -34.048100
C -25.748400 -12.486200 -32.077300
H -25.631100 -13.278200 -36.126900
H -25.631100 -11.694300 -36.126900
C -25.570400 -12.486200 -33.467500
C -25.050000 -12.486200 -36.253800
H -24.816400 -12.486200 -30.258800
H -24.675100 -12.486200 -37.158500
C -24.646800 -12.486200 -31.223900
C -24.296000 -12.486200 -33.992200
O -23.968400 -12.486200 -35.316400
C -23.364800 -12.486200 -31.745000
C -23.192700 -12.486200 -33.113400
H -22.596600 -12.486200 -31.150700
O -21.957300 -12.486200 -33.694000
H -21.233200 -12.486200 -33.027600
38
Fragment
O -19.819000 -12.486200 -32.081100
H -18.789000 -12.486200 -30.491800
C -18.759000 -12.486200 -31.481400
H -18.040700 -12.486200 -34.048100
C -17.434700 -12.486200 -32.077300
H -17.317400 -13.278200 -36.126900
H -17.317400 -11.694300 -36.126900
C -17.256700 -12.486200 -33.467500
C -16.736300 -12.486200 -36.253800
H -16.502700 -12.486200 -30.258800
H -16.361400 -12.486200 -37.158500
C -16.333100 -12.486200 -31.223900
C -15.982300 -12.486200 -33.992200
O -15.654700 -12.486200 -35.316400
C -15.051100 -12.486200 -31.745000
C -14.879000 -12.486200 -33.113400
H -14.282900 -12.486200 -31.150700
O -13.643600 -12.486200 -33.694000
H -12.919500 -12.486200 -33.027600
O -28.132700 -12.486200 -32.081100
H -27.102700 -12.486200 -30.491800
C -27.072700 -12.486200 -31.481400
H -26.354400 -12.486200 -34.048100
C -25.748400 -12.486200 -32.077300
H -25.631100 -13.278200 -36.126900
H -25.631100 -11.694300 -36.126900
C -25.570400 -12.486200 -33.467500
C -25.050000 -12.486200 -36.253800
H -24.816400 -12.486200 -30.258800
H -24.675100 -12.486200 -37.158500
C -24.646800 -12.486200 -31.223900
C -24.296000 -12.486200 -33.992200
O -23.968400 -12.486200 -35.316400
C -23.364800 -12.486200 -31.745000
C -23.192700 -12.486200 -33.113400
H -22.596600 -12.486200 -31.150700
O -21.957300 -12.486200 -33.694000
H -21.233200 -12.486200 -33.027600
