19
Fragment
O -19.819000 -12.486200 -32.081100
H -18.789000 -12.486200 -30.491800
C -18.759000 -12.486200 -31.481400
H -18.040700 -12.486200 -34.048100
C -17.434700 -12.486200 -32.077300
H -17.317400 -13.278200 -36.126900
H -17.317400 -11.694300 -36.126900
C -17.256700 -12.486200 -33.467500
C -16.736300 -12.486200 -36.253800
H -16.502700 -12.486200 -30.258800
H -16.361400 -12.486200 -37.158500
C -16.333100 -12.486200 -31.223900
C -15.982300 -12.486200 -33.992200
O -15.654700 -12.486200 -35.316400
C -15.051100 -12.486200 -31.745000
C -14.879000 -12.486200 -33.113400
H -14.282900 -12.486200 -31.150700
O -13.643600 -12.486200 -33.694000
H -12.919500 -12.486200 -33.027600
19
Fragment
O -11.505300 -12.486200 -32.081100
H -10.475300 -12.486200 -30.491800
C -10.445300 -12.486200 -31.481400
H -9.727000 -12.486200 -34.048100
C -9.121000 -12.486200 -32.077300
H -9.003700 -13.278200 -36.126900
H -9.003700 -11.694300 -36.126900
C -8.943000 -12.486200 -33.467500
C -8.422600 -12.486200 -36.253800
H -8.189000 -12.486200 -30.258800
H -8.047700 -12.486200 -37.158500
C -8.019400 -12.486200 -31.223900
C -7.668600 -12.486200 -33.992200
O -7.341000 -12.486200 -35.316400
C -6.737400 -12.486200 -31.745000
C -6.565300 -12.486200 -33.113400
H -5.969200 -12.486200 -31.150700
O -5.329900 -12.486200 -33.694000
H -4.605800 -12.486200 -33.027600
38
Fragment
O -19.819000 -12.486200 -32.081100
H -18.789000 -12.486200 -30.491800
C -18.759000 -12.486200 -31.481400
H -18.040700 -12.486200 -34.048100
C -17.434700 -12.486200 -32.077300
H -17.317400 -13.278200 -36.126900
H -17.317400 -11.694300 -36.126900
C -17.256700 -12.486200 -33.467500
C -16.736300 -12.486200 -36.253800
H -16.502700 -12.486200 -30.258800
H -16.361400 -12.486200 -37.158500
C -16.333100 -12.486200 -31.223900
C -15.982300 -12.486200 -33.992200
O -15.654700 -12.486200 -35.316400
C -15.051100 -12.486200 -31.745000
C -14.879000 -12.486200 -33.113400
H -14.282900 -12.486200 -31.150700
O -13.643600 -12.486200 -33.694000
H -12.919500 -12.486200 -33.027600
O -11.505300 -12.486200 -32.081100
H -10.475300 -12.486200 -30.491800
C -10.445300 -12.486200 -31.481400
H -9.727000 -12.486200 -34.048100
C -9.121000 -12.486200 -32.077300
H -9.003700 -13.278200 -36.126900
H -9.003700 -11.694300 -36.126900
C -8.943000 -12.486200 -33.467500
C -8.422600 -12.486200 -36.253800
H -8.189000 -12.486200 -30.258800
H -8.047700 -12.486200 -37.158500
C -8.019400 -12.486200 -31.223900
C -7.668600 -12.486200 -33.992200
O -7.341000 -12.486200 -35.316400
C -6.737400 -12.486200 -31.745000
C -6.565300 -12.486200 -33.113400
H -5.969200 -12.486200 -31.150700
O -5.329900 -12.486200 -33.694000
H -4.605800 -12.486200 -33.027600
