19
Fragment
O -19.819000 -12.486200 -32.081100
H -18.789000 -12.486200 -30.491800
C -18.759000 -12.486200 -31.481400
H -18.040700 -12.486200 -34.048100
C -17.434700 -12.486200 -32.077300
H -17.317400 -13.278200 -36.126900
H -17.317400 -11.694300 -36.126900
C -17.256700 -12.486200 -33.467500
C -16.736300 -12.486200 -36.253800
H -16.502700 -12.486200 -30.258800
H -16.361400 -12.486200 -37.158500
C -16.333100 -12.486200 -31.223900
C -15.982300 -12.486200 -33.992200
O -15.654700 -12.486200 -35.316400
C -15.051100 -12.486200 -31.745000
C -14.879000 -12.486200 -33.113400
H -14.282900 -12.486200 -31.150700
O -13.643600 -12.486200 -33.694000
H -12.919500 -12.486200 -33.027600
8
Fragment
H -12.853000 -13.635000 -35.468000
H -12.853000 -11.337500 -35.468000
N -12.382400 -13.630700 -36.180800
N -12.382400 -11.341800 -36.180800
H -12.212800 -14.405600 -36.592800
H -12.212800 -10.566900 -36.592800
C -12.061500 -12.486200 -36.802400
O -11.467100 -12.486200 -37.906600
27
Fragment
O -19.819000 -12.486200 -32.081100
H -18.789000 -12.486200 -30.491800
C -18.759000 -12.486200 -31.481400
H -18.040700 -12.486200 -34.048100
C -17.434700 -12.486200 -32.077300
H -17.317400 -13.278200 -36.126900
H -17.317400 -11.694300 -36.126900
C -17.256700 -12.486200 -33.467500
C -16.736300 -12.486200 -36.253800
H -16.502700 -12.486200 -30.258800
H -16.361400 -12.486200 -37.158500
C -16.333100 -12.486200 -31.223900
C -15.982300 -12.486200 -33.992200
O -15.654700 -12.486200 -35.316400
C -15.051100 -12.486200 -31.745000
C -14.879000 -12.486200 -33.113400
H -14.282900 -12.486200 -31.150700
O -13.643600 -12.486200 -33.694000
H -12.919500 -12.486200 -33.027600
H -12.853000 -13.635000 -35.468000
H -12.853000 -11.337500 -35.468000
N -12.382400 -13.630700 -36.180800
N -12.382400 -11.341800 -36.180800
H -12.212800 -14.405600 -36.592800
H -12.212800 -10.566900 -36.592800
C -12.061500 -12.486200 -36.802400
O -11.467100 -12.486200 -37.906600
