19
Fragment
O -19.819000 -12.486200 -32.081100
H -18.789000 -12.486200 -30.491800
C -18.759000 -12.486200 -31.481400
H -18.040700 -12.486200 -34.048100
C -17.434700 -12.486200 -32.077300
H -17.317400 -13.278200 -36.126900
H -17.317400 -11.694300 -36.126900
C -17.256700 -12.486200 -33.467500
C -16.736300 -12.486200 -36.253800
H -16.502700 -12.486200 -30.258800
H -16.361400 -12.486200 -37.158500
C -16.333100 -12.486200 -31.223900
C -15.982300 -12.486200 -33.992200
O -15.654700 -12.486200 -35.316400
C -15.051100 -12.486200 -31.745000
C -14.879000 -12.486200 -33.113400
H -14.282900 -12.486200 -31.150700
O -13.643600 -12.486200 -33.694000
H -12.919500 -12.486200 -33.027600
8
Fragment
H -19.736700 -13.635000 -27.940400
H -19.736700 -11.337500 -27.940400
N -18.987700 -13.634300 -27.559500
N -18.987700 -11.338200 -27.559500
H -18.514600 -14.419800 -27.399100
H -18.514600 -10.552700 -27.399100
C -18.378300 -12.486200 -27.237400
O -17.255100 -12.486200 -26.660300
27
Fragment
O -19.819000 -12.486200 -32.081100
H -18.789000 -12.486200 -30.491800
C -18.759000 -12.486200 -31.481400
H -18.040700 -12.486200 -34.048100
C -17.434700 -12.486200 -32.077300
H -17.317400 -13.278200 -36.126900
H -17.317400 -11.694300 -36.126900
C -17.256700 -12.486200 -33.467500
C -16.736300 -12.486200 -36.253800
H -16.502700 -12.486200 -30.258800
H -16.361400 -12.486200 -37.158500
C -16.333100 -12.486200 -31.223900
C -15.982300 -12.486200 -33.992200
O -15.654700 -12.486200 -35.316400
C -15.051100 -12.486200 -31.745000
C -14.879000 -12.486200 -33.113400
H -14.282900 -12.486200 -31.150700
O -13.643600 -12.486200 -33.694000
H -12.919500 -12.486200 -33.027600
H -19.736700 -13.635000 -27.940400
H -19.736700 -11.337500 -27.940400
N -18.987700 -13.634300 -27.559500
N -18.987700 -11.338200 -27.559500
H -18.514600 -14.419800 -27.399100
H -18.514600 -10.552700 -27.399100
C -18.378300 -12.486200 -27.237400
O -17.255100 -12.486200 -26.660300
