19
Fragment
O -19.819000 -12.486200 -32.081100
H -18.789000 -12.486200 -30.491800
C -18.759000 -12.486200 -31.481400
H -18.040700 -12.486200 -34.048100
C -17.434700 -12.486200 -32.077300
H -17.317400 -13.278200 -36.126900
H -17.317400 -11.694300 -36.126900
C -17.256700 -12.486200 -33.467500
C -16.736300 -12.486200 -36.253800
H -16.502700 -12.486200 -30.258800
H -16.361400 -12.486200 -37.158500
C -16.333100 -12.486200 -31.223900
C -15.982300 -12.486200 -33.992200
O -15.654700 -12.486200 -35.316400
C -15.051100 -12.486200 -31.745000
C -14.879000 -12.486200 -33.113400
H -14.282900 -12.486200 -31.150700
O -13.643600 -12.486200 -33.694000
H -12.919500 -12.486200 -33.027600
19
Fragment
H -20.335300 -16.053800 -33.528900
O -19.611200 -16.053800 -32.862500
H -18.971900 -16.053800 -35.405800
C -18.375800 -16.053800 -33.443100
C -18.203700 -16.053800 -34.811500
O -17.600100 -16.053800 -31.240100
C -17.272500 -16.053800 -32.564300
C -16.921700 -16.053800 -35.332600
H -16.893400 -16.053800 -29.398000
H -16.752100 -16.053800 -36.297700
C -16.518500 -16.053800 -30.302700
C -15.998100 -16.053800 -33.089000
H -15.937400 -16.845700 -30.429600
H -15.937400 -15.261800 -30.429600
C -15.820100 -16.053800 -34.479200
H -15.214100 -16.053800 -32.508400
C -14.495800 -16.053800 -35.075100
H -14.465800 -16.053800 -36.064700
O -13.435800 -16.053800 -34.475400
38
Fragment
O -19.819000 -12.486200 -32.081100
H -18.789000 -12.486200 -30.491800
C -18.759000 -12.486200 -31.481400
H -18.040700 -12.486200 -34.048100
C -17.434700 -12.486200 -32.077300
H -17.317400 -13.278200 -36.126900
H -17.317400 -11.694300 -36.126900
C -17.256700 -12.486200 -33.467500
C -16.736300 -12.486200 -36.253800
H -16.502700 -12.486200 -30.258800
H -16.361400 -12.486200 -37.158500
C -16.333100 -12.486200 -31.223900
C -15.982300 -12.486200 -33.992200
O -15.654700 -12.486200 -35.316400
C -15.051100 -12.486200 -31.745000
C -14.879000 -12.486200 -33.113400
H -14.282900 -12.486200 -31.150700
O -13.643600 -12.486200 -33.694000
H -12.919500 -12.486200 -33.027600
H -20.335300 -16.053800 -33.528900
O -19.611200 -16.053800 -32.862500
H -18.971900 -16.053800 -35.405800
C -18.375800 -16.053800 -33.443100
C -18.203700 -16.053800 -34.811500
O -17.600100 -16.053800 -31.240100
C -17.272500 -16.053800 -32.564300
C -16.921700 -16.053800 -35.332600
H -16.893400 -16.053800 -29.398000
H -16.752100 -16.053800 -36.297700
C -16.518500 -16.053800 -30.302700
C -15.998100 -16.053800 -33.089000
H -15.937400 -16.845700 -30.429600
H -15.937400 -15.261800 -30.429600
C -15.820100 -16.053800 -34.479200
H -15.214100 -16.053800 -32.508400
C -14.495800 -16.053800 -35.075100
H -14.465800 -16.053800 -36.064700
O -13.435800 -16.053800 -34.475400
