20
Fragment
N -12.166500 -11.746500 -39.037700
C -11.032100 -11.801500 -39.181100
H -10.061000 -10.919300 -36.997200
C -9.624800 -11.882300 -39.424600
C -9.297000 -12.402000 -40.718100
C -9.134800 -10.986600 -37.197600
N -9.132000 -12.816500 -41.771700
C -8.713500 -11.491300 -38.470300
F -8.639000 -10.154700 -35.099400
C -8.229600 -10.612100 -36.294800
C -7.289800 -11.567100 -38.676300
F -6.871100 -12.055900 -39.855800
C -6.808600 -10.667100 -36.511900
C -6.382500 -11.188200 -37.775700
N -6.302600 -9.393300 -33.203200
C -6.172100 -9.781500 -34.271100
C -5.878500 -10.277500 -35.574800
H -5.456100 -11.263900 -37.972000
C -4.478400 -10.394100 -35.850900
N -3.355500 -10.489100 -36.046200
18
Fragment
H -12.424600 -7.383100 -36.701400
H -11.767800 -6.152700 -35.916700
H -11.694500 -7.626900 -35.298400
C -11.680000 -7.105200 -36.128100
H -11.210100 -8.002600 -38.578200
C -10.379100 -7.813600 -38.157800
C -10.370600 -7.343200 -36.850500
H -9.640100 -5.809300 -34.713000
H -9.423200 -7.312600 -34.208800
H -9.232800 -8.326600 -39.754100
C -9.208500 -8.011600 -38.858100
C -9.148000 -7.098800 -36.230300
C -9.087300 -6.612700 -34.807400
H -8.159600 -6.400900 -34.574100
C -8.010000 -7.748500 -38.249500
C -7.987100 -7.306800 -36.948400
H -7.197200 -7.871300 -38.725400
H -7.149800 -7.140500 -36.531500
38
Fragment
N -12.166500 -11.746500 -39.037700
C -11.032100 -11.801500 -39.181100
H -10.061000 -10.919300 -36.997200
C -9.624800 -11.882300 -39.424600
C -9.297000 -12.402000 -40.718100
C -9.134800 -10.986600 -37.197600
N -9.132000 -12.816500 -41.771700
C -8.713500 -11.491300 -38.470300
F -8.639000 -10.154700 -35.099400
C -8.229600 -10.612100 -36.294800
C -7.289800 -11.567100 -38.676300
F -6.871100 -12.055900 -39.855800
C -6.808600 -10.667100 -36.511900
C -6.382500 -11.188200 -37.775700
N -6.302600 -9.393300 -33.203200
C -6.172100 -9.781500 -34.271100
C -5.878500 -10.277500 -35.574800
H -5.456100 -11.263900 -37.972000
C -4.478400 -10.394100 -35.850900
N -3.355500 -10.489100 -36.046200
H -12.424600 -7.383100 -36.701400
H -11.767800 -6.152700 -35.916700
H -11.694500 -7.626900 -35.298400
C -11.680000 -7.105200 -36.128100
H -11.210100 -8.002600 -38.578200
C -10.379100 -7.813600 -38.157800
C -10.370600 -7.343200 -36.850500
H -9.640100 -5.809300 -34.713000
H -9.423200 -7.312600 -34.208800
H -9.232800 -8.326600 -39.754100
C -9.208500 -8.011600 -38.858100
C -9.148000 -7.098800 -36.230300
C -9.087300 -6.612700 -34.807400
H -8.159600 -6.400900 -34.574100
C -8.010000 -7.748500 -38.249500
C -7.987100 -7.306800 -36.948400
H -7.197200 -7.871300 -38.725400
H -7.149800 -7.140500 -36.531500
