20
Fragment
N -18.982900 -13.653100 -17.029400
C -18.509800 -12.670000 -17.377500
N -18.331100 -9.789200 -15.679800
C -18.156700 -10.449900 -16.597400
C -17.938900 -11.385400 -17.666700
F -17.434400 -13.296700 -19.671900
C -17.206100 -11.101900 -18.783900
C -16.910600 -12.074900 -19.796100
F -16.884000 -8.827700 -18.169700
C -16.609400 -9.814500 -19.030800
C -16.110500 -11.823900 -20.833400
F -15.835800 -12.810700 -21.694500
C -15.809200 -9.563500 -20.068000
C -15.513700 -10.536500 -21.080300
F -15.285400 -8.341700 -20.192300
C -14.780900 -10.253000 -22.197400
C -14.563100 -11.188500 -23.266700
N -14.388700 -11.849200 -24.184400
C -14.210000 -8.968400 -22.486700
N -13.737000 -7.985300 -22.834700
18
Fragment
H -22.774000 -10.898600 -17.227000
H -22.734200 -12.722900 -18.990600
C -21.827800 -10.718900 -17.045900
C -21.769300 -12.884200 -19.045800
H -21.746400 -9.899900 -16.514300
H -21.582400 -13.499200 -19.785300
H -21.456100 -13.280100 -18.205200
H -21.441500 -11.470600 -16.549900
C -21.094900 -10.547300 -18.344200
C -21.054900 -11.581600 -19.282300
H -20.468600 -8.648100 -18.002800
C -20.441500 -9.357200 -18.633800
C -20.354800 -11.385400 -20.460900
H -20.318400 -12.089200 -21.097300
C -19.757700 -9.179700 -19.812500
C -19.708000 -10.198200 -20.737300
H -19.318900 -8.355400 -19.987600
H -19.235600 -10.085400 -21.554200
38
Fragment
N -18.982900 -13.653100 -17.029400
C -18.509800 -12.670000 -17.377500
N -18.331100 -9.789200 -15.679800
C -18.156700 -10.449900 -16.597400
C -17.938900 -11.385400 -17.666700
F -17.434400 -13.296700 -19.671900
C -17.206100 -11.101900 -18.783900
C -16.910600 -12.074900 -19.796100
F -16.884000 -8.827700 -18.169700
C -16.609400 -9.814500 -19.030800
C -16.110500 -11.823900 -20.833400
F -15.835800 -12.810700 -21.694500
C -15.809200 -9.563500 -20.068000
C -15.513700 -10.536500 -21.080300
F -15.285400 -8.341700 -20.192300
C -14.780900 -10.253000 -22.197400
C -14.563100 -11.188500 -23.266700
N -14.388700 -11.849200 -24.184400
C -14.210000 -8.968400 -22.486700
N -13.737000 -7.985300 -22.834700
H -22.774000 -10.898600 -17.227000
H -22.734200 -12.722900 -18.990600
C -21.827800 -10.718900 -17.045900
C -21.769300 -12.884200 -19.045800
H -21.746400 -9.899900 -16.514300
H -21.582400 -13.499200 -19.785300
H -21.456100 -13.280100 -18.205200
H -21.441500 -11.470600 -16.549900
C -21.094900 -10.547300 -18.344200
C -21.054900 -11.581600 -19.282300
H -20.468600 -8.648100 -18.002800
C -20.441500 -9.357200 -18.633800
C -20.354800 -11.385400 -20.460900
H -20.318400 -12.089200 -21.097300
C -19.757700 -9.179700 -19.812500
C -19.708000 -10.198200 -20.737300
H -19.318900 -8.355400 -19.987600
H -19.235600 -10.085400 -21.554200
