20
Fragment
N -18.982900 -13.653100 -17.029400
C -18.509800 -12.670000 -17.377500
N -18.331100 -9.789200 -15.679800
C -18.156700 -10.449900 -16.597400
C -17.938900 -11.385400 -17.666700
F -17.434400 -13.296700 -19.671900
C -17.206100 -11.101900 -18.783900
C -16.910600 -12.074900 -19.796100
F -16.884000 -8.827700 -18.169700
C -16.609400 -9.814500 -19.030800
C -16.110500 -11.823900 -20.833400
F -15.835800 -12.810700 -21.694500
C -15.809200 -9.563500 -20.068000
C -15.513700 -10.536500 -21.080300
F -15.285400 -8.341700 -20.192300
C -14.780900 -10.253000 -22.197400
C -14.563100 -11.188500 -23.266700
N -14.388700 -11.849200 -24.184400
C -14.210000 -8.968400 -22.486700
N -13.737000 -7.985300 -22.834700
18
Fragment
H -23.561200 -14.346200 -10.583000
H -23.521400 -12.521900 -12.346600
C -22.615000 -14.525900 -10.401900
C -22.556500 -12.360600 -12.401700
H -22.533600 -15.344900 -9.870200
H -22.369600 -11.745600 -13.141200
H -22.243300 -11.964700 -11.561100
H -22.228700 -13.774200 -9.905800
C -21.882100 -14.697500 -11.700100
C -21.842100 -13.663200 -12.638300
H -21.255800 -16.596700 -11.358800
C -21.228700 -15.887600 -11.989800
C -21.142000 -13.859400 -13.816900
H -21.105600 -13.155600 -14.453300
C -20.544900 -16.065100 -13.168500
C -20.495200 -15.046600 -14.093300
H -20.106100 -16.889400 -13.343600
H -20.022800 -15.159400 -14.910100
38
Fragment
N -18.982900 -13.653100 -17.029400
C -18.509800 -12.670000 -17.377500
N -18.331100 -9.789200 -15.679800
C -18.156700 -10.449900 -16.597400
C -17.938900 -11.385400 -17.666700
F -17.434400 -13.296700 -19.671900
C -17.206100 -11.101900 -18.783900
C -16.910600 -12.074900 -19.796100
F -16.884000 -8.827700 -18.169700
C -16.609400 -9.814500 -19.030800
C -16.110500 -11.823900 -20.833400
F -15.835800 -12.810700 -21.694500
C -15.809200 -9.563500 -20.068000
C -15.513700 -10.536500 -21.080300
F -15.285400 -8.341700 -20.192300
C -14.780900 -10.253000 -22.197400
C -14.563100 -11.188500 -23.266700
N -14.388700 -11.849200 -24.184400
C -14.210000 -8.968400 -22.486700
N -13.737000 -7.985300 -22.834700
H -23.561200 -14.346200 -10.583000
H -23.521400 -12.521900 -12.346600
C -22.615000 -14.525900 -10.401900
C -22.556500 -12.360600 -12.401700
H -22.533600 -15.344900 -9.870200
H -22.369600 -11.745600 -13.141200
H -22.243300 -11.964700 -11.561100
H -22.228700 -13.774200 -9.905800
C -21.882100 -14.697500 -11.700100
C -21.842100 -13.663200 -12.638300
H -21.255800 -16.596700 -11.358800
C -21.228700 -15.887600 -11.989800
C -21.142000 -13.859400 -13.816900
H -21.105600 -13.155600 -14.453300
C -20.544900 -16.065100 -13.168500
C -20.495200 -15.046600 -14.093300
H -20.106100 -16.889400 -13.343600
H -20.022800 -15.159400 -14.910100
