20
Fragment
N -12.166500 -11.746500 -39.037700
C -11.032100 -11.801500 -39.181100
H -10.061000 -10.919300 -36.997200
C -9.624800 -11.882300 -39.424600
C -9.297000 -12.402000 -40.718100
C -9.134800 -10.986600 -37.197600
N -9.132000 -12.816500 -41.771700
C -8.713500 -11.491300 -38.470300
F -8.639000 -10.154700 -35.099400
C -8.229600 -10.612100 -36.294800
C -7.289800 -11.567100 -38.676300
F -6.871100 -12.055900 -39.855800
C -6.808600 -10.667100 -36.511900
C -6.382500 -11.188200 -37.775700
N -6.302600 -9.393300 -33.203200
C -6.172100 -9.781500 -34.271100
C -5.878500 -10.277500 -35.574800
H -5.456100 -11.263900 -37.972000
C -4.478400 -10.394100 -35.850900
N -3.355500 -10.489100 -36.046200
20
Fragment
N -3.211000 -11.746500 -39.037700
C -2.076600 -11.801500 -39.181100
H -1.105500 -10.919300 -36.997200
C -0.669300 -11.882300 -39.424600
C -0.341500 -12.402000 -40.718100
C -0.179300 -10.986600 -37.197600
N -0.176500 -12.816500 -41.771700
C 0.242000 -11.491300 -38.470300
F 0.316500 -10.154700 -35.099400
C 0.725900 -10.612100 -36.294800
C 1.665700 -11.567100 -38.676300
F 2.084400 -12.055900 -39.855800
C 2.146900 -10.667100 -36.511900
C 2.573000 -11.188200 -37.775700
N 2.652900 -9.393300 -33.203200
C 2.783400 -9.781500 -34.271100
C 3.077000 -10.277500 -35.574800
H 3.499400 -11.263900 -37.972000
C 4.477100 -10.394100 -35.850900
N 5.600000 -10.489100 -36.046200
40
Fragment
N -12.166500 -11.746500 -39.037700
C -11.032100 -11.801500 -39.181100
H -10.061000 -10.919300 -36.997200
C -9.624800 -11.882300 -39.424600
C -9.297000 -12.402000 -40.718100
C -9.134800 -10.986600 -37.197600
N -9.132000 -12.816500 -41.771700
C -8.713500 -11.491300 -38.470300
F -8.639000 -10.154700 -35.099400
C -8.229600 -10.612100 -36.294800
C -7.289800 -11.567100 -38.676300
F -6.871100 -12.055900 -39.855800
C -6.808600 -10.667100 -36.511900
C -6.382500 -11.188200 -37.775700
N -6.302600 -9.393300 -33.203200
C -6.172100 -9.781500 -34.271100
C -5.878500 -10.277500 -35.574800
H -5.456100 -11.263900 -37.972000
C -4.478400 -10.394100 -35.850900
N -3.355500 -10.489100 -36.046200
N -3.211000 -11.746500 -39.037700
C -2.076600 -11.801500 -39.181100
H -1.105500 -10.919300 -36.997200
C -0.669300 -11.882300 -39.424600
C -0.341500 -12.402000 -40.718100
C -0.179300 -10.986600 -37.197600
N -0.176500 -12.816500 -41.771700
C 0.242000 -11.491300 -38.470300
F 0.316500 -10.154700 -35.099400
C 0.725900 -10.612100 -36.294800
C 1.665700 -11.567100 -38.676300
F 2.084400 -12.055900 -39.855800
C 2.146900 -10.667100 -36.511900
C 2.573000 -11.188200 -37.775700
N 2.652900 -9.393300 -33.203200
C 2.783400 -9.781500 -34.271100
C 3.077000 -10.277500 -35.574800
H 3.499400 -11.263900 -37.972000
C 4.477100 -10.394100 -35.850900
N 5.600000 -10.489100 -36.046200
