20
Fragment
N -18.982900 -13.653100 -17.029400
C -18.509800 -12.670000 -17.377500
N -18.331100 -9.789200 -15.679800
C -18.156700 -10.449900 -16.597400
C -17.938900 -11.385400 -17.666700
F -17.434400 -13.296700 -19.671900
C -17.206100 -11.101900 -18.783900
C -16.910600 -12.074900 -19.796100
F -16.884000 -8.827700 -18.169700
C -16.609400 -9.814500 -19.030800
C -16.110500 -11.823900 -20.833400
F -15.835800 -12.810700 -21.694500
C -15.809200 -9.563500 -20.068000
C -15.513700 -10.536500 -21.080300
F -15.285400 -8.341700 -20.192300
C -14.780900 -10.253000 -22.197400
C -14.563100 -11.188500 -23.266700
N -14.388700 -11.849200 -24.184400
C -14.210000 -8.968400 -22.486700
N -13.737000 -7.985300 -22.834700
20
Fragment
N -18.982900 -20.865900 -17.029400
C -18.509800 -19.882800 -17.377500
N -18.331100 -17.002000 -15.679800
C -18.156700 -17.662700 -16.597400
C -17.938900 -18.598200 -17.666700
F -17.434400 -20.509500 -19.671900
C -17.206100 -18.314700 -18.783900
C -16.910600 -19.287700 -19.796100
F -16.884000 -16.040500 -18.169700
C -16.609400 -17.027300 -19.030800
C -16.110500 -19.036700 -20.833400
F -15.835800 -20.023500 -21.694500
C -15.809200 -16.776300 -20.068000
C -15.513700 -17.749300 -21.080300
F -15.285400 -15.554500 -20.192300
C -14.780900 -17.465800 -22.197400
C -14.563100 -18.401300 -23.266700
N -14.388700 -19.062000 -24.184400
C -14.210000 -16.181200 -22.486700
N -13.737000 -15.198100 -22.834700
40
Fragment
N -18.982900 -13.653100 -17.029400
C -18.509800 -12.670000 -17.377500
N -18.331100 -9.789200 -15.679800
C -18.156700 -10.449900 -16.597400
C -17.938900 -11.385400 -17.666700
F -17.434400 -13.296700 -19.671900
C -17.206100 -11.101900 -18.783900
C -16.910600 -12.074900 -19.796100
F -16.884000 -8.827700 -18.169700
C -16.609400 -9.814500 -19.030800
C -16.110500 -11.823900 -20.833400
F -15.835800 -12.810700 -21.694500
C -15.809200 -9.563500 -20.068000
C -15.513700 -10.536500 -21.080300
F -15.285400 -8.341700 -20.192300
C -14.780900 -10.253000 -22.197400
C -14.563100 -11.188500 -23.266700
N -14.388700 -11.849200 -24.184400
C -14.210000 -8.968400 -22.486700
N -13.737000 -7.985300 -22.834700
N -18.982900 -20.865900 -17.029400
C -18.509800 -19.882800 -17.377500
N -18.331100 -17.002000 -15.679800
C -18.156700 -17.662700 -16.597400
C -17.938900 -18.598200 -17.666700
F -17.434400 -20.509500 -19.671900
C -17.206100 -18.314700 -18.783900
C -16.910600 -19.287700 -19.796100
F -16.884000 -16.040500 -18.169700
C -16.609400 -17.027300 -19.030800
C -16.110500 -19.036700 -20.833400
F -15.835800 -20.023500 -21.694500
C -15.809200 -16.776300 -20.068000
C -15.513700 -17.749300 -21.080300
F -15.285400 -15.554500 -20.192300
C -14.780900 -17.465800 -22.197400
C -14.563100 -18.401300 -23.266700
N -14.388700 -19.062000 -24.184400
C -14.210000 -16.181200 -22.486700
N -13.737000 -15.198100 -22.834700
