20
Fragment
N -18.982900 -13.653100 -17.029400
C -18.509800 -12.670000 -17.377500
N -18.331100 -9.789200 -15.679800
C -18.156700 -10.449900 -16.597400
C -17.938900 -11.385400 -17.666700
F -17.434400 -13.296700 -19.671900
C -17.206100 -11.101900 -18.783900
C -16.910600 -12.074900 -19.796100
F -16.884000 -8.827700 -18.169700
C -16.609400 -9.814500 -19.030800
C -16.110500 -11.823900 -20.833400
F -15.835800 -12.810700 -21.694500
C -15.809200 -9.563500 -20.068000
C -15.513700 -10.536500 -21.080300
F -15.285400 -8.341700 -20.192300
C -14.780900 -10.253000 -22.197400
C -14.563100 -11.188500 -23.266700
N -14.388700 -11.849200 -24.184400
C -14.210000 -8.968400 -22.486700
N -13.737000 -7.985300 -22.834700
20
Fragment
N -19.770000 -11.591700 -10.385400
C -19.297000 -12.574800 -10.733400
N -19.118300 -15.455600 -9.035700
C -18.943900 -14.794900 -9.953400
C -18.726100 -13.859400 -11.022700
F -18.221600 -11.948100 -13.027900
C -17.993300 -14.142900 -12.139800
C -17.697800 -13.169900 -13.152100
F -17.671200 -16.417100 -11.525700
C -17.396600 -15.430300 -12.386700
C -16.897700 -13.420900 -14.189400
F -16.623000 -12.434100 -15.050500
C -16.596400 -15.681300 -13.424000
C -16.300900 -14.708300 -14.436300
F -16.072600 -16.903100 -13.548200
C -15.568100 -14.991800 -15.553400
C -15.350300 -14.056300 -16.622700
N -15.175900 -13.395600 -17.540400
C -14.997200 -16.276400 -15.842700
N -14.524200 -17.259500 -16.190700
40
Fragment
N -18.982900 -13.653100 -17.029400
C -18.509800 -12.670000 -17.377500
N -18.331100 -9.789200 -15.679800
C -18.156700 -10.449900 -16.597400
C -17.938900 -11.385400 -17.666700
F -17.434400 -13.296700 -19.671900
C -17.206100 -11.101900 -18.783900
C -16.910600 -12.074900 -19.796100
F -16.884000 -8.827700 -18.169700
C -16.609400 -9.814500 -19.030800
C -16.110500 -11.823900 -20.833400
F -15.835800 -12.810700 -21.694500
C -15.809200 -9.563500 -20.068000
C -15.513700 -10.536500 -21.080300
F -15.285400 -8.341700 -20.192300
C -14.780900 -10.253000 -22.197400
C -14.563100 -11.188500 -23.266700
N -14.388700 -11.849200 -24.184400
C -14.210000 -8.968400 -22.486700
N -13.737000 -7.985300 -22.834700
N -19.770000 -11.591700 -10.385400
C -19.297000 -12.574800 -10.733400
N -19.118300 -15.455600 -9.035700
C -18.943900 -14.794900 -9.953400
C -18.726100 -13.859400 -11.022700
F -18.221600 -11.948100 -13.027900
C -17.993300 -14.142900 -12.139800
C -17.697800 -13.169900 -13.152100
F -17.671200 -16.417100 -11.525700
C -17.396600 -15.430300 -12.386700
C -16.897700 -13.420900 -14.189400
F -16.623000 -12.434100 -15.050500
C -16.596400 -15.681300 -13.424000
C -16.300900 -14.708300 -14.436300
F -16.072600 -16.903100 -13.548200
C -15.568100 -14.991800 -15.553400
C -15.350300 -14.056300 -16.622700
N -15.175900 -13.395600 -17.540400
C -14.997200 -16.276400 -15.842700
N -14.524200 -17.259500 -16.190700
