20
Fragment
N -12.166500 -11.746500 -39.037700
C -11.032100 -11.801500 -39.181100
H -10.061000 -10.919300 -36.997200
C -9.624800 -11.882300 -39.424600
C -9.297000 -12.402000 -40.718100
C -9.134800 -10.986600 -37.197600
N -9.132000 -12.816500 -41.771700
C -8.713500 -11.491300 -38.470300
F -8.639000 -10.154700 -35.099400
C -8.229600 -10.612100 -36.294800
C -7.289800 -11.567100 -38.676300
F -6.871100 -12.055900 -39.855800
C -6.808600 -10.667100 -36.511900
C -6.382500 -11.188200 -37.775700
N -6.302600 -9.393300 -33.203200
C -6.172100 -9.781500 -34.271100
C -5.878500 -10.277500 -35.574800
H -5.456100 -11.263900 -37.972000
C -4.478400 -10.394100 -35.850900
N -3.355500 -10.489100 -36.046200
20
Fragment
N -19.525100 -10.955200 -44.849200
C -18.402200 -11.050200 -45.044400
H -17.424500 -10.180400 -42.923400
C -17.002100 -11.166800 -45.320600
C -16.708500 -11.662800 -46.624300
N -16.578000 -12.051000 -47.692100
C -16.498100 -10.256100 -43.119700
C -16.072000 -10.777200 -44.383500
F -16.009500 -9.388400 -41.039600
C -15.590800 -9.877200 -42.219000
C -14.651000 -10.832200 -44.600600
F -14.241600 -11.289600 -45.796000
C -14.167000 -9.953000 -42.425000
N -13.748600 -8.627800 -39.123700
C -13.745800 -10.457700 -43.697800
C -13.583600 -9.042300 -40.177200
C -13.255800 -9.562000 -41.470700
H -12.819600 -10.525000 -43.898100
C -11.848400 -9.642800 -41.714200
N -10.714100 -9.697800 -41.857700
40
Fragment
N -12.166500 -11.746500 -39.037700
C -11.032100 -11.801500 -39.181100
H -10.061000 -10.919300 -36.997200
C -9.624800 -11.882300 -39.424600
C -9.297000 -12.402000 -40.718100
C -9.134800 -10.986600 -37.197600
N -9.132000 -12.816500 -41.771700
C -8.713500 -11.491300 -38.470300
F -8.639000 -10.154700 -35.099400
C -8.229600 -10.612100 -36.294800
C -7.289800 -11.567100 -38.676300
F -6.871100 -12.055900 -39.855800
C -6.808600 -10.667100 -36.511900
C -6.382500 -11.188200 -37.775700
N -6.302600 -9.393300 -33.203200
C -6.172100 -9.781500 -34.271100
C -5.878500 -10.277500 -35.574800
H -5.456100 -11.263900 -37.972000
C -4.478400 -10.394100 -35.850900
N -3.355500 -10.489100 -36.046200
N -19.525100 -10.955200 -44.849200
C -18.402200 -11.050200 -45.044400
H -17.424500 -10.180400 -42.923400
C -17.002100 -11.166800 -45.320600
C -16.708500 -11.662800 -46.624300
N -16.578000 -12.051000 -47.692100
C -16.498100 -10.256100 -43.119700
C -16.072000 -10.777200 -44.383500
F -16.009500 -9.388400 -41.039600
C -15.590800 -9.877200 -42.219000
C -14.651000 -10.832200 -44.600600
F -14.241600 -11.289600 -45.796000
C -14.167000 -9.953000 -42.425000
N -13.748600 -8.627800 -39.123700
C -13.745800 -10.457700 -43.697800
C -13.583600 -9.042300 -40.177200
C -13.255800 -9.562000 -41.470700
H -12.819600 -10.525000 -43.898100
C -11.848400 -9.642800 -41.714200
N -10.714100 -9.697800 -41.857700
