20
Fragment
N -18.982900 -13.653100 -17.029400
C -18.509800 -12.670000 -17.377500
N -18.331100 -9.789200 -15.679800
C -18.156700 -10.449900 -16.597400
C -17.938900 -11.385400 -17.666700
F -17.434400 -13.296700 -19.671900
C -17.206100 -11.101900 -18.783900
C -16.910600 -12.074900 -19.796100
F -16.884000 -8.827700 -18.169700
C -16.609400 -9.814500 -19.030800
C -16.110500 -11.823900 -20.833400
F -15.835800 -12.810700 -21.694500
C -15.809200 -9.563500 -20.068000
C -15.513700 -10.536500 -21.080300
F -15.285400 -8.341700 -20.192300
C -14.780900 -10.253000 -22.197400
C -14.563100 -11.188500 -23.266700
N -14.388700 -11.849200 -24.184400
C -14.210000 -8.968400 -22.486700
N -13.737000 -7.985300 -22.834700
18
Fragment
H -12.697100 -13.691800 -24.954000
H -12.613700 -11.961800 -26.520600
C -12.224600 -13.804600 -25.770900
C -12.174900 -12.786100 -26.695700
H -11.614300 -15.695600 -25.410900
C -11.577800 -14.991800 -26.047200
C -11.491100 -12.963600 -27.874400
H -11.464000 -12.254500 -28.505400
C -10.877800 -15.188000 -27.225900
C -10.837700 -14.153700 -28.164000
H -10.491100 -15.077000 -29.958300
H -10.476600 -16.886500 -28.303000
H -10.350200 -17.105600 -26.722900
H -10.186200 -13.506300 -29.993900
C -10.163300 -16.490600 -27.462400
C -10.104800 -14.325300 -29.462300
H -9.198500 -16.329300 -27.517600
H -9.158600 -14.505000 -29.281200
38
Fragment
N -18.982900 -13.653100 -17.029400
C -18.509800 -12.670000 -17.377500
N -18.331100 -9.789200 -15.679800
C -18.156700 -10.449900 -16.597400
C -17.938900 -11.385400 -17.666700
F -17.434400 -13.296700 -19.671900
C -17.206100 -11.101900 -18.783900
C -16.910600 -12.074900 -19.796100
F -16.884000 -8.827700 -18.169700
C -16.609400 -9.814500 -19.030800
C -16.110500 -11.823900 -20.833400
F -15.835800 -12.810700 -21.694500
C -15.809200 -9.563500 -20.068000
C -15.513700 -10.536500 -21.080300
F -15.285400 -8.341700 -20.192300
C -14.780900 -10.253000 -22.197400
C -14.563100 -11.188500 -23.266700
N -14.388700 -11.849200 -24.184400
C -14.210000 -8.968400 -22.486700
N -13.737000 -7.985300 -22.834700
H -12.697100 -13.691800 -24.954000
H -12.613700 -11.961800 -26.520600
C -12.224600 -13.804600 -25.770900
C -12.174900 -12.786100 -26.695700
H -11.614300 -15.695600 -25.410900
C -11.577800 -14.991800 -26.047200
C -11.491100 -12.963600 -27.874400
H -11.464000 -12.254500 -28.505400
C -10.877800 -15.188000 -27.225900
C -10.837700 -14.153700 -28.164000
H -10.491100 -15.077000 -29.958300
H -10.476600 -16.886500 -28.303000
H -10.350200 -17.105600 -26.722900
H -10.186200 -13.506300 -29.993900
C -10.163300 -16.490600 -27.462400
C -10.104800 -14.325300 -29.462300
H -9.198500 -16.329300 -27.517600
H -9.158600 -14.505000 -29.281200
