20
Fragment
N -18.982900 -13.653100 -17.029400
C -18.509800 -12.670000 -17.377500
N -18.331100 -9.789200 -15.679800
C -18.156700 -10.449900 -16.597400
C -17.938900 -11.385400 -17.666700
F -17.434400 -13.296700 -19.671900
C -17.206100 -11.101900 -18.783900
C -16.910600 -12.074900 -19.796100
F -16.884000 -8.827700 -18.169700
C -16.609400 -9.814500 -19.030800
C -16.110500 -11.823900 -20.833400
F -15.835800 -12.810700 -21.694500
C -15.809200 -9.563500 -20.068000
C -15.513700 -10.536500 -21.080300
F -15.285400 -8.341700 -20.192300
C -14.780900 -10.253000 -22.197400
C -14.563100 -11.188500 -23.266700
N -14.388700 -11.849200 -24.184400
C -14.210000 -8.968400 -22.486700
N -13.737000 -7.985300 -22.834700
18
Fragment
H -23.561200 -7.133400 -10.583000
H -23.521400 -5.309100 -12.346600
C -22.615000 -7.313100 -10.401900
C -22.556500 -5.147800 -12.401700
H -22.533600 -8.132100 -9.870200
H -22.369600 -4.532800 -13.141200
H -22.243300 -4.751900 -11.561100
H -22.228700 -6.561400 -9.905800
C -21.882100 -7.484700 -11.700100
C -21.842100 -6.450400 -12.638300
H -21.255800 -9.383900 -11.358800
C -21.228700 -8.674800 -11.989800
C -21.142000 -6.646600 -13.816900
H -21.105600 -5.942800 -14.453300
C -20.544900 -8.852300 -13.168500
C -20.495200 -7.833800 -14.093300
H -20.106100 -9.676600 -13.343600
H -20.022800 -7.946600 -14.910100
38
Fragment
N -18.982900 -13.653100 -17.029400
C -18.509800 -12.670000 -17.377500
N -18.331100 -9.789200 -15.679800
C -18.156700 -10.449900 -16.597400
C -17.938900 -11.385400 -17.666700
F -17.434400 -13.296700 -19.671900
C -17.206100 -11.101900 -18.783900
C -16.910600 -12.074900 -19.796100
F -16.884000 -8.827700 -18.169700
C -16.609400 -9.814500 -19.030800
C -16.110500 -11.823900 -20.833400
F -15.835800 -12.810700 -21.694500
C -15.809200 -9.563500 -20.068000
C -15.513700 -10.536500 -21.080300
F -15.285400 -8.341700 -20.192300
C -14.780900 -10.253000 -22.197400
C -14.563100 -11.188500 -23.266700
N -14.388700 -11.849200 -24.184400
C -14.210000 -8.968400 -22.486700
N -13.737000 -7.985300 -22.834700
H -23.561200 -7.133400 -10.583000
H -23.521400 -5.309100 -12.346600
C -22.615000 -7.313100 -10.401900
C -22.556500 -5.147800 -12.401700
H -22.533600 -8.132100 -9.870200
H -22.369600 -4.532800 -13.141200
H -22.243300 -4.751900 -11.561100
H -22.228700 -6.561400 -9.905800
C -21.882100 -7.484700 -11.700100
C -21.842100 -6.450400 -12.638300
H -21.255800 -9.383900 -11.358800
C -21.228700 -8.674800 -11.989800
C -21.142000 -6.646600 -13.816900
H -21.105600 -5.942800 -14.453300
C -20.544900 -8.852300 -13.168500
C -20.495200 -7.833800 -14.093300
H -20.106100 -9.676600 -13.343600
H -20.022800 -7.946600 -14.910100
