34
Fragment
H -2.087300 -23.481900 -23.623400
H -2.006800 -22.278000 -29.083700
H -1.800900 -23.063600 -25.108000
H -1.540500 -22.047700 -23.941500
C -1.510300 -22.973200 -24.196400
H -1.327600 -24.251500 -28.851100
H -1.197200 -22.619000 -30.378500
C -1.113600 -22.444100 -29.427900
H -0.871500 -20.432600 -29.409300
H -0.838100 -23.815700 -26.828900
C -0.623200 -23.584000 -28.821400
C -0.305700 -21.205200 -29.249300
H -0.225500 -24.961400 -22.650400
N -0.150200 -23.463000 -24.073600
C -0.126200 -23.534400 -27.424200
H 0.102300 -23.914800 -29.373900
C 0.288400 -21.094400 -27.889300
C 0.295000 -24.444000 -23.221600
C 0.354800 -22.173000 -27.001900
H 0.406300 -21.195000 -29.907800
H 0.603600 -24.167000 -27.331200
N 0.753100 -19.858300 -27.586100
C 0.895000 -21.938300 -25.738700
C 0.949100 -23.009700 -24.719200
C 1.295900 -19.620800 -26.384200
C 1.374000 -20.676100 -25.422400
C 1.603200 -24.511000 -23.370400
H 1.654100 -17.768100 -26.728400
N 1.729000 -18.381800 -26.129400
C 1.909200 -20.361200 -24.116400
N 2.034600 -23.621900 -24.296900
H 2.081800 -18.196700 -25.366600
H 2.156300 -25.092600 -22.899700
N 2.324500 -20.039100 -23.098800
34
Fragment
H 3.212300 -13.955100 -30.008300
H 3.225300 -10.755600 -26.657700
H 3.355500 -11.128800 -25.221500
N 3.389000 -11.344500 -26.053100
H 3.465300 -16.147300 -30.159000
C 3.700300 -12.612600 -26.410300
N 3.700800 -13.020700 -22.985300
N 3.731800 -12.869200 -27.721900
C 3.843300 -13.318100 -24.088500
C 3.953900 -13.618400 -25.480100
N 3.980300 -16.997100 -24.624300
C 4.053400 -14.115400 -28.153500
H 4.059000 -17.115100 -27.762800
C 4.065300 -14.256800 -29.656700
C 4.314300 -15.679400 -30.121800
C 4.316900 -14.898100 -25.913600
C 4.384500 -15.159000 -27.279100
H 4.482200 -18.416800 -23.216000
H 4.673700 -15.653200 -31.022200
C 4.679500 -15.930100 -24.936800
C 4.720200 -17.619500 -23.630800
H 4.754400 -13.681000 -30.021300
C 4.803000 -16.497100 -27.840900
C 5.235700 -16.444600 -29.267900
H 5.305500 -17.349800 -29.612000
H 5.533200 -16.846900 -27.307000
N 5.803700 -15.836800 -24.181500
C 5.811500 -16.927100 -23.353600
H 6.116600 -16.042300 -29.316200
H 6.458000 -13.950700 -24.017800
H 6.458400 -17.138500 -22.719200
C 6.845500 -14.804800 -24.222500
H 7.236600 -14.778600 -25.100600
H 7.526100 -15.010400 -23.576900
68
Fragment
H -2.087300 -23.481900 -23.623400
H -2.006800 -22.278000 -29.083700
H -1.800900 -23.063600 -25.108000
H -1.540500 -22.047700 -23.941500
C -1.510300 -22.973200 -24.196400
H -1.327600 -24.251500 -28.851100
H -1.197200 -22.619000 -30.378500
C -1.113600 -22.444100 -29.427900
H -0.871500 -20.432600 -29.409300
H -0.838100 -23.815700 -26.828900
C -0.623200 -23.584000 -28.821400
C -0.305700 -21.205200 -29.249300
H -0.225500 -24.961400 -22.650400
N -0.150200 -23.463000 -24.073600
C -0.126200 -23.534400 -27.424200
H 0.102300 -23.914800 -29.373900
C 0.288400 -21.094400 -27.889300
C 0.295000 -24.444000 -23.221600
C 0.354800 -22.173000 -27.001900
H 0.406300 -21.195000 -29.907800
H 0.603600 -24.167000 -27.331200
N 0.753100 -19.858300 -27.586100
C 0.895000 -21.938300 -25.738700
C 0.949100 -23.009700 -24.719200
C 1.295900 -19.620800 -26.384200
C 1.374000 -20.676100 -25.422400
C 1.603200 -24.511000 -23.370400
H 1.654100 -17.768100 -26.728400
N 1.729000 -18.381800 -26.129400
C 1.909200 -20.361200 -24.116400
N 2.034600 -23.621900 -24.296900
H 2.081800 -18.196700 -25.366600
H 2.156300 -25.092600 -22.899700
N 2.324500 -20.039100 -23.098800
H 3.212300 -13.955100 -30.008300
H 3.225300 -10.755600 -26.657700
H 3.355500 -11.128800 -25.221500
N 3.389000 -11.344500 -26.053100
H 3.465300 -16.147300 -30.159000
C 3.700300 -12.612600 -26.410300
N 3.700800 -13.020700 -22.985300
N 3.731800 -12.869200 -27.721900
C 3.843300 -13.318100 -24.088500
C 3.953900 -13.618400 -25.480100
N 3.980300 -16.997100 -24.624300
C 4.053400 -14.115400 -28.153500
H 4.059000 -17.115100 -27.762800
C 4.065300 -14.256800 -29.656700
C 4.314300 -15.679400 -30.121800
C 4.316900 -14.898100 -25.913600
C 4.384500 -15.159000 -27.279100
H 4.482200 -18.416800 -23.216000
H 4.673700 -15.653200 -31.022200
C 4.679500 -15.930100 -24.936800
C 4.720200 -17.619500 -23.630800
H 4.754400 -13.681000 -30.021300
C 4.803000 -16.497100 -27.840900
C 5.235700 -16.444600 -29.267900
H 5.305500 -17.349800 -29.612000
H 5.533200 -16.846900 -27.307000
N 5.803700 -15.836800 -24.181500
C 5.811500 -16.927100 -23.353600
H 6.116600 -16.042300 -29.316200
H 6.458000 -13.950700 -24.017800
H 6.458400 -17.138500 -22.719200
C 6.845500 -14.804800 -24.222500
H 7.236600 -14.778600 -25.100600
H 7.526100 -15.010400 -23.576900
