34
Fragment
H -2.087300 -23.481900 -23.623400
H -2.006800 -22.278000 -29.083700
H -1.800900 -23.063600 -25.108000
H -1.540500 -22.047700 -23.941500
C -1.510300 -22.973200 -24.196400
H -1.327600 -24.251500 -28.851100
H -1.197200 -22.619000 -30.378500
C -1.113600 -22.444100 -29.427900
H -0.871500 -20.432600 -29.409300
H -0.838100 -23.815700 -26.828900
C -0.623200 -23.584000 -28.821400
C -0.305700 -21.205200 -29.249300
H -0.225500 -24.961400 -22.650400
N -0.150200 -23.463000 -24.073600
C -0.126200 -23.534400 -27.424200
H 0.102300 -23.914800 -29.373900
C 0.288400 -21.094400 -27.889300
C 0.295000 -24.444000 -23.221600
C 0.354800 -22.173000 -27.001900
H 0.406300 -21.195000 -29.907800
H 0.603600 -24.167000 -27.331200
N 0.753100 -19.858300 -27.586100
C 0.895000 -21.938300 -25.738700
C 0.949100 -23.009700 -24.719200
C 1.295900 -19.620800 -26.384200
C 1.374000 -20.676100 -25.422400
C 1.603200 -24.511000 -23.370400
H 1.654100 -17.768100 -26.728400
N 1.729000 -18.381800 -26.129400
C 1.909200 -20.361200 -24.116400
N 2.034600 -23.621900 -24.296900
H 2.081800 -18.196700 -25.366600
H 2.156300 -25.092600 -22.899700
N 2.324500 -20.039100 -23.098800
34
Fragment
N -2.437900 -27.327100 -23.411300
H -2.269800 -32.380600 -23.610400
H -2.195200 -25.484700 -21.143500
N -2.148000 -30.909900 -22.213200
C -2.022700 -27.649200 -22.393700
N -1.842400 -25.669800 -20.380700
H -1.767500 -25.056100 -19.781700
C -1.716700 -31.799000 -23.139700
C -1.487500 -27.964100 -21.087700
C -1.409400 -26.908800 -20.125800
C -1.062500 -30.297700 -21.790900
C -1.008400 -29.226300 -20.771400
N -0.866500 -27.146300 -18.924000
H -0.717100 -31.455000 -19.178900
H -0.519700 -28.483000 -16.602200
C -0.468200 -29.461000 -19.508200
C -0.408400 -31.732000 -23.288500
C -0.401900 -28.382400 -18.620800
H -0.215700 -31.202800 -17.136200
C 0.012700 -30.822400 -19.085900
N 0.036800 -30.751000 -22.436500
H 0.112000 -32.249400 -23.859700
C 0.192300 -28.493200 -17.260800
C 0.509700 -30.872000 -17.688700
H 0.724700 -31.103700 -19.681200
H 0.758100 -27.720600 -17.100800
C 1.000200 -29.732100 -17.082200
H 1.083800 -29.907000 -16.131600
H 1.214200 -31.539500 -17.658900
C 1.396900 -30.261200 -22.313700
H 1.427100 -29.335700 -22.568600
H 1.687500 -30.351600 -21.402100
H 1.893400 -29.566000 -17.426400
H 1.973800 -30.769900 -22.886700
68
Fragment
H -2.087300 -23.481900 -23.623400
H -2.006800 -22.278000 -29.083700
H -1.800900 -23.063600 -25.108000
H -1.540500 -22.047700 -23.941500
C -1.510300 -22.973200 -24.196400
H -1.327600 -24.251500 -28.851100
H -1.197200 -22.619000 -30.378500
C -1.113600 -22.444100 -29.427900
H -0.871500 -20.432600 -29.409300
H -0.838100 -23.815700 -26.828900
C -0.623200 -23.584000 -28.821400
C -0.305700 -21.205200 -29.249300
H -0.225500 -24.961400 -22.650400
N -0.150200 -23.463000 -24.073600
C -0.126200 -23.534400 -27.424200
H 0.102300 -23.914800 -29.373900
C 0.288400 -21.094400 -27.889300
C 0.295000 -24.444000 -23.221600
C 0.354800 -22.173000 -27.001900
H 0.406300 -21.195000 -29.907800
H 0.603600 -24.167000 -27.331200
N 0.753100 -19.858300 -27.586100
C 0.895000 -21.938300 -25.738700
C 0.949100 -23.009700 -24.719200
C 1.295900 -19.620800 -26.384200
C 1.374000 -20.676100 -25.422400
C 1.603200 -24.511000 -23.370400
H 1.654100 -17.768100 -26.728400
N 1.729000 -18.381800 -26.129400
C 1.909200 -20.361200 -24.116400
N 2.034600 -23.621900 -24.296900
H 2.081800 -18.196700 -25.366600
H 2.156300 -25.092600 -22.899700
N 2.324500 -20.039100 -23.098800
N -2.437900 -27.327100 -23.411300
H -2.269800 -32.380600 -23.610400
H -2.195200 -25.484700 -21.143500
N -2.148000 -30.909900 -22.213200
C -2.022700 -27.649200 -22.393700
N -1.842400 -25.669800 -20.380700
H -1.767500 -25.056100 -19.781700
C -1.716700 -31.799000 -23.139700
C -1.487500 -27.964100 -21.087700
C -1.409400 -26.908800 -20.125800
C -1.062500 -30.297700 -21.790900
C -1.008400 -29.226300 -20.771400
N -0.866500 -27.146300 -18.924000
H -0.717100 -31.455000 -19.178900
H -0.519700 -28.483000 -16.602200
C -0.468200 -29.461000 -19.508200
C -0.408400 -31.732000 -23.288500
C -0.401900 -28.382400 -18.620800
H -0.215700 -31.202800 -17.136200
C 0.012700 -30.822400 -19.085900
N 0.036800 -30.751000 -22.436500
H 0.112000 -32.249400 -23.859700
C 0.192300 -28.493200 -17.260800
C 0.509700 -30.872000 -17.688700
H 0.724700 -31.103700 -19.681200
H 0.758100 -27.720600 -17.100800
C 1.000200 -29.732100 -17.082200
H 1.083800 -29.907000 -16.131600
H 1.214200 -31.539500 -17.658900
C 1.396900 -30.261200 -22.313700
H 1.427100 -29.335700 -22.568600
H 1.687500 -30.351600 -21.402100
H 1.893400 -29.566000 -17.426400
H 1.973800 -30.769900 -22.886700
