25
Fragment
O -34.665900 -6.330800 -17.709200
N -33.796200 -5.563900 -17.368000
O -33.419900 -4.570700 -17.996200
H -33.257700 -6.636700 -15.768200
N -33.154100 -5.862100 -16.172800
N -32.631200 -4.268900 -14.541200
C -32.338900 -4.863500 -15.654100
O -31.595600 -3.397100 -14.314200
C -31.091800 -4.368300 -16.161100
N -30.728400 -5.767200 -18.065600
N -30.658900 -3.455400 -15.327000
C -30.361300 -4.725800 -17.370400
O -29.828900 -5.753100 -19.149100
N -29.298600 -4.012600 -17.858600
C -29.033600 -4.692000 -18.935000
C -28.058100 -4.388400 -19.979600
O -28.030600 -5.193200 -21.091300
N -27.231000 -3.432200 -19.996100
C -27.061400 -4.653700 -21.874700
N -26.844700 -5.296700 -23.000500
N -26.582400 -3.597700 -21.219500
H -25.941500 -3.074200 -21.518400
N -25.814700 -4.797800 -23.752200
O -25.523800 -5.445800 -24.748600
O -25.236100 -3.746300 -23.429900
25
Fragment
O -34.653600 -0.508900 -23.591100
N -33.783900 -1.275800 -23.249900
O -33.407600 -2.269000 -23.878100
H -33.245400 -0.203000 -21.650100
N -33.141800 -0.977600 -22.054700
N -32.618900 -2.570800 -20.423100
C -32.326600 -1.976200 -21.535900
O -31.583300 -3.442600 -20.196000
C -31.079500 -2.471400 -22.043000
N -30.716100 -1.072500 -23.947500
N -30.646600 -3.384300 -21.208900
C -30.349000 -2.113900 -23.252300
O -29.816600 -1.086600 -25.031000
N -29.286300 -2.827100 -23.740500
C -29.021300 -2.147700 -24.816900
C -28.045800 -2.451300 -25.861500
O -28.018300 -1.646500 -26.973200
N -27.218700 -3.407500 -25.878000
C -27.049000 -2.186000 -27.756600
N -26.832400 -1.543000 -28.882400
N -26.570100 -3.242000 -27.101400
H -25.929200 -3.765500 -27.400300
N -25.802400 -2.041900 -29.634100
O -25.511500 -1.393900 -30.630500
O -25.223800 -3.093400 -29.311800
50
Fragment
O -34.665900 -6.330800 -17.709200
N -33.796200 -5.563900 -17.368000
O -33.419900 -4.570700 -17.996200
H -33.257700 -6.636700 -15.768200
N -33.154100 -5.862100 -16.172800
N -32.631200 -4.268900 -14.541200
C -32.338900 -4.863500 -15.654100
O -31.595600 -3.397100 -14.314200
C -31.091800 -4.368300 -16.161100
N -30.728400 -5.767200 -18.065600
N -30.658900 -3.455400 -15.327000
C -30.361300 -4.725800 -17.370400
O -29.828900 -5.753100 -19.149100
N -29.298600 -4.012600 -17.858600
C -29.033600 -4.692000 -18.935000
C -28.058100 -4.388400 -19.979600
O -28.030600 -5.193200 -21.091300
N -27.231000 -3.432200 -19.996100
C -27.061400 -4.653700 -21.874700
N -26.844700 -5.296700 -23.000500
N -26.582400 -3.597700 -21.219500
H -25.941500 -3.074200 -21.518400
N -25.814700 -4.797800 -23.752200
O -25.523800 -5.445800 -24.748600
O -25.236100 -3.746300 -23.429900
O -34.653600 -0.508900 -23.591100
N -33.783900 -1.275800 -23.249900
O -33.407600 -2.269000 -23.878100
H -33.245400 -0.203000 -21.650100
N -33.141800 -0.977600 -22.054700
N -32.618900 -2.570800 -20.423100
C -32.326600 -1.976200 -21.535900
O -31.583300 -3.442600 -20.196000
C -31.079500 -2.471400 -22.043000
N -30.716100 -1.072500 -23.947500
N -30.646600 -3.384300 -21.208900
C -30.349000 -2.113900 -23.252300
O -29.816600 -1.086600 -25.031000
N -29.286300 -2.827100 -23.740500
C -29.021300 -2.147700 -24.816900
C -28.045800 -2.451300 -25.861500
O -28.018300 -1.646500 -26.973200
N -27.218700 -3.407500 -25.878000
C -27.049000 -2.186000 -27.756600
N -26.832400 -1.543000 -28.882400
N -26.570100 -3.242000 -27.101400
H -25.929200 -3.765500 -27.400300
N -25.802400 -2.041900 -29.634100
O -25.511500 -1.393900 -30.630500
O -25.223800 -3.093400 -29.311800
