21
Fragment
H -8.393500 -8.423800 -18.931500
N -7.634000 -8.864900 -18.982200
N -7.315700 -8.455000 -21.301900
H -7.300300 -9.250400 -18.264600
C -6.991200 -8.949700 -20.141400
N -6.316600 -8.842400 -22.197700
O -5.821700 -9.649400 -20.188700
C -5.484700 -9.526000 -21.518100
C -4.248900 -10.158200 -21.950400
N -3.747000 -10.155600 -23.154200
O -3.551200 -10.850000 -21.049300
C -2.631500 -10.940300 -22.959700
N -2.453300 -11.387900 -21.753200
N -1.898400 -10.919700 -25.260500
C -1.702200 -11.281400 -24.025600
O -0.855700 -11.428800 -25.972500
C -0.494100 -12.055800 -23.931100
H -0.300100 -12.488300 -22.058000
N 0.028500 -12.144400 -25.145600
N 0.085700 -12.572800 -22.844800
H 0.853000 -12.997500 -22.914900
21
Fragment
H -18.121800 -2.581200 -17.616400
N -17.354500 -3.006000 -17.686500
N -17.297300 -3.434300 -15.385700
H -16.968700 -3.090500 -18.473400
C -16.774700 -3.522900 -16.600300
O -16.413100 -4.149900 -14.558900
C -15.566500 -4.297300 -16.505700
N -15.370400 -4.659000 -15.270900
N -14.815500 -4.190800 -18.778200
C -14.637200 -4.638400 -17.571700
O -13.717600 -4.728700 -19.482100
N -13.521800 -5.423100 -17.377100
C -13.019900 -5.420500 -18.580900
C -11.784100 -6.052700 -19.013300
O -11.447100 -5.929300 -20.342700
N -10.952200 -6.736400 -18.333700
C -10.277600 -6.629000 -20.390000
H -9.968500 -6.328300 -22.266700
N -9.953100 -7.123700 -19.229400
N -9.634700 -6.713800 -21.549200
H -8.875300 -7.155000 -21.599800
42
Fragment
H -8.393500 -8.423800 -18.931500
N -7.634000 -8.864900 -18.982200
N -7.315700 -8.455000 -21.301900
H -7.300300 -9.250400 -18.264600
C -6.991200 -8.949700 -20.141400
N -6.316600 -8.842400 -22.197700
O -5.821700 -9.649400 -20.188700
C -5.484700 -9.526000 -21.518100
C -4.248900 -10.158200 -21.950400
N -3.747000 -10.155600 -23.154200
O -3.551200 -10.850000 -21.049300
C -2.631500 -10.940300 -22.959700
N -2.453300 -11.387900 -21.753200
N -1.898400 -10.919700 -25.260500
C -1.702200 -11.281400 -24.025600
O -0.855700 -11.428800 -25.972500
C -0.494100 -12.055800 -23.931100
H -0.300100 -12.488300 -22.058000
N 0.028500 -12.144400 -25.145600
N 0.085700 -12.572800 -22.844800
H 0.853000 -12.997500 -22.914900
H -18.121800 -2.581200 -17.616400
N -17.354500 -3.006000 -17.686500
N -17.297300 -3.434300 -15.385700
H -16.968700 -3.090500 -18.473400
C -16.774700 -3.522900 -16.600300
O -16.413100 -4.149900 -14.558900
C -15.566500 -4.297300 -16.505700
N -15.370400 -4.659000 -15.270900
N -14.815500 -4.190800 -18.778200
C -14.637200 -4.638400 -17.571700
O -13.717600 -4.728700 -19.482100
N -13.521800 -5.423100 -17.377100
C -13.019900 -5.420500 -18.580900
C -11.784100 -6.052700 -19.013300
O -11.447100 -5.929300 -20.342700
N -10.952200 -6.736400 -18.333700
C -10.277600 -6.629000 -20.390000
H -9.968500 -6.328300 -22.266700
N -9.953100 -7.123700 -19.229400
N -9.634700 -6.713800 -21.549200
H -8.875300 -7.155000 -21.599800
