21
Fragment
H -8.393500 -8.423800 -18.931500
N -7.634000 -8.864900 -18.982200
N -7.315700 -8.455000 -21.301900
H -7.300300 -9.250400 -18.264600
C -6.991200 -8.949700 -20.141400
N -6.316600 -8.842400 -22.197700
O -5.821700 -9.649400 -20.188700
C -5.484700 -9.526000 -21.518100
C -4.248900 -10.158200 -21.950400
N -3.747000 -10.155600 -23.154200
O -3.551200 -10.850000 -21.049300
C -2.631500 -10.940300 -22.959700
N -2.453300 -11.387900 -21.753200
N -1.898400 -10.919700 -25.260500
C -1.702200 -11.281400 -24.025600
O -0.855700 -11.428800 -25.972500
C -0.494100 -12.055800 -23.931100
H -0.300100 -12.488300 -22.058000
N 0.028500 -12.144400 -25.145600
N 0.085700 -12.572800 -22.844800
H 0.853000 -12.997500 -22.914900
21
Fragment
H -10.678800 -10.561200 -17.616400
N -9.911400 -10.985900 -17.686500
N -9.854200 -11.414300 -15.385700
H -9.525700 -11.070400 -18.473400
C -9.331600 -11.502800 -16.600300
O -8.970100 -12.129900 -14.558900
C -8.123500 -12.277300 -16.505700
N -7.927300 -12.638900 -15.270900
N -7.372500 -12.170800 -18.778200
C -7.194200 -12.618400 -17.571700
O -6.274500 -12.708600 -19.482100
N -6.078700 -13.403000 -17.377100
C -5.576800 -13.400500 -18.580900
C -4.341000 -14.032700 -19.013300
O -4.004000 -13.909300 -20.342700
N -3.509100 -14.716300 -18.333700
C -2.834500 -14.608900 -20.390000
H -2.525500 -14.308300 -22.266700
N -2.510000 -15.103700 -19.229400
N -2.191700 -14.693800 -21.549200
H -1.432200 -15.134900 -21.599800
42
Fragment
H -8.393500 -8.423800 -18.931500
N -7.634000 -8.864900 -18.982200
N -7.315700 -8.455000 -21.301900
H -7.300300 -9.250400 -18.264600
C -6.991200 -8.949700 -20.141400
N -6.316600 -8.842400 -22.197700
O -5.821700 -9.649400 -20.188700
C -5.484700 -9.526000 -21.518100
C -4.248900 -10.158200 -21.950400
N -3.747000 -10.155600 -23.154200
O -3.551200 -10.850000 -21.049300
C -2.631500 -10.940300 -22.959700
N -2.453300 -11.387900 -21.753200
N -1.898400 -10.919700 -25.260500
C -1.702200 -11.281400 -24.025600
O -0.855700 -11.428800 -25.972500
C -0.494100 -12.055800 -23.931100
H -0.300100 -12.488300 -22.058000
N 0.028500 -12.144400 -25.145600
N 0.085700 -12.572800 -22.844800
H 0.853000 -12.997500 -22.914900
H -10.678800 -10.561200 -17.616400
N -9.911400 -10.985900 -17.686500
N -9.854200 -11.414300 -15.385700
H -9.525700 -11.070400 -18.473400
C -9.331600 -11.502800 -16.600300
O -8.970100 -12.129900 -14.558900
C -8.123500 -12.277300 -16.505700
N -7.927300 -12.638900 -15.270900
N -7.372500 -12.170800 -18.778200
C -7.194200 -12.618400 -17.571700
O -6.274500 -12.708600 -19.482100
N -6.078700 -13.403000 -17.377100
C -5.576800 -13.400500 -18.580900
C -4.341000 -14.032700 -19.013300
O -4.004000 -13.909300 -20.342700
N -3.509100 -14.716300 -18.333700
C -2.834500 -14.608900 -20.390000
H -2.525500 -14.308300 -22.266700
N -2.510000 -15.103700 -19.229400
N -2.191700 -14.693800 -21.549200
H -1.432200 -15.134900 -21.599800
