25
Fragment
O -34.665900 -6.330800 -17.709200
N -33.796200 -5.563900 -17.368000
O -33.419900 -4.570700 -17.996200
H -33.257700 -6.636700 -15.768200
N -33.154100 -5.862100 -16.172800
N -32.631200 -4.268900 -14.541200
C -32.338900 -4.863500 -15.654100
O -31.595600 -3.397100 -14.314200
C -31.091800 -4.368300 -16.161100
N -30.728400 -5.767200 -18.065600
N -30.658900 -3.455400 -15.327000
C -30.361300 -4.725800 -17.370400
O -29.828900 -5.753100 -19.149100
N -29.298600 -4.012600 -17.858600
C -29.033600 -4.692000 -18.935000
C -28.058100 -4.388400 -19.979600
O -28.030600 -5.193200 -21.091300
N -27.231000 -3.432200 -19.996100
C -27.061400 -4.653700 -21.874700
N -26.844700 -5.296700 -23.000500
N -26.582400 -3.597700 -21.219500
H -25.941500 -3.074200 -21.518400
N -25.814700 -4.797800 -23.752200
O -25.523800 -5.445800 -24.748600
O -25.236100 -3.746300 -23.429900
25
Fragment
O -46.525000 -9.933100 -11.861400
O -46.237300 -8.233600 -10.542700
N -45.946400 -8.881600 -11.539100
H -45.819600 -10.605200 -13.772900
N -45.178700 -10.081700 -14.071800
N -44.916400 -8.382700 -12.290800
C -44.699700 -9.025700 -13.416600
N -44.530100 -10.247200 -15.295300
O -43.730500 -8.486200 -14.200100
C -43.703000 -9.291000 -15.311700
C -42.727400 -8.987400 -16.356400
N -42.462500 -9.666800 -17.432700
O -41.932200 -7.926300 -16.142300
C -41.399800 -8.953600 -17.920900
N -41.102200 -10.224000 -19.964300
N -41.032700 -7.912200 -17.225700
C -40.669300 -9.311100 -19.130200
O -40.165500 -10.282300 -20.977200
C -39.422100 -8.815900 -19.637300
N -39.129800 -9.410500 -20.750100
N -38.606900 -7.817300 -19.118500
H -38.503400 -7.042700 -19.523200
O -38.341100 -9.108700 -17.295100
N -37.964900 -8.115500 -17.923300
O -37.095200 -7.348600 -17.582100
50
Fragment
O -34.665900 -6.330800 -17.709200
N -33.796200 -5.563900 -17.368000
O -33.419900 -4.570700 -17.996200
H -33.257700 -6.636700 -15.768200
N -33.154100 -5.862100 -16.172800
N -32.631200 -4.268900 -14.541200
C -32.338900 -4.863500 -15.654100
O -31.595600 -3.397100 -14.314200
C -31.091800 -4.368300 -16.161100
N -30.728400 -5.767200 -18.065600
N -30.658900 -3.455400 -15.327000
C -30.361300 -4.725800 -17.370400
O -29.828900 -5.753100 -19.149100
N -29.298600 -4.012600 -17.858600
C -29.033600 -4.692000 -18.935000
C -28.058100 -4.388400 -19.979600
O -28.030600 -5.193200 -21.091300
N -27.231000 -3.432200 -19.996100
C -27.061400 -4.653700 -21.874700
N -26.844700 -5.296700 -23.000500
N -26.582400 -3.597700 -21.219500
H -25.941500 -3.074200 -21.518400
N -25.814700 -4.797800 -23.752200
O -25.523800 -5.445800 -24.748600
O -25.236100 -3.746300 -23.429900
O -46.525000 -9.933100 -11.861400
O -46.237300 -8.233600 -10.542700
N -45.946400 -8.881600 -11.539100
H -45.819600 -10.605200 -13.772900
N -45.178700 -10.081700 -14.071800
N -44.916400 -8.382700 -12.290800
C -44.699700 -9.025700 -13.416600
N -44.530100 -10.247200 -15.295300
O -43.730500 -8.486200 -14.200100
C -43.703000 -9.291000 -15.311700
C -42.727400 -8.987400 -16.356400
N -42.462500 -9.666800 -17.432700
O -41.932200 -7.926300 -16.142300
C -41.399800 -8.953600 -17.920900
N -41.102200 -10.224000 -19.964300
N -41.032700 -7.912200 -17.225700
C -40.669300 -9.311100 -19.130200
O -40.165500 -10.282300 -20.977200
C -39.422100 -8.815900 -19.637300
N -39.129800 -9.410500 -20.750100
N -38.606900 -7.817300 -19.118500
H -38.503400 -7.042700 -19.523200
O -38.341100 -9.108700 -17.295100
N -37.964900 -8.115500 -17.923300
O -37.095200 -7.348600 -17.582100
