25
Fragment
O -34.665900 -6.330800 -17.709200
N -33.796200 -5.563900 -17.368000
O -33.419900 -4.570700 -17.996200
H -33.257700 -6.636700 -15.768200
N -33.154100 -5.862100 -16.172800
N -32.631200 -4.268900 -14.541200
C -32.338900 -4.863500 -15.654100
O -31.595600 -3.397100 -14.314200
C -31.091800 -4.368300 -16.161100
N -30.728400 -5.767200 -18.065600
N -30.658900 -3.455400 -15.327000
C -30.361300 -4.725800 -17.370400
O -29.828900 -5.753100 -19.149100
N -29.298600 -4.012600 -17.858600
C -29.033600 -4.692000 -18.935000
C -28.058100 -4.388400 -19.979600
O -28.030600 -5.193200 -21.091300
N -27.231000 -3.432200 -19.996100
C -27.061400 -4.653700 -21.874700
N -26.844700 -5.296700 -23.000500
N -26.582400 -3.597700 -21.219500
H -25.941500 -3.074200 -21.518400
N -25.814700 -4.797800 -23.752200
O -25.523800 -5.445800 -24.748600
O -25.236100 -3.746300 -23.429900
25
Fragment
O -22.555300 -5.373300 -23.625200
O -22.267600 -3.673800 -22.306500
N -21.976800 -4.321800 -23.302900
H -21.850000 -6.045400 -25.536700
N -21.209000 -5.521900 -25.835600
N -20.946800 -3.822900 -24.054600
C -20.730100 -4.465900 -25.180400
N -20.560500 -5.687400 -27.059000
O -19.760800 -3.926400 -25.963800
C -19.733400 -4.731200 -27.075500
C -18.757800 -4.427600 -28.120100
N -18.492900 -5.107000 -29.196500
O -17.962600 -3.366500 -27.906000
C -17.430100 -4.393800 -29.684700
N -17.132500 -5.664200 -31.728100
N -17.063100 -3.352400 -28.989500
C -16.699700 -4.751300 -30.894000
O -16.195800 -5.722500 -32.740900
C -15.452500 -4.256100 -31.401000
N -15.160200 -4.850700 -32.513900
N -14.637300 -3.257500 -30.882300
H -14.533700 -2.482900 -31.286900
O -14.371500 -4.548900 -29.058900
N -13.995200 -3.555700 -29.687100
O -13.125500 -2.788800 -29.345900
50
Fragment
O -34.665900 -6.330800 -17.709200
N -33.796200 -5.563900 -17.368000
O -33.419900 -4.570700 -17.996200
H -33.257700 -6.636700 -15.768200
N -33.154100 -5.862100 -16.172800
N -32.631200 -4.268900 -14.541200
C -32.338900 -4.863500 -15.654100
O -31.595600 -3.397100 -14.314200
C -31.091800 -4.368300 -16.161100
N -30.728400 -5.767200 -18.065600
N -30.658900 -3.455400 -15.327000
C -30.361300 -4.725800 -17.370400
O -29.828900 -5.753100 -19.149100
N -29.298600 -4.012600 -17.858600
C -29.033600 -4.692000 -18.935000
C -28.058100 -4.388400 -19.979600
O -28.030600 -5.193200 -21.091300
N -27.231000 -3.432200 -19.996100
C -27.061400 -4.653700 -21.874700
N -26.844700 -5.296700 -23.000500
N -26.582400 -3.597700 -21.219500
H -25.941500 -3.074200 -21.518400
N -25.814700 -4.797800 -23.752200
O -25.523800 -5.445800 -24.748600
O -25.236100 -3.746300 -23.429900
O -22.555300 -5.373300 -23.625200
O -22.267600 -3.673800 -22.306500
N -21.976800 -4.321800 -23.302900
H -21.850000 -6.045400 -25.536700
N -21.209000 -5.521900 -25.835600
N -20.946800 -3.822900 -24.054600
C -20.730100 -4.465900 -25.180400
N -20.560500 -5.687400 -27.059000
O -19.760800 -3.926400 -25.963800
C -19.733400 -4.731200 -27.075500
C -18.757800 -4.427600 -28.120100
N -18.492900 -5.107000 -29.196500
O -17.962600 -3.366500 -27.906000
C -17.430100 -4.393800 -29.684700
N -17.132500 -5.664200 -31.728100
N -17.063100 -3.352400 -28.989500
C -16.699700 -4.751300 -30.894000
O -16.195800 -5.722500 -32.740900
C -15.452500 -4.256100 -31.401000
N -15.160200 -4.850700 -32.513900
N -14.637300 -3.257500 -30.882300
H -14.533700 -2.482900 -31.286900
O -14.371500 -4.548900 -29.058900
N -13.995200 -3.555700 -29.687100
O -13.125500 -2.788800 -29.345900
