21
Fragment
H -8.393500 -8.423800 -18.931500
N -7.634000 -8.864900 -18.982200
N -7.315700 -8.455000 -21.301900
H -7.300300 -9.250400 -18.264600
C -6.991200 -8.949700 -20.141400
N -6.316600 -8.842400 -22.197700
O -5.821700 -9.649400 -20.188700
C -5.484700 -9.526000 -21.518100
C -4.248900 -10.158200 -21.950400
N -3.747000 -10.155600 -23.154200
O -3.551200 -10.850000 -21.049300
C -2.631500 -10.940300 -22.959700
N -2.453300 -11.387900 -21.753200
N -1.898400 -10.919700 -25.260500
C -1.702200 -11.281400 -24.025600
O -0.855700 -11.428800 -25.972500
C -0.494100 -12.055800 -23.931100
H -0.300100 -12.488300 -22.058000
N 0.028500 -12.144400 -25.145600
N 0.085700 -12.572800 -22.844800
H 0.853000 -12.997500 -22.914900
12
Fragment
H 0.068700 -12.554800 -29.014000
H 0.159000 -13.575200 -27.784500
H 0.243600 -14.122100 -29.286100
C 0.482000 -13.382000 -28.689400
N 1.908200 -13.227400 -28.665100
H 2.101700 -11.285900 -28.159400
H 2.167800 -12.279000 -26.906200
O 2.305000 -14.838800 -30.231000
C 2.444300 -12.145400 -27.836900
C 2.691000 -13.958800 -29.440600
H 3.423000 -12.147700 -27.890200
H 3.625700 -13.798500 -29.390800
33
Fragment
H -8.393500 -8.423800 -18.931500
N -7.634000 -8.864900 -18.982200
N -7.315700 -8.455000 -21.301900
H -7.300300 -9.250400 -18.264600
C -6.991200 -8.949700 -20.141400
N -6.316600 -8.842400 -22.197700
O -5.821700 -9.649400 -20.188700
C -5.484700 -9.526000 -21.518100
C -4.248900 -10.158200 -21.950400
N -3.747000 -10.155600 -23.154200
O -3.551200 -10.850000 -21.049300
C -2.631500 -10.940300 -22.959700
N -2.453300 -11.387900 -21.753200
N -1.898400 -10.919700 -25.260500
C -1.702200 -11.281400 -24.025600
O -0.855700 -11.428800 -25.972500
C -0.494100 -12.055800 -23.931100
H -0.300100 -12.488300 -22.058000
N 0.028500 -12.144400 -25.145600
N 0.085700 -12.572800 -22.844800
H 0.853000 -12.997500 -22.914900
H 0.068700 -12.554800 -29.014000
H 0.159000 -13.575200 -27.784500
H 0.243600 -14.122100 -29.286100
C 0.482000 -13.382000 -28.689400
N 1.908200 -13.227400 -28.665100
H 2.101700 -11.285900 -28.159400
H 2.167800 -12.279000 -26.906200
O 2.305000 -14.838800 -30.231000
C 2.444300 -12.145400 -27.836900
C 2.691000 -13.958800 -29.440600
H 3.423000 -12.147700 -27.890200
H 3.625700 -13.798500 -29.390800
