29
Fragment
H -14.800000 -9.434800 -11.989300
O -14.789000 -7.469600 -13.338400
H -14.207000 -11.493000 -10.995000
N -14.103400 -9.449400 -12.449500
C -13.915500 -8.359400 -13.311800
N -13.556400 -11.532600 -11.582400
H -13.499600 -8.408800 -17.299700
C -13.259200 -10.507700 -12.405900
H -12.931900 -12.182400 -11.502500
H -12.893200 -5.821100 -14.012900
H -12.868700 -9.580300 -16.651800
C -12.736700 -8.402300 -14.069900
C -12.648300 -8.865000 -17.085400
C -12.512700 -6.106400 -14.898200
N -12.442100 -7.439100 -15.095600
H -12.187500 -9.084000 -17.982700
N -12.167500 -10.567600 -13.132500
O -12.153200 -5.272100 -15.724100
C -11.924800 -9.522900 -13.973000
C -11.737100 -7.964000 -16.274000
H -11.512200 -7.176500 -16.821300
N -10.827800 -9.657200 -14.758900
H -10.625000 -10.410700 -14.955100
C -10.472300 -8.630400 -15.750800
H -9.955000 -10.008300 -17.224600
H -9.921300 -7.979400 -15.280900
C -9.604600 -9.228400 -16.839500
H -9.379200 -8.549900 -17.474100
H -8.765400 -9.532800 -16.421700
29
Fragment
H -14.639000 -4.770200 -19.909500
H -14.025200 -5.753000 -18.857100
C -13.799800 -5.074600 -19.491700
H -13.483100 -6.323500 -21.050300
H -13.449400 -4.294700 -19.106600
C -12.932100 -5.672600 -20.580400
H -12.779400 -3.892300 -21.376100
N -12.576600 -4.645800 -21.572300
H -11.892200 -7.126400 -19.509900
C -11.667300 -6.339000 -20.057200
C -11.479600 -4.780100 -22.358200
O -11.251200 -9.030900 -20.607100
N -11.236900 -3.735300 -23.198700
H -11.216900 -5.219000 -18.348500
N -10.962300 -6.863900 -21.235600
C -10.891700 -8.196600 -21.433000
C -10.756100 -5.438000 -19.245800
C -10.667700 -5.900700 -22.261300
H -10.535700 -4.722700 -19.679400
H -10.511200 -8.481900 -22.318300
H -10.472500 -2.120500 -24.828700
C -10.145200 -3.795200 -23.925300
H -9.904800 -5.894200 -19.031500
N -9.848000 -2.770400 -24.748800
C -9.488900 -5.943600 -23.019400
N -9.301000 -4.853600 -23.881700
H -9.197400 -2.809900 -25.336200
O -8.615400 -6.833400 -22.992800
H -8.604400 -4.868200 -24.341900
58
Fragment
H -14.800000 -9.434800 -11.989300
O -14.789000 -7.469600 -13.338400
H -14.207000 -11.493000 -10.995000
N -14.103400 -9.449400 -12.449500
C -13.915500 -8.359400 -13.311800
N -13.556400 -11.532600 -11.582400
H -13.499600 -8.408800 -17.299700
C -13.259200 -10.507700 -12.405900
H -12.931900 -12.182400 -11.502500
H -12.893200 -5.821100 -14.012900
H -12.868700 -9.580300 -16.651800
C -12.736700 -8.402300 -14.069900
C -12.648300 -8.865000 -17.085400
C -12.512700 -6.106400 -14.898200
N -12.442100 -7.439100 -15.095600
H -12.187500 -9.084000 -17.982700
N -12.167500 -10.567600 -13.132500
O -12.153200 -5.272100 -15.724100
C -11.924800 -9.522900 -13.973000
C -11.737100 -7.964000 -16.274000
H -11.512200 -7.176500 -16.821300
N -10.827800 -9.657200 -14.758900
H -10.625000 -10.410700 -14.955100
C -10.472300 -8.630400 -15.750800
H -9.955000 -10.008300 -17.224600
H -9.921300 -7.979400 -15.280900
C -9.604600 -9.228400 -16.839500
H -9.379200 -8.549900 -17.474100
H -8.765400 -9.532800 -16.421700
H -14.639000 -4.770200 -19.909500
H -14.025200 -5.753000 -18.857100
C -13.799800 -5.074600 -19.491700
H -13.483100 -6.323500 -21.050300
H -13.449400 -4.294700 -19.106600
C -12.932100 -5.672600 -20.580400
H -12.779400 -3.892300 -21.376100
N -12.576600 -4.645800 -21.572300
H -11.892200 -7.126400 -19.509900
C -11.667300 -6.339000 -20.057200
C -11.479600 -4.780100 -22.358200
O -11.251200 -9.030900 -20.607100
N -11.236900 -3.735300 -23.198700
H -11.216900 -5.219000 -18.348500
N -10.962300 -6.863900 -21.235600
C -10.891700 -8.196600 -21.433000
C -10.756100 -5.438000 -19.245800
C -10.667700 -5.900700 -22.261300
H -10.535700 -4.722700 -19.679400
H -10.511200 -8.481900 -22.318300
H -10.472500 -2.120500 -24.828700
C -10.145200 -3.795200 -23.925300
H -9.904800 -5.894200 -19.031500
N -9.848000 -2.770400 -24.748800
C -9.488900 -5.943600 -23.019400
N -9.301000 -4.853600 -23.881700
H -9.197400 -2.809900 -25.336200
O -8.615400 -6.833400 -22.992800
H -8.604400 -4.868200 -24.341900
