29
Fragment
H -14.800000 -9.434800 -11.989300
O -14.789000 -7.469600 -13.338400
H -14.207000 -11.493000 -10.995000
N -14.103400 -9.449400 -12.449500
C -13.915500 -8.359400 -13.311800
N -13.556400 -11.532600 -11.582400
H -13.499600 -8.408800 -17.299700
C -13.259200 -10.507700 -12.405900
H -12.931900 -12.182400 -11.502500
H -12.893200 -5.821100 -14.012900
H -12.868700 -9.580300 -16.651800
C -12.736700 -8.402300 -14.069900
C -12.648300 -8.865000 -17.085400
C -12.512700 -6.106400 -14.898200
N -12.442100 -7.439100 -15.095600
H -12.187500 -9.084000 -17.982700
N -12.167500 -10.567600 -13.132500
O -12.153200 -5.272100 -15.724100
C -11.924800 -9.522900 -13.973000
C -11.737100 -7.964000 -16.274000
H -11.512200 -7.176500 -16.821300
N -10.827800 -9.657200 -14.758900
H -10.625000 -10.410700 -14.955100
C -10.472300 -8.630400 -15.750800
H -9.955000 -10.008300 -17.224600
H -9.921300 -7.979400 -15.280900
C -9.604600 -9.228400 -16.839500
H -9.379200 -8.549900 -17.474100
H -8.765400 -9.532800 -16.421700
29
Fragment
H -13.756500 -16.614400 -11.989300
O -13.745500 -14.649100 -13.338400
H -13.163400 -18.672600 -10.995000
N -13.059800 -16.629000 -12.449500
C -12.872000 -15.539000 -13.311800
N -12.512900 -18.712100 -11.582400
H -12.456100 -15.588300 -17.299700
C -12.215700 -17.687300 -12.405900
H -11.888400 -19.362000 -11.502500
H -11.849600 -13.000600 -14.012900
H -11.825100 -16.759800 -16.651800
C -11.693200 -15.581800 -14.069900
C -11.604800 -16.044600 -17.085400
C -11.469100 -13.286000 -14.898200
N -11.398600 -14.618700 -15.095600
H -11.144000 -16.263600 -17.982700
N -11.124000 -17.747200 -13.132500
O -11.109600 -12.451600 -15.724100
C -10.881200 -16.702500 -13.973000
C -10.693600 -15.143600 -16.274000
H -10.468700 -14.356100 -16.821300
N -9.784300 -16.836700 -14.758900
H -9.581400 -17.590300 -14.955100
C -9.428800 -15.809900 -15.750800
H -8.911500 -17.187800 -17.224600
H -8.877800 -15.159000 -15.280900
C -8.561100 -16.408000 -16.839500
H -8.335600 -15.729500 -17.474100
H -7.721800 -16.712300 -16.421700
58
Fragment
H -14.800000 -9.434800 -11.989300
O -14.789000 -7.469600 -13.338400
H -14.207000 -11.493000 -10.995000
N -14.103400 -9.449400 -12.449500
C -13.915500 -8.359400 -13.311800
N -13.556400 -11.532600 -11.582400
H -13.499600 -8.408800 -17.299700
C -13.259200 -10.507700 -12.405900
H -12.931900 -12.182400 -11.502500
H -12.893200 -5.821100 -14.012900
H -12.868700 -9.580300 -16.651800
C -12.736700 -8.402300 -14.069900
C -12.648300 -8.865000 -17.085400
C -12.512700 -6.106400 -14.898200
N -12.442100 -7.439100 -15.095600
H -12.187500 -9.084000 -17.982700
N -12.167500 -10.567600 -13.132500
O -12.153200 -5.272100 -15.724100
C -11.924800 -9.522900 -13.973000
C -11.737100 -7.964000 -16.274000
H -11.512200 -7.176500 -16.821300
N -10.827800 -9.657200 -14.758900
H -10.625000 -10.410700 -14.955100
C -10.472300 -8.630400 -15.750800
H -9.955000 -10.008300 -17.224600
H -9.921300 -7.979400 -15.280900
C -9.604600 -9.228400 -16.839500
H -9.379200 -8.549900 -17.474100
H -8.765400 -9.532800 -16.421700
H -13.756500 -16.614400 -11.989300
O -13.745500 -14.649100 -13.338400
H -13.163400 -18.672600 -10.995000
N -13.059800 -16.629000 -12.449500
C -12.872000 -15.539000 -13.311800
N -12.512900 -18.712100 -11.582400
H -12.456100 -15.588300 -17.299700
C -12.215700 -17.687300 -12.405900
H -11.888400 -19.362000 -11.502500
H -11.849600 -13.000600 -14.012900
H -11.825100 -16.759800 -16.651800
C -11.693200 -15.581800 -14.069900
C -11.604800 -16.044600 -17.085400
C -11.469100 -13.286000 -14.898200
N -11.398600 -14.618700 -15.095600
H -11.144000 -16.263600 -17.982700
N -11.124000 -17.747200 -13.132500
O -11.109600 -12.451600 -15.724100
C -10.881200 -16.702500 -13.973000
C -10.693600 -15.143600 -16.274000
H -10.468700 -14.356100 -16.821300
N -9.784300 -16.836700 -14.758900
H -9.581400 -17.590300 -14.955100
C -9.428800 -15.809900 -15.750800
H -8.911500 -17.187800 -17.224600
H -8.877800 -15.159000 -15.280900
C -8.561100 -16.408000 -16.839500
H -8.335600 -15.729500 -17.474100
H -7.721800 -16.712300 -16.421700
