37
Fragment
H -11.313500 -10.747200 -36.519300
H -11.278300 -11.409400 -38.783500
O -11.111200 -11.911400 -38.156800
C -10.599800 -11.150400 -37.056600
H -10.337500 -8.737500 -38.528300
H -10.064200 -13.002900 -36.357900
H -10.037100 -15.384600 -32.549400
O -9.971200 -9.444000 -38.723700
C -9.936700 -14.461300 -32.587100
N -9.892800 -13.952400 -33.818000
N -9.860500 -13.857600 -31.407000
C -9.747700 -12.611900 -33.777400
C -9.729400 -12.088800 -36.249900
N -9.701500 -11.761200 -34.834300
C -9.681800 -12.521100 -31.393300
H -9.639300 -12.337700 -29.484600
C -9.616600 -11.834800 -32.635500
N -9.586500 -11.891200 -30.218600
C -9.585100 -10.119300 -37.540000
N -9.540400 -10.463000 -34.424200
C -9.478100 -10.505300 -33.096200
H -9.472900 -11.038500 -30.195700
H -9.413600 -9.467200 -36.829100
H -9.340300 -6.832600 -30.433500
C -9.234100 -9.315000 -32.312700
C -8.945400 -8.426000 -31.600500
C -8.555600 -7.310300 -30.712700
O -8.409100 -12.011100 -36.795300
H -8.390800 -11.350000 -38.674400
C -8.335800 -10.951800 -37.781400
H -8.102100 -7.658000 -29.940500
H -7.969500 -6.713600 -31.183900
C -7.030900 -10.261400 -37.649200
H -6.957600 -9.597200 -38.351600
H -6.919500 -10.190900 -35.830000
O -6.843300 -9.639600 -36.432700
H -6.320900 -10.908500 -37.780100
37
Fragment
H -8.332900 -15.948000 -38.565400
O -7.810500 -14.679100 -39.912800
H -7.734300 -15.230400 -40.515500
H -7.696200 -14.636700 -37.993900
C -7.622900 -15.300900 -38.696300
H -6.684300 -11.753100 -45.161600
H -6.551700 -12.697500 -46.405000
C -6.318000 -15.991300 -38.564100
H -6.263000 -16.389500 -37.671100
O -6.244700 -17.050600 -39.550200
C -6.098200 -12.349800 -45.632800
C -5.708400 -13.465500 -44.745000
C -5.419700 -14.354500 -44.032800
H -5.313500 -11.872100 -45.912000
H -5.240200 -14.506700 -39.516400
H -5.180900 -16.078000 -46.149800
C -5.175700 -15.544800 -43.249300
N -5.113400 -15.502500 -41.921300
C -5.068700 -15.158800 -38.805500
N -5.067300 -16.930700 -46.126900
C -5.037200 -16.874300 -43.710000
H -5.014500 -17.377200 -46.860900
C -4.972000 -17.560600 -44.952200
N -4.952300 -16.800700 -41.511200
C -4.924400 -17.128300 -40.095600
C -4.906100 -17.651400 -42.568100
N -4.793300 -18.897100 -44.938500
N -4.761000 -18.991900 -42.527500
C -4.717100 -19.500800 -43.758400
O -4.682600 -14.483500 -37.621800
H -4.616700 -20.424100 -43.796100
H -4.589600 -18.042400 -39.987600
H -4.316300 -13.777000 -37.817200
C -4.054000 -16.189900 -39.288900
O -3.542600 -16.950900 -38.188700
H -3.375500 -16.448900 -37.562000
H -3.340300 -15.786700 -39.826200
74
Fragment
H -11.313500 -10.747200 -36.519300
H -11.278300 -11.409400 -38.783500
O -11.111200 -11.911400 -38.156800
C -10.599800 -11.150400 -37.056600
H -10.337500 -8.737500 -38.528300
H -10.064200 -13.002900 -36.357900
H -10.037100 -15.384600 -32.549400
O -9.971200 -9.444000 -38.723700
C -9.936700 -14.461300 -32.587100
N -9.892800 -13.952400 -33.818000
N -9.860500 -13.857600 -31.407000
C -9.747700 -12.611900 -33.777400
C -9.729400 -12.088800 -36.249900
N -9.701500 -11.761200 -34.834300
C -9.681800 -12.521100 -31.393300
H -9.639300 -12.337700 -29.484600
C -9.616600 -11.834800 -32.635500
N -9.586500 -11.891200 -30.218600
C -9.585100 -10.119300 -37.540000
N -9.540400 -10.463000 -34.424200
C -9.478100 -10.505300 -33.096200
H -9.472900 -11.038500 -30.195700
H -9.413600 -9.467200 -36.829100
H -9.340300 -6.832600 -30.433500
C -9.234100 -9.315000 -32.312700
C -8.945400 -8.426000 -31.600500
C -8.555600 -7.310300 -30.712700
O -8.409100 -12.011100 -36.795300
H -8.390800 -11.350000 -38.674400
C -8.335800 -10.951800 -37.781400
H -8.102100 -7.658000 -29.940500
H -7.969500 -6.713600 -31.183900
C -7.030900 -10.261400 -37.649200
H -6.957600 -9.597200 -38.351600
H -6.919500 -10.190900 -35.830000
O -6.843300 -9.639600 -36.432700
H -6.320900 -10.908500 -37.780100
H -8.332900 -15.948000 -38.565400
O -7.810500 -14.679100 -39.912800
H -7.734300 -15.230400 -40.515500
H -7.696200 -14.636700 -37.993900
C -7.622900 -15.300900 -38.696300
H -6.684300 -11.753100 -45.161600
H -6.551700 -12.697500 -46.405000
C -6.318000 -15.991300 -38.564100
H -6.263000 -16.389500 -37.671100
O -6.244700 -17.050600 -39.550200
C -6.098200 -12.349800 -45.632800
C -5.708400 -13.465500 -44.745000
C -5.419700 -14.354500 -44.032800
H -5.313500 -11.872100 -45.912000
H -5.240200 -14.506700 -39.516400
H -5.180900 -16.078000 -46.149800
C -5.175700 -15.544800 -43.249300
N -5.113400 -15.502500 -41.921300
C -5.068700 -15.158800 -38.805500
N -5.067300 -16.930700 -46.126900
C -5.037200 -16.874300 -43.710000
H -5.014500 -17.377200 -46.860900
C -4.972000 -17.560600 -44.952200
N -4.952300 -16.800700 -41.511200
C -4.924400 -17.128300 -40.095600
C -4.906100 -17.651400 -42.568100
N -4.793300 -18.897100 -44.938500
N -4.761000 -18.991900 -42.527500
C -4.717100 -19.500800 -43.758400
O -4.682600 -14.483500 -37.621800
H -4.616700 -20.424100 -43.796100
H -4.589600 -18.042400 -39.987600
H -4.316300 -13.777000 -37.817200
C -4.054000 -16.189900 -39.288900
O -3.542600 -16.950900 -38.188700
H -3.375500 -16.448900 -37.562000
H -3.340300 -15.786700 -39.826200
