37
Fragment
H -11.313500 -10.747200 -36.519300
H -11.278300 -11.409400 -38.783500
O -11.111200 -11.911400 -38.156800
C -10.599800 -11.150400 -37.056600
H -10.337500 -8.737500 -38.528300
H -10.064200 -13.002900 -36.357900
H -10.037100 -15.384600 -32.549400
O -9.971200 -9.444000 -38.723700
C -9.936700 -14.461300 -32.587100
N -9.892800 -13.952400 -33.818000
N -9.860500 -13.857600 -31.407000
C -9.747700 -12.611900 -33.777400
C -9.729400 -12.088800 -36.249900
N -9.701500 -11.761200 -34.834300
C -9.681800 -12.521100 -31.393300
H -9.639300 -12.337700 -29.484600
C -9.616600 -11.834800 -32.635500
N -9.586500 -11.891200 -30.218600
C -9.585100 -10.119300 -37.540000
N -9.540400 -10.463000 -34.424200
C -9.478100 -10.505300 -33.096200
H -9.472900 -11.038500 -30.195700
H -9.413600 -9.467200 -36.829100
H -9.340300 -6.832600 -30.433500
C -9.234100 -9.315000 -32.312700
C -8.945400 -8.426000 -31.600500
C -8.555600 -7.310300 -30.712700
O -8.409100 -12.011100 -36.795300
H -8.390800 -11.350000 -38.674400
C -8.335800 -10.951800 -37.781400
H -8.102100 -7.658000 -29.940500
H -7.969500 -6.713600 -31.183900
C -7.030900 -10.261400 -37.649200
H -6.957600 -9.597200 -38.351600
H -6.919500 -10.190900 -35.830000
O -6.843300 -9.639600 -36.432700
H -6.320900 -10.908500 -37.780100
6
Fragment
H -9.749900 -5.169500 -35.465800
O -9.671500 -5.849900 -35.917700
H -8.952700 -7.168200 -34.676100
C -8.625200 -6.634000 -35.404700
H -8.286700 -7.207500 -36.096200
H -7.921100 -6.062500 -35.090600
43
Fragment
H -11.313500 -10.747200 -36.519300
H -11.278300 -11.409400 -38.783500
O -11.111200 -11.911400 -38.156800
C -10.599800 -11.150400 -37.056600
H -10.337500 -8.737500 -38.528300
H -10.064200 -13.002900 -36.357900
H -10.037100 -15.384600 -32.549400
O -9.971200 -9.444000 -38.723700
C -9.936700 -14.461300 -32.587100
N -9.892800 -13.952400 -33.818000
N -9.860500 -13.857600 -31.407000
C -9.747700 -12.611900 -33.777400
C -9.729400 -12.088800 -36.249900
N -9.701500 -11.761200 -34.834300
C -9.681800 -12.521100 -31.393300
H -9.639300 -12.337700 -29.484600
C -9.616600 -11.834800 -32.635500
N -9.586500 -11.891200 -30.218600
C -9.585100 -10.119300 -37.540000
N -9.540400 -10.463000 -34.424200
C -9.478100 -10.505300 -33.096200
H -9.472900 -11.038500 -30.195700
H -9.413600 -9.467200 -36.829100
H -9.340300 -6.832600 -30.433500
C -9.234100 -9.315000 -32.312700
C -8.945400 -8.426000 -31.600500
C -8.555600 -7.310300 -30.712700
O -8.409100 -12.011100 -36.795300
H -8.390800 -11.350000 -38.674400
C -8.335800 -10.951800 -37.781400
H -8.102100 -7.658000 -29.940500
H -7.969500 -6.713600 -31.183900
C -7.030900 -10.261400 -37.649200
H -6.957600 -9.597200 -38.351600
H -6.919500 -10.190900 -35.830000
O -6.843300 -9.639600 -36.432700
H -6.320900 -10.908500 -37.780100
H -9.749900 -5.169500 -35.465800
O -9.671500 -5.849900 -35.917700
H -8.952700 -7.168200 -34.676100
C -8.625200 -6.634000 -35.404700
H -8.286700 -7.207500 -36.096200
H -7.921100 -6.062500 -35.090600
