37
Fragment
H -11.313500 -10.747200 -36.519300
H -11.278300 -11.409400 -38.783500
O -11.111200 -11.911400 -38.156800
C -10.599800 -11.150400 -37.056600
H -10.337500 -8.737500 -38.528300
H -10.064200 -13.002900 -36.357900
H -10.037100 -15.384600 -32.549400
O -9.971200 -9.444000 -38.723700
C -9.936700 -14.461300 -32.587100
N -9.892800 -13.952400 -33.818000
N -9.860500 -13.857600 -31.407000
C -9.747700 -12.611900 -33.777400
C -9.729400 -12.088800 -36.249900
N -9.701500 -11.761200 -34.834300
C -9.681800 -12.521100 -31.393300
H -9.639300 -12.337700 -29.484600
C -9.616600 -11.834800 -32.635500
N -9.586500 -11.891200 -30.218600
C -9.585100 -10.119300 -37.540000
N -9.540400 -10.463000 -34.424200
C -9.478100 -10.505300 -33.096200
H -9.472900 -11.038500 -30.195700
H -9.413600 -9.467200 -36.829100
H -9.340300 -6.832600 -30.433500
C -9.234100 -9.315000 -32.312700
C -8.945400 -8.426000 -31.600500
C -8.555600 -7.310300 -30.712700
O -8.409100 -12.011100 -36.795300
H -8.390800 -11.350000 -38.674400
C -8.335800 -10.951800 -37.781400
H -8.102100 -7.658000 -29.940500
H -7.969500 -6.713600 -31.183900
C -7.030900 -10.261400 -37.649200
H -6.957600 -9.597200 -38.351600
H -6.919500 -10.190900 -35.830000
O -6.843300 -9.639600 -36.432700
H -6.320900 -10.908500 -37.780100
37
Fragment
H -7.650000 -4.371300 -28.919700
H -7.614800 -3.709100 -26.655500
O -7.447800 -3.207100 -27.282200
C -6.936400 -3.968100 -28.382400
H -6.674100 -6.381000 -26.910700
H -6.400800 -2.115600 -29.081100
H -6.373700 0.266100 -32.889600
O -6.307700 -5.674500 -26.715300
C -6.273300 -0.657200 -32.851900
N -6.229300 -1.166100 -31.621000
N -6.197100 -1.260900 -34.032000
C -6.084300 -2.506600 -31.661600
C -6.065900 -3.029700 -29.189100
N -6.038100 -3.357300 -30.604700
C -6.018300 -2.597400 -34.045700
H -5.975800 -2.780800 -35.954400
C -5.953100 -3.283700 -32.803500
N -5.923100 -3.227300 -35.220400
C -5.921600 -4.999200 -27.899000
N -5.876900 -4.655500 -31.014800
C -5.814600 -4.613200 -32.342800
H -5.809500 -4.080000 -35.243300
H -5.750200 -5.651300 -28.609900
H -5.676900 -8.285900 -35.005500
C -5.570600 -5.803500 -33.126300
C -5.282000 -6.692500 -33.838500
C -4.892200 -7.808200 -34.726300
O -4.745600 -3.107400 -28.643700
H -4.727300 -3.768500 -26.764600
C -4.672400 -4.166700 -27.657600
H -4.438600 -7.460500 -35.498500
H -4.306000 -8.404900 -34.255100
C -3.367400 -4.857100 -27.789800
H -3.294200 -5.521300 -27.087400
H -3.256100 -4.927600 -29.609000
O -3.179900 -5.478900 -29.006300
H -2.657500 -4.210000 -27.658900
74
Fragment
H -11.313500 -10.747200 -36.519300
H -11.278300 -11.409400 -38.783500
O -11.111200 -11.911400 -38.156800
C -10.599800 -11.150400 -37.056600
H -10.337500 -8.737500 -38.528300
H -10.064200 -13.002900 -36.357900
H -10.037100 -15.384600 -32.549400
O -9.971200 -9.444000 -38.723700
C -9.936700 -14.461300 -32.587100
N -9.892800 -13.952400 -33.818000
N -9.860500 -13.857600 -31.407000
C -9.747700 -12.611900 -33.777400
C -9.729400 -12.088800 -36.249900
N -9.701500 -11.761200 -34.834300
C -9.681800 -12.521100 -31.393300
H -9.639300 -12.337700 -29.484600
C -9.616600 -11.834800 -32.635500
N -9.586500 -11.891200 -30.218600
C -9.585100 -10.119300 -37.540000
N -9.540400 -10.463000 -34.424200
C -9.478100 -10.505300 -33.096200
H -9.472900 -11.038500 -30.195700
H -9.413600 -9.467200 -36.829100
H -9.340300 -6.832600 -30.433500
C -9.234100 -9.315000 -32.312700
C -8.945400 -8.426000 -31.600500
C -8.555600 -7.310300 -30.712700
O -8.409100 -12.011100 -36.795300
H -8.390800 -11.350000 -38.674400
C -8.335800 -10.951800 -37.781400
H -8.102100 -7.658000 -29.940500
H -7.969500 -6.713600 -31.183900
C -7.030900 -10.261400 -37.649200
H -6.957600 -9.597200 -38.351600
H -6.919500 -10.190900 -35.830000
O -6.843300 -9.639600 -36.432700
H -6.320900 -10.908500 -37.780100
H -7.650000 -4.371300 -28.919700
H -7.614800 -3.709100 -26.655500
O -7.447800 -3.207100 -27.282200
C -6.936400 -3.968100 -28.382400
H -6.674100 -6.381000 -26.910700
H -6.400800 -2.115600 -29.081100
H -6.373700 0.266100 -32.889600
O -6.307700 -5.674500 -26.715300
C -6.273300 -0.657200 -32.851900
N -6.229300 -1.166100 -31.621000
N -6.197100 -1.260900 -34.032000
C -6.084300 -2.506600 -31.661600
C -6.065900 -3.029700 -29.189100
N -6.038100 -3.357300 -30.604700
C -6.018300 -2.597400 -34.045700
H -5.975800 -2.780800 -35.954400
C -5.953100 -3.283700 -32.803500
N -5.923100 -3.227300 -35.220400
C -5.921600 -4.999200 -27.899000
N -5.876900 -4.655500 -31.014800
C -5.814600 -4.613200 -32.342800
H -5.809500 -4.080000 -35.243300
H -5.750200 -5.651300 -28.609900
H -5.676900 -8.285900 -35.005500
C -5.570600 -5.803500 -33.126300
C -5.282000 -6.692500 -33.838500
C -4.892200 -7.808200 -34.726300
O -4.745600 -3.107400 -28.643700
H -4.727300 -3.768500 -26.764600
C -4.672400 -4.166700 -27.657600
H -4.438600 -7.460500 -35.498500
H -4.306000 -8.404900 -34.255100
C -3.367400 -4.857100 -27.789800
H -3.294200 -5.521300 -27.087400
H -3.256100 -4.927600 -29.609000
O -3.179900 -5.478900 -29.006300
H -2.657500 -4.210000 -27.658900
