37
Fragment
H -11.313500 -10.747200 -36.519300
H -11.278300 -11.409400 -38.783500
O -11.111200 -11.911400 -38.156800
C -10.599800 -11.150400 -37.056600
H -10.337500 -8.737500 -38.528300
H -10.064200 -13.002900 -36.357900
H -10.037100 -15.384600 -32.549400
O -9.971200 -9.444000 -38.723700
C -9.936700 -14.461300 -32.587100
N -9.892800 -13.952400 -33.818000
N -9.860500 -13.857600 -31.407000
C -9.747700 -12.611900 -33.777400
C -9.729400 -12.088800 -36.249900
N -9.701500 -11.761200 -34.834300
C -9.681800 -12.521100 -31.393300
H -9.639300 -12.337700 -29.484600
C -9.616600 -11.834800 -32.635500
N -9.586500 -11.891200 -30.218600
C -9.585100 -10.119300 -37.540000
N -9.540400 -10.463000 -34.424200
C -9.478100 -10.505300 -33.096200
H -9.472900 -11.038500 -30.195700
H -9.413600 -9.467200 -36.829100
H -9.340300 -6.832600 -30.433500
C -9.234100 -9.315000 -32.312700
C -8.945400 -8.426000 -31.600500
C -8.555600 -7.310300 -30.712700
O -8.409100 -12.011100 -36.795300
H -8.390800 -11.350000 -38.674400
C -8.335800 -10.951800 -37.781400
H -8.102100 -7.658000 -29.940500
H -7.969500 -6.713600 -31.183900
C -7.030900 -10.261400 -37.649200
H -6.957600 -9.597200 -38.351600
H -6.919500 -10.190900 -35.830000
O -6.843300 -9.639600 -36.432700
H -6.320900 -10.908500 -37.780100
37
Fragment
H -7.650000 -14.450300 -28.919700
H -7.614800 -13.788100 -26.655500
O -7.447800 -13.286100 -27.282200
C -6.936400 -14.047100 -28.382400
H -6.674100 -16.460000 -26.910700
H -6.400800 -12.194600 -29.081100
H -6.373700 -9.812900 -32.889600
O -6.307700 -15.753500 -26.715300
C -6.273300 -10.736200 -32.851900
N -6.229300 -11.245100 -31.621000
N -6.197100 -11.339900 -34.032000
C -6.084300 -12.585600 -31.661600
C -6.065900 -13.108700 -29.189100
N -6.038100 -13.436300 -30.604700
C -6.018300 -12.676400 -34.045700
H -5.975800 -12.859800 -35.954400
C -5.953100 -13.362700 -32.803500
N -5.923100 -13.306300 -35.220400
C -5.921600 -15.078200 -27.899000
N -5.876900 -14.734500 -31.014800
C -5.814600 -14.692200 -32.342800
H -5.809500 -14.159000 -35.243300
H -5.750200 -15.730300 -28.609900
H -5.676900 -18.364900 -35.005500
C -5.570600 -15.882500 -33.126300
C -5.282000 -16.771500 -33.838500
C -4.892200 -17.887200 -34.726300
O -4.745600 -13.186400 -28.643700
H -4.727300 -13.847500 -26.764600
C -4.672400 -14.245700 -27.657600
H -4.438600 -17.539500 -35.498500
H -4.306000 -18.483900 -34.255100
C -3.367400 -14.936100 -27.789800
H -3.294200 -15.600300 -27.087400
H -3.256100 -15.006600 -29.609000
O -3.179900 -15.557900 -29.006300
H -2.657500 -14.289000 -27.658900
74
Fragment
H -11.313500 -10.747200 -36.519300
H -11.278300 -11.409400 -38.783500
O -11.111200 -11.911400 -38.156800
C -10.599800 -11.150400 -37.056600
H -10.337500 -8.737500 -38.528300
H -10.064200 -13.002900 -36.357900
H -10.037100 -15.384600 -32.549400
O -9.971200 -9.444000 -38.723700
C -9.936700 -14.461300 -32.587100
N -9.892800 -13.952400 -33.818000
N -9.860500 -13.857600 -31.407000
C -9.747700 -12.611900 -33.777400
C -9.729400 -12.088800 -36.249900
N -9.701500 -11.761200 -34.834300
C -9.681800 -12.521100 -31.393300
H -9.639300 -12.337700 -29.484600
C -9.616600 -11.834800 -32.635500
N -9.586500 -11.891200 -30.218600
C -9.585100 -10.119300 -37.540000
N -9.540400 -10.463000 -34.424200
C -9.478100 -10.505300 -33.096200
H -9.472900 -11.038500 -30.195700
H -9.413600 -9.467200 -36.829100
H -9.340300 -6.832600 -30.433500
C -9.234100 -9.315000 -32.312700
C -8.945400 -8.426000 -31.600500
C -8.555600 -7.310300 -30.712700
O -8.409100 -12.011100 -36.795300
H -8.390800 -11.350000 -38.674400
C -8.335800 -10.951800 -37.781400
H -8.102100 -7.658000 -29.940500
H -7.969500 -6.713600 -31.183900
C -7.030900 -10.261400 -37.649200
H -6.957600 -9.597200 -38.351600
H -6.919500 -10.190900 -35.830000
O -6.843300 -9.639600 -36.432700
H -6.320900 -10.908500 -37.780100
H -7.650000 -14.450300 -28.919700
H -7.614800 -13.788100 -26.655500
O -7.447800 -13.286100 -27.282200
C -6.936400 -14.047100 -28.382400
H -6.674100 -16.460000 -26.910700
H -6.400800 -12.194600 -29.081100
H -6.373700 -9.812900 -32.889600
O -6.307700 -15.753500 -26.715300
C -6.273300 -10.736200 -32.851900
N -6.229300 -11.245100 -31.621000
N -6.197100 -11.339900 -34.032000
C -6.084300 -12.585600 -31.661600
C -6.065900 -13.108700 -29.189100
N -6.038100 -13.436300 -30.604700
C -6.018300 -12.676400 -34.045700
H -5.975800 -12.859800 -35.954400
C -5.953100 -13.362700 -32.803500
N -5.923100 -13.306300 -35.220400
C -5.921600 -15.078200 -27.899000
N -5.876900 -14.734500 -31.014800
C -5.814600 -14.692200 -32.342800
H -5.809500 -14.159000 -35.243300
H -5.750200 -15.730300 -28.609900
H -5.676900 -18.364900 -35.005500
C -5.570600 -15.882500 -33.126300
C -5.282000 -16.771500 -33.838500
C -4.892200 -17.887200 -34.726300
O -4.745600 -13.186400 -28.643700
H -4.727300 -13.847500 -26.764600
C -4.672400 -14.245700 -27.657600
H -4.438600 -17.539500 -35.498500
H -4.306000 -18.483900 -34.255100
C -3.367400 -14.936100 -27.789800
H -3.294200 -15.600300 -27.087400
H -3.256100 -15.006600 -29.609000
O -3.179900 -15.557900 -29.006300
H -2.657500 -14.289000 -27.658900
