37
Fragment
H -11.313500 -10.747200 -36.519300
H -11.278300 -11.409400 -38.783500
O -11.111200 -11.911400 -38.156800
C -10.599800 -11.150400 -37.056600
H -10.337500 -8.737500 -38.528300
H -10.064200 -13.002900 -36.357900
H -10.037100 -15.384600 -32.549400
O -9.971200 -9.444000 -38.723700
C -9.936700 -14.461300 -32.587100
N -9.892800 -13.952400 -33.818000
N -9.860500 -13.857600 -31.407000
C -9.747700 -12.611900 -33.777400
C -9.729400 -12.088800 -36.249900
N -9.701500 -11.761200 -34.834300
C -9.681800 -12.521100 -31.393300
H -9.639300 -12.337700 -29.484600
C -9.616600 -11.834800 -32.635500
N -9.586500 -11.891200 -30.218600
C -9.585100 -10.119300 -37.540000
N -9.540400 -10.463000 -34.424200
C -9.478100 -10.505300 -33.096200
H -9.472900 -11.038500 -30.195700
H -9.413600 -9.467200 -36.829100
H -9.340300 -6.832600 -30.433500
C -9.234100 -9.315000 -32.312700
C -8.945400 -8.426000 -31.600500
C -8.555600 -7.310300 -30.712700
O -8.409100 -12.011100 -36.795300
H -8.390800 -11.350000 -38.674400
C -8.335800 -10.951800 -37.781400
H -8.102100 -7.658000 -29.940500
H -7.969500 -6.713600 -31.183900
C -7.030900 -10.261400 -37.649200
H -6.957600 -9.597200 -38.351600
H -6.919500 -10.190900 -35.830000
O -6.843300 -9.639600 -36.432700
H -6.320900 -10.908500 -37.780100
37
Fragment
H -14.976900 -14.450300 -28.919700
H -14.941700 -13.788100 -26.655500
O -14.774700 -13.286100 -27.282200
C -14.263300 -14.047100 -28.382400
H -14.001000 -16.460000 -26.910700
H -13.727700 -12.194600 -29.081100
H -13.700600 -9.812900 -32.889600
O -13.634600 -15.753500 -26.715300
C -13.600200 -10.736200 -32.851900
N -13.556200 -11.245100 -31.621000
N -13.524000 -11.339900 -34.032000
C -13.411200 -12.585600 -31.661600
C -13.392800 -13.108700 -29.189100
N -13.365000 -13.436300 -30.604700
C -13.345200 -12.676400 -34.045700
H -13.302700 -12.859800 -35.954400
C -13.280000 -13.362700 -32.803500
N -13.250000 -13.306300 -35.220400
C -13.248500 -15.078200 -27.899000
N -13.203800 -14.734500 -31.014800
C -13.141500 -14.692200 -32.342800
H -13.136400 -14.159000 -35.243300
H -13.077100 -15.730300 -28.609900
H -13.003800 -18.364900 -35.005500
C -12.897500 -15.882500 -33.126300
C -12.608900 -16.771500 -33.838500
C -12.219100 -17.887200 -34.726300
O -12.072500 -13.186400 -28.643700
H -12.054200 -13.847500 -26.764600
C -11.999300 -14.245700 -27.657600
H -11.765500 -17.539500 -35.498500
H -11.632900 -18.483900 -34.255100
C -10.694300 -14.936100 -27.789800
H -10.621100 -15.600300 -27.087400
H -10.583000 -15.006600 -29.609000
O -10.506800 -15.557900 -29.006300
H -9.984400 -14.289000 -27.658900
74
Fragment
H -11.313500 -10.747200 -36.519300
H -11.278300 -11.409400 -38.783500
O -11.111200 -11.911400 -38.156800
C -10.599800 -11.150400 -37.056600
H -10.337500 -8.737500 -38.528300
H -10.064200 -13.002900 -36.357900
H -10.037100 -15.384600 -32.549400
O -9.971200 -9.444000 -38.723700
C -9.936700 -14.461300 -32.587100
N -9.892800 -13.952400 -33.818000
N -9.860500 -13.857600 -31.407000
C -9.747700 -12.611900 -33.777400
C -9.729400 -12.088800 -36.249900
N -9.701500 -11.761200 -34.834300
C -9.681800 -12.521100 -31.393300
H -9.639300 -12.337700 -29.484600
C -9.616600 -11.834800 -32.635500
N -9.586500 -11.891200 -30.218600
C -9.585100 -10.119300 -37.540000
N -9.540400 -10.463000 -34.424200
C -9.478100 -10.505300 -33.096200
H -9.472900 -11.038500 -30.195700
H -9.413600 -9.467200 -36.829100
H -9.340300 -6.832600 -30.433500
C -9.234100 -9.315000 -32.312700
C -8.945400 -8.426000 -31.600500
C -8.555600 -7.310300 -30.712700
O -8.409100 -12.011100 -36.795300
H -8.390800 -11.350000 -38.674400
C -8.335800 -10.951800 -37.781400
H -8.102100 -7.658000 -29.940500
H -7.969500 -6.713600 -31.183900
C -7.030900 -10.261400 -37.649200
H -6.957600 -9.597200 -38.351600
H -6.919500 -10.190900 -35.830000
O -6.843300 -9.639600 -36.432700
H -6.320900 -10.908500 -37.780100
H -14.976900 -14.450300 -28.919700
H -14.941700 -13.788100 -26.655500
O -14.774700 -13.286100 -27.282200
C -14.263300 -14.047100 -28.382400
H -14.001000 -16.460000 -26.910700
H -13.727700 -12.194600 -29.081100
H -13.700600 -9.812900 -32.889600
O -13.634600 -15.753500 -26.715300
C -13.600200 -10.736200 -32.851900
N -13.556200 -11.245100 -31.621000
N -13.524000 -11.339900 -34.032000
C -13.411200 -12.585600 -31.661600
C -13.392800 -13.108700 -29.189100
N -13.365000 -13.436300 -30.604700
C -13.345200 -12.676400 -34.045700
H -13.302700 -12.859800 -35.954400
C -13.280000 -13.362700 -32.803500
N -13.250000 -13.306300 -35.220400
C -13.248500 -15.078200 -27.899000
N -13.203800 -14.734500 -31.014800
C -13.141500 -14.692200 -32.342800
H -13.136400 -14.159000 -35.243300
H -13.077100 -15.730300 -28.609900
H -13.003800 -18.364900 -35.005500
C -12.897500 -15.882500 -33.126300
C -12.608900 -16.771500 -33.838500
C -12.219100 -17.887200 -34.726300
O -12.072500 -13.186400 -28.643700
H -12.054200 -13.847500 -26.764600
C -11.999300 -14.245700 -27.657600
H -11.765500 -17.539500 -35.498500
H -11.632900 -18.483900 -34.255100
C -10.694300 -14.936100 -27.789800
H -10.621100 -15.600300 -27.087400
H -10.583000 -15.006600 -29.609000
O -10.506800 -15.557900 -29.006300
H -9.984400 -14.289000 -27.658900
