37
Fragment
H -11.313500 -10.747200 -36.519300
H -11.278300 -11.409400 -38.783500
O -11.111200 -11.911400 -38.156800
C -10.599800 -11.150400 -37.056600
H -10.337500 -8.737500 -38.528300
H -10.064200 -13.002900 -36.357900
H -10.037100 -15.384600 -32.549400
O -9.971200 -9.444000 -38.723700
C -9.936700 -14.461300 -32.587100
N -9.892800 -13.952400 -33.818000
N -9.860500 -13.857600 -31.407000
C -9.747700 -12.611900 -33.777400
C -9.729400 -12.088800 -36.249900
N -9.701500 -11.761200 -34.834300
C -9.681800 -12.521100 -31.393300
H -9.639300 -12.337700 -29.484600
C -9.616600 -11.834800 -32.635500
N -9.586500 -11.891200 -30.218600
C -9.585100 -10.119300 -37.540000
N -9.540400 -10.463000 -34.424200
C -9.478100 -10.505300 -33.096200
H -9.472900 -11.038500 -30.195700
H -9.413600 -9.467200 -36.829100
H -9.340300 -6.832600 -30.433500
C -9.234100 -9.315000 -32.312700
C -8.945400 -8.426000 -31.600500
C -8.555600 -7.310300 -30.712700
O -8.409100 -12.011100 -36.795300
H -8.390800 -11.350000 -38.674400
C -8.335800 -10.951800 -37.781400
H -8.102100 -7.658000 -29.940500
H -7.969500 -6.713600 -31.183900
C -7.030900 -10.261400 -37.649200
H -6.957600 -9.597200 -38.351600
H -6.919500 -10.190900 -35.830000
O -6.843300 -9.639600 -36.432700
H -6.320900 -10.908500 -37.780100
37
Fragment
H -11.996300 -9.249500 -48.686600
O -11.473900 -10.518400 -47.339200
H -11.397700 -9.967100 -46.736500
H -11.359600 -10.560800 -49.258100
C -11.286400 -9.896600 -48.555700
H -10.347800 -13.444400 -42.090400
H -10.215200 -12.500000 -40.847000
C -9.981400 -9.206200 -48.687900
H -9.926500 -8.808000 -49.580900
O -9.908200 -8.146900 -47.701800
C -9.761600 -12.847700 -41.619200
C -9.371800 -11.732000 -42.507000
C -9.083200 -10.843000 -43.219200
H -8.976900 -13.325400 -41.340000
H -8.903600 -10.690800 -47.735600
H -8.844300 -9.119500 -41.102200
C -8.839200 -9.652700 -44.002700
N -8.776900 -9.695000 -45.330700
C -8.732200 -10.038700 -48.446500
N -8.730700 -8.266800 -41.125100
C -8.700700 -8.323200 -43.542000
H -8.678000 -7.820300 -40.391100
C -8.635500 -7.636900 -42.299800
N -8.615700 -8.396800 -45.740800
C -8.587900 -8.069200 -47.156400
C -8.569500 -7.546100 -44.683900
N -8.456700 -6.300400 -42.313500
N -8.424500 -6.205600 -44.724500
C -8.380500 -5.696700 -43.493600
O -8.346100 -10.714000 -49.630200
H -8.280100 -4.773400 -43.455900
H -8.253000 -7.155100 -47.264400
H -7.979700 -11.420500 -49.434800
C -7.717400 -9.007600 -47.963100
O -7.206000 -8.246600 -49.063300
H -7.039000 -8.748600 -49.690000
H -7.003800 -9.410800 -47.425800
74
Fragment
H -11.313500 -10.747200 -36.519300
H -11.278300 -11.409400 -38.783500
O -11.111200 -11.911400 -38.156800
C -10.599800 -11.150400 -37.056600
H -10.337500 -8.737500 -38.528300
H -10.064200 -13.002900 -36.357900
H -10.037100 -15.384600 -32.549400
O -9.971200 -9.444000 -38.723700
C -9.936700 -14.461300 -32.587100
N -9.892800 -13.952400 -33.818000
N -9.860500 -13.857600 -31.407000
C -9.747700 -12.611900 -33.777400
C -9.729400 -12.088800 -36.249900
N -9.701500 -11.761200 -34.834300
C -9.681800 -12.521100 -31.393300
H -9.639300 -12.337700 -29.484600
C -9.616600 -11.834800 -32.635500
N -9.586500 -11.891200 -30.218600
C -9.585100 -10.119300 -37.540000
N -9.540400 -10.463000 -34.424200
C -9.478100 -10.505300 -33.096200
H -9.472900 -11.038500 -30.195700
H -9.413600 -9.467200 -36.829100
H -9.340300 -6.832600 -30.433500
C -9.234100 -9.315000 -32.312700
C -8.945400 -8.426000 -31.600500
C -8.555600 -7.310300 -30.712700
O -8.409100 -12.011100 -36.795300
H -8.390800 -11.350000 -38.674400
C -8.335800 -10.951800 -37.781400
H -8.102100 -7.658000 -29.940500
H -7.969500 -6.713600 -31.183900
C -7.030900 -10.261400 -37.649200
H -6.957600 -9.597200 -38.351600
H -6.919500 -10.190900 -35.830000
O -6.843300 -9.639600 -36.432700
H -6.320900 -10.908500 -37.780100
H -11.996300 -9.249500 -48.686600
O -11.473900 -10.518400 -47.339200
H -11.397700 -9.967100 -46.736500
H -11.359600 -10.560800 -49.258100
C -11.286400 -9.896600 -48.555700
H -10.347800 -13.444400 -42.090400
H -10.215200 -12.500000 -40.847000
C -9.981400 -9.206200 -48.687900
H -9.926500 -8.808000 -49.580900
O -9.908200 -8.146900 -47.701800
C -9.761600 -12.847700 -41.619200
C -9.371800 -11.732000 -42.507000
C -9.083200 -10.843000 -43.219200
H -8.976900 -13.325400 -41.340000
H -8.903600 -10.690800 -47.735600
H -8.844300 -9.119500 -41.102200
C -8.839200 -9.652700 -44.002700
N -8.776900 -9.695000 -45.330700
C -8.732200 -10.038700 -48.446500
N -8.730700 -8.266800 -41.125100
C -8.700700 -8.323200 -43.542000
H -8.678000 -7.820300 -40.391100
C -8.635500 -7.636900 -42.299800
N -8.615700 -8.396800 -45.740800
C -8.587900 -8.069200 -47.156400
C -8.569500 -7.546100 -44.683900
N -8.456700 -6.300400 -42.313500
N -8.424500 -6.205600 -44.724500
C -8.380500 -5.696700 -43.493600
O -8.346100 -10.714000 -49.630200
H -8.280100 -4.773400 -43.455900
H -8.253000 -7.155100 -47.264400
H -7.979700 -11.420500 -49.434800
C -7.717400 -9.007600 -47.963100
O -7.206000 -8.246600 -49.063300
H -7.039000 -8.748600 -49.690000
H -7.003800 -9.410800 -47.425800
