20
Fragment
N -16.708100 -13.425500 -11.466300
C -16.316800 -13.903400 -12.438700
C -15.840400 -14.567700 -13.614300
H -15.813100 -11.956200 -14.100600
C -15.747200 -15.997900 -13.502700
N -15.657400 -17.134800 -13.374400
C -15.503600 -12.462200 -14.842600
C -15.455800 -13.908500 -14.764500
H -15.136000 -10.892000 -15.991300
C -15.112200 -11.841400 -15.959200
C -14.997100 -14.637700 -15.922600
H -14.973300 -15.587100 -15.890500
C -14.653500 -12.570600 -17.117300
C -14.605700 -14.016900 -17.039200
N -14.451900 -9.344400 -18.507400
C -14.362100 -10.481200 -18.379100
H -14.296200 -14.522900 -17.781200
C -14.268900 -11.911400 -18.267500
C -13.792500 -12.575700 -19.443100
N -13.401200 -13.053700 -20.415500
20
Fragment
N -12.902700 -16.148400 -19.436700
C -12.511400 -16.626400 -20.409100
C -12.034900 -17.290700 -21.584800
H -12.007700 -14.679200 -22.071100
C -11.941800 -18.720900 -21.473200
N -11.852000 -19.857800 -21.344900
C -11.698200 -15.185200 -22.813000
C -11.650300 -16.631500 -22.734900
H -11.330600 -13.615000 -23.961700
C -11.306800 -14.564400 -23.929700
C -11.191600 -17.360700 -23.893000
H -11.167900 -18.310100 -23.861000
C -10.848100 -15.293600 -25.087800
C -10.800200 -16.739900 -25.009700
N -10.646500 -12.067300 -26.477800
C -10.556600 -13.204200 -26.349500
H -10.490800 -17.245900 -25.751600
C -10.463500 -14.634400 -26.237900
C -9.987000 -15.298700 -27.413600
N -9.595700 -15.776700 -28.386000
40
Fragment
N -16.708100 -13.425500 -11.466300
C -16.316800 -13.903400 -12.438700
C -15.840400 -14.567700 -13.614300
H -15.813100 -11.956200 -14.100600
C -15.747200 -15.997900 -13.502700
N -15.657400 -17.134800 -13.374400
C -15.503600 -12.462200 -14.842600
C -15.455800 -13.908500 -14.764500
H -15.136000 -10.892000 -15.991300
C -15.112200 -11.841400 -15.959200
C -14.997100 -14.637700 -15.922600
H -14.973300 -15.587100 -15.890500
C -14.653500 -12.570600 -17.117300
C -14.605700 -14.016900 -17.039200
N -14.451900 -9.344400 -18.507400
C -14.362100 -10.481200 -18.379100
H -14.296200 -14.522900 -17.781200
C -14.268900 -11.911400 -18.267500
C -13.792500 -12.575700 -19.443100
N -13.401200 -13.053700 -20.415500
N -12.902700 -16.148400 -19.436700
C -12.511400 -16.626400 -20.409100
C -12.034900 -17.290700 -21.584800
H -12.007700 -14.679200 -22.071100
C -11.941800 -18.720900 -21.473200
N -11.852000 -19.857800 -21.344900
C -11.698200 -15.185200 -22.813000
C -11.650300 -16.631500 -22.734900
H -11.330600 -13.615000 -23.961700
C -11.306800 -14.564400 -23.929700
C -11.191600 -17.360700 -23.893000
H -11.167900 -18.310100 -23.861000
C -10.848100 -15.293600 -25.087800
C -10.800200 -16.739900 -25.009700
N -10.646500 -12.067300 -26.477800
C -10.556600 -13.204200 -26.349500
H -10.490800 -17.245900 -25.751600
C -10.463500 -14.634400 -26.237900
C -9.987000 -15.298700 -27.413600
N -9.595700 -15.776700 -28.386000
