26
Fragment
N -11.955100 -9.202700 -16.276100
C -11.436100 -8.603600 -17.102900
N -11.112600 -5.328100 -17.606300
C -10.936600 -6.417800 -17.900200
C -10.788700 -7.824500 -18.125700
H -10.559200 -10.331000 -18.507600
H -10.394100 -12.414000 -20.089700
C -10.093600 -8.441900 -19.137800
C -10.081100 -9.883500 -19.168700
H -9.821700 -5.888000 -19.530500
H -9.671200 -5.958100 -21.089400
C -9.483000 -12.120800 -20.015600
C -9.434300 -10.629600 -20.077400
C -9.355600 -7.746400 -20.190100
C -9.306900 -6.255200 -20.251900
H -9.118700 -12.417900 -19.178100
H -8.968300 -12.488000 -20.736900
C -8.708800 -8.492500 -21.098800
C -8.696300 -9.934100 -21.129700
H -8.395800 -5.962000 -20.177800
H -8.230700 -8.045000 -21.759900
C -8.001200 -10.551500 -22.141700
C -7.853300 -11.958200 -22.367200
N -7.677300 -13.047900 -22.661200
C -7.353800 -9.772400 -23.164500
N -6.834800 -9.173300 -23.991400
22
Fragment
H -7.110700 -6.966200 -17.555900
H -7.090600 -8.447900 -17.404900
N -6.876400 -7.740900 -17.846500
H -6.609300 -10.291900 -18.039000
C -6.158500 -7.851100 -19.018300
C -6.136300 -10.335600 -18.838500
H -6.042900 -5.889000 -19.417100
H -5.995800 -12.309000 -18.864800
C -5.807900 -6.730200 -19.736400
C -5.805000 -9.140200 -19.521700
C -5.773400 -11.537400 -19.333800
C -5.107500 -6.838600 -20.933700
C -5.075900 -9.235800 -20.745800
C -5.073000 -11.645800 -20.531000
H -4.885100 -6.067000 -21.402700
H -4.838000 -12.487000 -20.850400
C -4.744600 -8.040400 -21.429000
C -4.722400 -10.524900 -21.249100
H -4.271600 -8.084100 -22.228400
N -4.004500 -10.635100 -22.420900
H -3.790300 -9.928100 -22.862500
H -3.770200 -11.409800 -22.711500
48
Fragment
N -11.955100 -9.202700 -16.276100
C -11.436100 -8.603600 -17.102900
N -11.112600 -5.328100 -17.606300
C -10.936600 -6.417800 -17.900200
C -10.788700 -7.824500 -18.125700
H -10.559200 -10.331000 -18.507600
H -10.394100 -12.414000 -20.089700
C -10.093600 -8.441900 -19.137800
C -10.081100 -9.883500 -19.168700
H -9.821700 -5.888000 -19.530500
H -9.671200 -5.958100 -21.089400
C -9.483000 -12.120800 -20.015600
C -9.434300 -10.629600 -20.077400
C -9.355600 -7.746400 -20.190100
C -9.306900 -6.255200 -20.251900
H -9.118700 -12.417900 -19.178100
H -8.968300 -12.488000 -20.736900
C -8.708800 -8.492500 -21.098800
C -8.696300 -9.934100 -21.129700
H -8.395800 -5.962000 -20.177800
H -8.230700 -8.045000 -21.759900
C -8.001200 -10.551500 -22.141700
C -7.853300 -11.958200 -22.367200
N -7.677300 -13.047900 -22.661200
C -7.353800 -9.772400 -23.164500
N -6.834800 -9.173300 -23.991400
H -7.110700 -6.966200 -17.555900
H -7.090600 -8.447900 -17.404900
N -6.876400 -7.740900 -17.846500
H -6.609300 -10.291900 -18.039000
C -6.158500 -7.851100 -19.018300
C -6.136300 -10.335600 -18.838500
H -6.042900 -5.889000 -19.417100
H -5.995800 -12.309000 -18.864800
C -5.807900 -6.730200 -19.736400
C -5.805000 -9.140200 -19.521700
C -5.773400 -11.537400 -19.333800
C -5.107500 -6.838600 -20.933700
C -5.075900 -9.235800 -20.745800
C -5.073000 -11.645800 -20.531000
H -4.885100 -6.067000 -21.402700
H -4.838000 -12.487000 -20.850400
C -4.744600 -8.040400 -21.429000
C -4.722400 -10.524900 -21.249100
H -4.271600 -8.084100 -22.228400
N -4.004500 -10.635100 -22.420900
H -3.790300 -9.928100 -22.862500
H -3.770200 -11.409800 -22.711500
