20
Fragment
N -16.708100 -13.425500 -11.466300
C -16.316800 -13.903400 -12.438700
C -15.840400 -14.567700 -13.614300
H -15.813100 -11.956200 -14.100600
C -15.747200 -15.997900 -13.502700
N -15.657400 -17.134800 -13.374400
C -15.503600 -12.462200 -14.842600
C -15.455800 -13.908500 -14.764500
H -15.136000 -10.892000 -15.991300
C -15.112200 -11.841400 -15.959200
C -14.997100 -14.637700 -15.922600
H -14.973300 -15.587100 -15.890500
C -14.653500 -12.570600 -17.117300
C -14.605700 -14.016900 -17.039200
N -14.451900 -9.344400 -18.507400
C -14.362100 -10.481200 -18.379100
H -14.296200 -14.522900 -17.781200
C -14.268900 -11.911400 -18.267500
C -13.792500 -12.575700 -19.443100
N -13.401200 -13.053700 -20.415500
22
Fragment
H -19.868000 -12.993400 -12.379500
H -19.599100 -11.745600 -13.212600
N -19.588700 -12.621000 -13.126500
H -19.376800 -15.197300 -13.240000
C -19.131900 -13.418900 -14.173100
C -19.107600 -14.796500 -14.058300
H -19.000600 -10.824000 -14.880900
C -18.719200 -11.394700 -15.587000
C -18.719000 -12.823500 -15.400500
H -18.701300 -16.559400 -15.002100
C -18.698100 -15.616100 -15.113600
C -18.318600 -10.863000 -16.768200
H -18.315400 -9.919800 -16.879700
C -18.297700 -13.655600 -16.481300
C -18.297500 -15.084400 -16.294800
H -18.016100 -15.655100 -17.000900
C -17.909100 -11.682600 -17.823500
C -17.884800 -13.060300 -17.708700
H -17.639900 -11.281800 -18.641800
N -17.428000 -13.858100 -18.755300
H -17.417600 -14.733500 -18.669200
H -17.148700 -13.485700 -19.502300
42
Fragment
N -16.708100 -13.425500 -11.466300
C -16.316800 -13.903400 -12.438700
C -15.840400 -14.567700 -13.614300
H -15.813100 -11.956200 -14.100600
C -15.747200 -15.997900 -13.502700
N -15.657400 -17.134800 -13.374400
C -15.503600 -12.462200 -14.842600
C -15.455800 -13.908500 -14.764500
H -15.136000 -10.892000 -15.991300
C -15.112200 -11.841400 -15.959200
C -14.997100 -14.637700 -15.922600
H -14.973300 -15.587100 -15.890500
C -14.653500 -12.570600 -17.117300
C -14.605700 -14.016900 -17.039200
N -14.451900 -9.344400 -18.507400
C -14.362100 -10.481200 -18.379100
H -14.296200 -14.522900 -17.781200
C -14.268900 -11.911400 -18.267500
C -13.792500 -12.575700 -19.443100
N -13.401200 -13.053700 -20.415500
H -19.868000 -12.993400 -12.379500
H -19.599100 -11.745600 -13.212600
N -19.588700 -12.621000 -13.126500
H -19.376800 -15.197300 -13.240000
C -19.131900 -13.418900 -14.173100
C -19.107600 -14.796500 -14.058300
H -19.000600 -10.824000 -14.880900
C -18.719200 -11.394700 -15.587000
C -18.719000 -12.823500 -15.400500
H -18.701300 -16.559400 -15.002100
C -18.698100 -15.616100 -15.113600
C -18.318600 -10.863000 -16.768200
H -18.315400 -9.919800 -16.879700
C -18.297700 -13.655600 -16.481300
C -18.297500 -15.084400 -16.294800
H -18.016100 -15.655100 -17.000900
C -17.909100 -11.682600 -17.823500
C -17.884800 -13.060300 -17.708700
H -17.639900 -11.281800 -18.641800
N -17.428000 -13.858100 -18.755300
H -17.417600 -14.733500 -18.669200
H -17.148700 -13.485700 -19.502300
