26
Fragment
N -6.762000 -9.033200 -17.264200
C -5.638100 -9.250500 -17.361600
H -4.808900 -7.130500 -18.256600
H -4.684800 -5.144200 -19.131800
C -4.249800 -9.557300 -17.477500
C -3.958000 -10.897000 -17.053400
C -3.865000 -7.334200 -18.345700
N -3.835100 -11.973900 -16.704600
C -3.774400 -5.046100 -19.229200
H -3.628900 -4.763500 -20.130300
H -3.433400 -4.350700 -18.749700
C -3.356700 -8.627500 -17.966000
C -3.120300 -6.335900 -18.849300
C -1.921400 -8.863300 -18.132300
C -1.685000 -6.571600 -19.015600
H -1.608300 -10.848500 -18.231900
H -1.412700 -10.435600 -16.851300
C -1.267200 -10.153100 -17.752400
N -1.206500 -3.225300 -20.277000
C -1.176700 -7.865000 -18.635900
C -1.083700 -4.302200 -19.928100
C -0.791900 -5.641900 -19.504100
H -0.356800 -10.054900 -17.849800
H -0.232800 -8.068700 -18.725000
C 0.596500 -5.948600 -19.620000
N 1.720300 -6.166000 -19.717300
26
Fragment
N -8.585500 0.059800 -17.264200
C -7.461700 -0.157600 -17.361600
H -6.632400 1.962400 -18.256600
H -6.508400 3.948700 -19.131800
C -6.073300 -0.464300 -17.477500
C -5.781500 -1.804000 -17.053400
C -5.688500 1.758800 -18.345700
N -5.658700 -2.880900 -16.704600
C -5.598000 4.046900 -19.229200
H -5.452500 4.329400 -20.130300
H -5.256900 4.742300 -18.749700
C -5.180200 0.465400 -17.966000
C -4.943800 2.757100 -18.849300
C -3.744900 0.229700 -18.132300
C -3.508500 2.521300 -19.015600
H -3.431800 -1.755500 -18.231900
H -3.236300 -1.342700 -16.851300
C -3.090800 -1.060200 -17.752400
N -3.030100 5.867700 -20.277000
C -3.000200 1.228000 -18.635900
C -2.907200 4.790800 -19.928100
C -2.615400 3.451100 -19.504100
H -2.180400 -0.962000 -17.849800
H -2.056300 1.024300 -18.725000
C -1.227100 3.144300 -19.620000
N -0.103200 2.927000 -19.717300
52
Fragment
N -6.762000 -9.033200 -17.264200
C -5.638100 -9.250500 -17.361600
H -4.808900 -7.130500 -18.256600
H -4.684800 -5.144200 -19.131800
C -4.249800 -9.557300 -17.477500
C -3.958000 -10.897000 -17.053400
C -3.865000 -7.334200 -18.345700
N -3.835100 -11.973900 -16.704600
C -3.774400 -5.046100 -19.229200
H -3.628900 -4.763500 -20.130300
H -3.433400 -4.350700 -18.749700
C -3.356700 -8.627500 -17.966000
C -3.120300 -6.335900 -18.849300
C -1.921400 -8.863300 -18.132300
C -1.685000 -6.571600 -19.015600
H -1.608300 -10.848500 -18.231900
H -1.412700 -10.435600 -16.851300
C -1.267200 -10.153100 -17.752400
N -1.206500 -3.225300 -20.277000
C -1.176700 -7.865000 -18.635900
C -1.083700 -4.302200 -19.928100
C -0.791900 -5.641900 -19.504100
H -0.356800 -10.054900 -17.849800
H -0.232800 -8.068700 -18.725000
C 0.596500 -5.948600 -19.620000
N 1.720300 -6.166000 -19.717300
N -8.585500 0.059800 -17.264200
C -7.461700 -0.157600 -17.361600
H -6.632400 1.962400 -18.256600
H -6.508400 3.948700 -19.131800
C -6.073300 -0.464300 -17.477500
C -5.781500 -1.804000 -17.053400
C -5.688500 1.758800 -18.345700
N -5.658700 -2.880900 -16.704600
C -5.598000 4.046900 -19.229200
H -5.452500 4.329400 -20.130300
H -5.256900 4.742300 -18.749700
C -5.180200 0.465400 -17.966000
C -4.943800 2.757100 -18.849300
C -3.744900 0.229700 -18.132300
C -3.508500 2.521300 -19.015600
H -3.431800 -1.755500 -18.231900
H -3.236300 -1.342700 -16.851300
C -3.090800 -1.060200 -17.752400
N -3.030100 5.867700 -20.277000
C -3.000200 1.228000 -18.635900
C -2.907200 4.790800 -19.928100
C -2.615400 3.451100 -19.504100
H -2.180400 -0.962000 -17.849800
H -2.056300 1.024300 -18.725000
C -1.227100 3.144300 -19.620000
N -0.103200 2.927000 -19.717300
