26
Fragment
N -6.762000 -9.033200 -17.264200
C -5.638100 -9.250500 -17.361600
H -4.808900 -7.130500 -18.256600
H -4.684800 -5.144200 -19.131800
C -4.249800 -9.557300 -17.477500
C -3.958000 -10.897000 -17.053400
C -3.865000 -7.334200 -18.345700
N -3.835100 -11.973900 -16.704600
C -3.774400 -5.046100 -19.229200
H -3.628900 -4.763500 -20.130300
H -3.433400 -4.350700 -18.749700
C -3.356700 -8.627500 -17.966000
C -3.120300 -6.335900 -18.849300
C -1.921400 -8.863300 -18.132300
C -1.685000 -6.571600 -19.015600
H -1.608300 -10.848500 -18.231900
H -1.412700 -10.435600 -16.851300
C -1.267200 -10.153100 -17.752400
N -1.206500 -3.225300 -20.277000
C -1.176700 -7.865000 -18.635900
C -1.083700 -4.302200 -19.928100
C -0.791900 -5.641900 -19.504100
H -0.356800 -10.054900 -17.849800
H -0.232800 -8.068700 -18.725000
C 0.596500 -5.948600 -19.620000
N 1.720300 -6.166000 -19.717300
22
Fragment
H -12.827100 -14.980800 -14.878900
H -12.798400 -16.606300 -14.829600
N -12.427400 -15.707700 -14.565800
H -11.554900 -17.794200 -13.781800
C -11.062600 -15.607800 -14.913400
H -11.009800 -13.735800 -15.544600
N -10.833700 -17.928000 -14.268700
C -10.512200 -14.467100 -15.388000
H -10.245500 -18.700900 -14.151600
C -10.238200 -16.755100 -14.702600
C -9.136300 -14.369400 -15.712200
H -9.135700 -12.471900 -16.407500
C -8.903700 -16.680800 -14.999700
C -8.548800 -13.200400 -16.248500
C -8.311500 -15.510800 -15.513800
H -8.293600 -17.478200 -14.805000
C -7.215800 -13.156800 -16.573900
C -6.941300 -15.427800 -15.862600
H -6.829700 -12.338100 -16.900600
H -6.426000 -16.262900 -15.741800
C -6.417300 -14.273400 -16.379100
H -5.443100 -14.241100 -16.530800
48
Fragment
N -6.762000 -9.033200 -17.264200
C -5.638100 -9.250500 -17.361600
H -4.808900 -7.130500 -18.256600
H -4.684800 -5.144200 -19.131800
C -4.249800 -9.557300 -17.477500
C -3.958000 -10.897000 -17.053400
C -3.865000 -7.334200 -18.345700
N -3.835100 -11.973900 -16.704600
C -3.774400 -5.046100 -19.229200
H -3.628900 -4.763500 -20.130300
H -3.433400 -4.350700 -18.749700
C -3.356700 -8.627500 -17.966000
C -3.120300 -6.335900 -18.849300
C -1.921400 -8.863300 -18.132300
C -1.685000 -6.571600 -19.015600
H -1.608300 -10.848500 -18.231900
H -1.412700 -10.435600 -16.851300
C -1.267200 -10.153100 -17.752400
N -1.206500 -3.225300 -20.277000
C -1.176700 -7.865000 -18.635900
C -1.083700 -4.302200 -19.928100
C -0.791900 -5.641900 -19.504100
H -0.356800 -10.054900 -17.849800
H -0.232800 -8.068700 -18.725000
C 0.596500 -5.948600 -19.620000
N 1.720300 -6.166000 -19.717300
H -12.827100 -14.980800 -14.878900
H -12.798400 -16.606300 -14.829600
N -12.427400 -15.707700 -14.565800
H -11.554900 -17.794200 -13.781800
C -11.062600 -15.607800 -14.913400
H -11.009800 -13.735800 -15.544600
N -10.833700 -17.928000 -14.268700
C -10.512200 -14.467100 -15.388000
H -10.245500 -18.700900 -14.151600
C -10.238200 -16.755100 -14.702600
C -9.136300 -14.369400 -15.712200
H -9.135700 -12.471900 -16.407500
C -8.903700 -16.680800 -14.999700
C -8.548800 -13.200400 -16.248500
C -8.311500 -15.510800 -15.513800
H -8.293600 -17.478200 -14.805000
C -7.215800 -13.156800 -16.573900
C -6.941300 -15.427800 -15.862600
H -6.829700 -12.338100 -16.900600
H -6.426000 -16.262900 -15.741800
C -6.417300 -14.273400 -16.379100
H -5.443100 -14.241100 -16.530800
