26
Fragment
N -6.762000 -9.033200 -17.264200
C -5.638100 -9.250500 -17.361600
H -4.808900 -7.130500 -18.256600
H -4.684800 -5.144200 -19.131800
C -4.249800 -9.557300 -17.477500
C -3.958000 -10.897000 -17.053400
C -3.865000 -7.334200 -18.345700
N -3.835100 -11.973900 -16.704600
C -3.774400 -5.046100 -19.229200
H -3.628900 -4.763500 -20.130300
H -3.433400 -4.350700 -18.749700
C -3.356700 -8.627500 -17.966000
C -3.120300 -6.335900 -18.849300
C -1.921400 -8.863300 -18.132300
C -1.685000 -6.571600 -19.015600
H -1.608300 -10.848500 -18.231900
H -1.412700 -10.435600 -16.851300
C -1.267200 -10.153100 -17.752400
N -1.206500 -3.225300 -20.277000
C -1.176700 -7.865000 -18.635900
C -1.083700 -4.302200 -19.928100
C -0.791900 -5.641900 -19.504100
H -0.356800 -10.054900 -17.849800
H -0.232800 -8.068700 -18.725000
C 0.596500 -5.948600 -19.620000
N 1.720300 -6.166000 -19.717300
22
Fragment
H -14.650700 -5.887800 -14.878900
H -14.621900 -7.513400 -14.829600
N -14.251000 -6.614800 -14.565800
H -13.378400 -8.701300 -13.781800
C -12.886200 -6.514900 -14.913400
H -12.833300 -4.642900 -15.544600
N -12.657200 -8.835000 -14.268700
C -12.335800 -5.374200 -15.388000
H -12.069000 -9.608000 -14.151600
C -12.061700 -7.662100 -14.702600
C -10.959800 -5.276400 -15.712200
H -10.959300 -3.379000 -16.407500
C -10.727300 -7.587800 -14.999700
C -10.372300 -4.107400 -16.248500
C -10.135100 -6.417900 -15.513800
H -10.117200 -8.385200 -14.805000
C -9.039400 -4.063900 -16.573900
C -8.764800 -6.334800 -15.862600
H -8.653300 -3.245200 -16.900600
H -8.249500 -7.169900 -15.741800
C -8.240900 -5.180500 -16.379100
H -7.266600 -5.148200 -16.530800
48
Fragment
N -6.762000 -9.033200 -17.264200
C -5.638100 -9.250500 -17.361600
H -4.808900 -7.130500 -18.256600
H -4.684800 -5.144200 -19.131800
C -4.249800 -9.557300 -17.477500
C -3.958000 -10.897000 -17.053400
C -3.865000 -7.334200 -18.345700
N -3.835100 -11.973900 -16.704600
C -3.774400 -5.046100 -19.229200
H -3.628900 -4.763500 -20.130300
H -3.433400 -4.350700 -18.749700
C -3.356700 -8.627500 -17.966000
C -3.120300 -6.335900 -18.849300
C -1.921400 -8.863300 -18.132300
C -1.685000 -6.571600 -19.015600
H -1.608300 -10.848500 -18.231900
H -1.412700 -10.435600 -16.851300
C -1.267200 -10.153100 -17.752400
N -1.206500 -3.225300 -20.277000
C -1.176700 -7.865000 -18.635900
C -1.083700 -4.302200 -19.928100
C -0.791900 -5.641900 -19.504100
H -0.356800 -10.054900 -17.849800
H -0.232800 -8.068700 -18.725000
C 0.596500 -5.948600 -19.620000
N 1.720300 -6.166000 -19.717300
H -14.650700 -5.887800 -14.878900
H -14.621900 -7.513400 -14.829600
N -14.251000 -6.614800 -14.565800
H -13.378400 -8.701300 -13.781800
C -12.886200 -6.514900 -14.913400
H -12.833300 -4.642900 -15.544600
N -12.657200 -8.835000 -14.268700
C -12.335800 -5.374200 -15.388000
H -12.069000 -9.608000 -14.151600
C -12.061700 -7.662100 -14.702600
C -10.959800 -5.276400 -15.712200
H -10.959300 -3.379000 -16.407500
C -10.727300 -7.587800 -14.999700
C -10.372300 -4.107400 -16.248500
C -10.135100 -6.417900 -15.513800
H -10.117200 -8.385200 -14.805000
C -9.039400 -4.063900 -16.573900
C -8.764800 -6.334800 -15.862600
H -8.653300 -3.245200 -16.900600
H -8.249500 -7.169900 -15.741800
C -8.240900 -5.180500 -16.379100
H -7.266600 -5.148200 -16.530800
