27
Fragment
H -14.882500 -10.491200 -14.681000
C -14.087700 -10.445800 -14.199400
N -13.833700 -11.126000 -13.062600
H -13.436900 -8.215100 -15.886400
C -13.014100 -9.684800 -14.538200
C -12.677800 -8.785400 -15.688800
N -12.619600 -10.815000 -12.652600
H -12.490900 -9.321600 -16.474800
N -12.129000 -9.943500 -13.556300
H -11.732100 -7.183100 -14.792900
C -11.465100 -7.922800 -15.360400
H -11.090500 -7.558900 -16.177700
C -10.795200 -9.335500 -13.400200
H -10.794300 -8.667200 -12.684200
N -10.466600 -8.730600 -14.678900
H -9.971200 -11.201400 -11.397900
C -9.689800 -10.334200 -13.207200
C -9.425400 -11.184800 -12.150800
C -9.378000 -9.283700 -15.262800
O -8.945400 -8.972700 -16.369600
C -8.858600 -10.294300 -14.316600
C -8.325500 -12.006500 -12.253000
H -8.130500 -12.592000 -11.557400
C -7.755400 -11.125000 -14.419900
C -7.498600 -11.983600 -13.369200
H -7.205700 -11.104800 -15.170600
H -6.765000 -12.553300 -13.409600
27
Fragment
H -7.499500 -10.061700 -9.557500
H -7.058800 -8.613200 -7.796500
C -6.765900 -9.492000 -9.598000
C -6.509200 -8.633400 -8.547200
H -6.134000 -10.100400 -11.409700
C -5.939000 -9.514900 -10.714200
C -5.405900 -7.802700 -8.650600
O -5.319100 -6.481100 -6.597500
C -4.886500 -6.792100 -7.704300
C -4.839100 -8.693200 -10.816400
C -4.574700 -7.842600 -9.759900
H -4.293300 -8.709800 -11.569200
N -3.797900 -6.239000 -8.288300
H -3.470200 -6.175600 -10.283000
C -3.469300 -6.843900 -9.567000
H -3.174000 -5.067300 -6.789400
C -2.799400 -5.431200 -7.606700
H -2.532400 -4.691500 -8.174200
N -2.135500 -7.451900 -9.410800
H -1.773600 -6.830000 -6.492300
N -1.644900 -8.323400 -10.314500
C -1.586700 -6.293800 -7.278300
C -1.250400 -7.193200 -8.428900
H -0.827600 -5.723500 -7.080800
N -0.430800 -8.634400 -9.904600
C -0.176800 -7.954200 -8.767700
H 0.618000 -7.999600 -8.286100
54
Fragment
H -14.882500 -10.491200 -14.681000
C -14.087700 -10.445800 -14.199400
N -13.833700 -11.126000 -13.062600
H -13.436900 -8.215100 -15.886400
C -13.014100 -9.684800 -14.538200
C -12.677800 -8.785400 -15.688800
N -12.619600 -10.815000 -12.652600
H -12.490900 -9.321600 -16.474800
N -12.129000 -9.943500 -13.556300
H -11.732100 -7.183100 -14.792900
C -11.465100 -7.922800 -15.360400
H -11.090500 -7.558900 -16.177700
C -10.795200 -9.335500 -13.400200
H -10.794300 -8.667200 -12.684200
N -10.466600 -8.730600 -14.678900
H -9.971200 -11.201400 -11.397900
C -9.689800 -10.334200 -13.207200
C -9.425400 -11.184800 -12.150800
C -9.378000 -9.283700 -15.262800
O -8.945400 -8.972700 -16.369600
C -8.858600 -10.294300 -14.316600
C -8.325500 -12.006500 -12.253000
H -8.130500 -12.592000 -11.557400
C -7.755400 -11.125000 -14.419900
C -7.498600 -11.983600 -13.369200
H -7.205700 -11.104800 -15.170600
H -6.765000 -12.553300 -13.409600
H -7.499500 -10.061700 -9.557500
H -7.058800 -8.613200 -7.796500
C -6.765900 -9.492000 -9.598000
C -6.509200 -8.633400 -8.547200
H -6.134000 -10.100400 -11.409700
C -5.939000 -9.514900 -10.714200
C -5.405900 -7.802700 -8.650600
O -5.319100 -6.481100 -6.597500
C -4.886500 -6.792100 -7.704300
C -4.839100 -8.693200 -10.816400
C -4.574700 -7.842600 -9.759900
H -4.293300 -8.709800 -11.569200
N -3.797900 -6.239000 -8.288300
H -3.470200 -6.175600 -10.283000
C -3.469300 -6.843900 -9.567000
H -3.174000 -5.067300 -6.789400
C -2.799400 -5.431200 -7.606700
H -2.532400 -4.691500 -8.174200
N -2.135500 -7.451900 -9.410800
H -1.773600 -6.830000 -6.492300
N -1.644900 -8.323400 -10.314500
C -1.586700 -6.293800 -7.278300
C -1.250400 -7.193200 -8.428900
H -0.827600 -5.723500 -7.080800
N -0.430800 -8.634400 -9.904600
C -0.176800 -7.954200 -8.767700
H 0.618000 -7.999600 -8.286100
