27
Fragment
H -14.882500 -10.491200 -14.681000
C -14.087700 -10.445800 -14.199400
N -13.833700 -11.126000 -13.062600
H -13.436900 -8.215100 -15.886400
C -13.014100 -9.684800 -14.538200
C -12.677800 -8.785400 -15.688800
N -12.619600 -10.815000 -12.652600
H -12.490900 -9.321600 -16.474800
N -12.129000 -9.943500 -13.556300
H -11.732100 -7.183100 -14.792900
C -11.465100 -7.922800 -15.360400
H -11.090500 -7.558900 -16.177700
C -10.795200 -9.335500 -13.400200
H -10.794300 -8.667200 -12.684200
N -10.466600 -8.730600 -14.678900
H -9.971200 -11.201400 -11.397900
C -9.689800 -10.334200 -13.207200
C -9.425400 -11.184800 -12.150800
C -9.378000 -9.283700 -15.262800
O -8.945400 -8.972700 -16.369600
C -8.858600 -10.294300 -14.316600
C -8.325500 -12.006500 -12.253000
H -8.130500 -12.592000 -11.557400
C -7.755400 -11.125000 -14.419900
C -7.498600 -11.983600 -13.369200
H -7.205700 -11.104800 -15.170600
H -6.765000 -12.553300 -13.409600
27
Fragment
H -4.835500 -10.491200 -14.681000
C -4.040700 -10.445800 -14.199400
N -3.786700 -11.126000 -13.062600
H -3.389900 -8.215100 -15.886400
C -2.967100 -9.684800 -14.538200
C -2.630800 -8.785400 -15.688800
N -2.572600 -10.815000 -12.652600
H -2.443900 -9.321600 -16.474800
N -2.082000 -9.943500 -13.556300
H -1.685100 -7.183100 -14.792900
C -1.418100 -7.922800 -15.360400
H -1.043500 -7.558900 -16.177700
C -0.748200 -9.335500 -13.400200
H -0.747300 -8.667200 -12.684200
N -0.419600 -8.730600 -14.678900
H 0.075800 -11.201400 -11.397900
C 0.357200 -10.334200 -13.207200
C 0.621600 -11.184800 -12.150800
C 0.669000 -9.283700 -15.262800
O 1.101600 -8.972700 -16.369600
C 1.188400 -10.294300 -14.316600
C 1.721500 -12.006500 -12.253000
H 1.916500 -12.592000 -11.557400
C 2.291600 -11.125000 -14.419900
C 2.548400 -11.983600 -13.369200
H 2.841300 -11.104800 -15.170600
H 3.282000 -12.553300 -13.409600
54
Fragment
H -14.882500 -10.491200 -14.681000
C -14.087700 -10.445800 -14.199400
N -13.833700 -11.126000 -13.062600
H -13.436900 -8.215100 -15.886400
C -13.014100 -9.684800 -14.538200
C -12.677800 -8.785400 -15.688800
N -12.619600 -10.815000 -12.652600
H -12.490900 -9.321600 -16.474800
N -12.129000 -9.943500 -13.556300
H -11.732100 -7.183100 -14.792900
C -11.465100 -7.922800 -15.360400
H -11.090500 -7.558900 -16.177700
C -10.795200 -9.335500 -13.400200
H -10.794300 -8.667200 -12.684200
N -10.466600 -8.730600 -14.678900
H -9.971200 -11.201400 -11.397900
C -9.689800 -10.334200 -13.207200
C -9.425400 -11.184800 -12.150800
C -9.378000 -9.283700 -15.262800
O -8.945400 -8.972700 -16.369600
C -8.858600 -10.294300 -14.316600
C -8.325500 -12.006500 -12.253000
H -8.130500 -12.592000 -11.557400
C -7.755400 -11.125000 -14.419900
C -7.498600 -11.983600 -13.369200
H -7.205700 -11.104800 -15.170600
H -6.765000 -12.553300 -13.409600
H -4.835500 -10.491200 -14.681000
C -4.040700 -10.445800 -14.199400
N -3.786700 -11.126000 -13.062600
H -3.389900 -8.215100 -15.886400
C -2.967100 -9.684800 -14.538200
C -2.630800 -8.785400 -15.688800
N -2.572600 -10.815000 -12.652600
H -2.443900 -9.321600 -16.474800
N -2.082000 -9.943500 -13.556300
H -1.685100 -7.183100 -14.792900
C -1.418100 -7.922800 -15.360400
H -1.043500 -7.558900 -16.177700
C -0.748200 -9.335500 -13.400200
H -0.747300 -8.667200 -12.684200
N -0.419600 -8.730600 -14.678900
H 0.075800 -11.201400 -11.397900
C 0.357200 -10.334200 -13.207200
C 0.621600 -11.184800 -12.150800
C 0.669000 -9.283700 -15.262800
O 1.101600 -8.972700 -16.369600
C 1.188400 -10.294300 -14.316600
C 1.721500 -12.006500 -12.253000
H 1.916500 -12.592000 -11.557400
C 2.291600 -11.125000 -14.419900
C 2.548400 -11.983600 -13.369200
H 2.841300 -11.104800 -15.170600
H 3.282000 -12.553300 -13.409600
