38
Fragment
H -6.889000 -24.907900 -29.833500
H -6.549000 -27.462800 -30.811200
C -6.187600 -25.175300 -29.238500
H -6.032000 -23.439800 -28.194200
N -5.992900 -27.505200 -30.139300
C -5.680800 -24.333800 -28.275200
C -5.670500 -26.464700 -29.283900
H -5.328600 -29.427000 -30.368200
C -5.232200 -28.588000 -29.848100
C -4.691400 -24.763500 -27.384300
C -4.671400 -26.923900 -28.413000
C -4.391500 -28.302000 -28.793500
H -4.322500 -24.141500 -26.720800
C -4.181400 -26.044100 -27.434800
O -3.744500 -31.000700 -29.749000
H -3.470100 -26.359400 -26.826100
C -3.415600 -29.175500 -28.182900
C -3.167800 -30.517900 -28.740000
N -2.727700 -28.760800 -27.148900
N -2.226900 -31.209900 -28.094300
H -1.998200 -32.054100 -28.393200
C -1.790000 -29.596300 -26.595700
H -1.662900 -26.998100 -25.397600
N -1.498000 -30.805600 -27.015100
C -1.130900 -27.785700 -25.009000
C -1.044300 -29.078800 -25.465100
N -0.295300 -27.609400 -23.947800
H -0.088500 -26.868500 -23.487000
C -0.082400 -29.747500 -24.625800
H 0.158400 -31.733800 -25.214200
C 0.359100 -28.788500 -23.687800
C 0.447600 -31.044400 -24.554300
C 1.305600 -29.082500 -22.705200
C 1.373100 -31.336700 -23.570700
H 1.639600 -28.340300 -22.089700
H 1.760700 -32.255900 -23.533900
C 1.797000 -30.365100 -22.652500
H 2.492000 -30.582300 -22.003800
38
Fragment
H -4.820900 -24.957900 -31.761600
C -4.126000 -25.175100 -32.410300
H -4.089600 -23.284300 -33.291700
H -3.968500 -27.199900 -31.847500
C -3.702100 -24.203500 -33.328500
C -3.634600 -26.457700 -32.463000
C -2.776600 -24.495800 -34.312100
C -2.688100 -26.751700 -33.445600
H -2.487300 -23.806400 -34.972000
C -2.246500 -25.792700 -34.383600
H -2.240400 -28.671700 -33.244800
N -2.033600 -27.930800 -33.705600
C -1.284600 -26.461400 -35.222900
C -1.198000 -27.754500 -34.766800
N -0.831000 -24.734600 -36.772900
H -0.666100 -28.542100 -35.155400
C -0.538900 -25.943900 -36.353500
H -0.330700 -23.486100 -38.151000
N -0.102000 -24.330300 -37.852100
N 0.398700 -26.779400 -36.906700
C 0.838900 -25.022300 -38.497800
C 1.086700 -26.364700 -37.940700
H 1.141200 -29.180800 -36.583900
O 1.415500 -24.539500 -39.506800
C 1.852400 -29.496100 -37.192600
H 1.993600 -31.398700 -36.478600
C 2.062500 -27.238200 -38.551300
C 2.342500 -28.616300 -38.170800
C 2.362500 -30.776700 -37.142100
C 2.903300 -26.952200 -39.605900
H 2.999700 -26.113200 -40.126000
C 3.341600 -29.075500 -39.041700
C 3.351800 -31.206400 -38.033000
N 3.663900 -28.035000 -39.897100
H 3.703000 -32.100400 -37.952000
C 3.858600 -30.364900 -38.996300
H 4.220100 -28.077400 -40.569000
H 4.560100 -30.632300 -39.591300
76
Fragment
H -6.889000 -24.907900 -29.833500
H -6.549000 -27.462800 -30.811200
C -6.187600 -25.175300 -29.238500
H -6.032000 -23.439800 -28.194200
N -5.992900 -27.505200 -30.139300
C -5.680800 -24.333800 -28.275200
C -5.670500 -26.464700 -29.283900
H -5.328600 -29.427000 -30.368200
C -5.232200 -28.588000 -29.848100
C -4.691400 -24.763500 -27.384300
C -4.671400 -26.923900 -28.413000
C -4.391500 -28.302000 -28.793500
H -4.322500 -24.141500 -26.720800
C -4.181400 -26.044100 -27.434800
O -3.744500 -31.000700 -29.749000
H -3.470100 -26.359400 -26.826100
C -3.415600 -29.175500 -28.182900
C -3.167800 -30.517900 -28.740000
N -2.727700 -28.760800 -27.148900
N -2.226900 -31.209900 -28.094300
H -1.998200 -32.054100 -28.393200
C -1.790000 -29.596300 -26.595700
H -1.662900 -26.998100 -25.397600
N -1.498000 -30.805600 -27.015100
C -1.130900 -27.785700 -25.009000
C -1.044300 -29.078800 -25.465100
N -0.295300 -27.609400 -23.947800
H -0.088500 -26.868500 -23.487000
C -0.082400 -29.747500 -24.625800
H 0.158400 -31.733800 -25.214200
C 0.359100 -28.788500 -23.687800
C 0.447600 -31.044400 -24.554300
C 1.305600 -29.082500 -22.705200
C 1.373100 -31.336700 -23.570700
H 1.639600 -28.340300 -22.089700
H 1.760700 -32.255900 -23.533900
C 1.797000 -30.365100 -22.652500
H 2.492000 -30.582300 -22.003800
H -4.820900 -24.957900 -31.761600
C -4.126000 -25.175100 -32.410300
H -4.089600 -23.284300 -33.291700
H -3.968500 -27.199900 -31.847500
C -3.702100 -24.203500 -33.328500
C -3.634600 -26.457700 -32.463000
C -2.776600 -24.495800 -34.312100
C -2.688100 -26.751700 -33.445600
H -2.487300 -23.806400 -34.972000
C -2.246500 -25.792700 -34.383600
H -2.240400 -28.671700 -33.244800
N -2.033600 -27.930800 -33.705600
C -1.284600 -26.461400 -35.222900
C -1.198000 -27.754500 -34.766800
N -0.831000 -24.734600 -36.772900
H -0.666100 -28.542100 -35.155400
C -0.538900 -25.943900 -36.353500
H -0.330700 -23.486100 -38.151000
N -0.102000 -24.330300 -37.852100
N 0.398700 -26.779400 -36.906700
C 0.838900 -25.022300 -38.497800
C 1.086700 -26.364700 -37.940700
H 1.141200 -29.180800 -36.583900
O 1.415500 -24.539500 -39.506800
C 1.852400 -29.496100 -37.192600
H 1.993600 -31.398700 -36.478600
C 2.062500 -27.238200 -38.551300
C 2.342500 -28.616300 -38.170800
C 2.362500 -30.776700 -37.142100
C 2.903300 -26.952200 -39.605900
H 2.999700 -26.113200 -40.126000
C 3.341600 -29.075500 -39.041700
C 3.351800 -31.206400 -38.033000
N 3.663900 -28.035000 -39.897100
H 3.703000 -32.100400 -37.952000
C 3.858600 -30.364900 -38.996300
H 4.220100 -28.077400 -40.569000
H 4.560100 -30.632300 -39.591300
