38
Fragment
H -6.889000 -24.907900 -29.833500
H -6.549000 -27.462800 -30.811200
C -6.187600 -25.175300 -29.238500
H -6.032000 -23.439800 -28.194200
N -5.992900 -27.505200 -30.139300
C -5.680800 -24.333800 -28.275200
C -5.670500 -26.464700 -29.283900
H -5.328600 -29.427000 -30.368200
C -5.232200 -28.588000 -29.848100
C -4.691400 -24.763500 -27.384300
C -4.671400 -26.923900 -28.413000
C -4.391500 -28.302000 -28.793500
H -4.322500 -24.141500 -26.720800
C -4.181400 -26.044100 -27.434800
O -3.744500 -31.000700 -29.749000
H -3.470100 -26.359400 -26.826100
C -3.415600 -29.175500 -28.182900
C -3.167800 -30.517900 -28.740000
N -2.727700 -28.760800 -27.148900
N -2.226900 -31.209900 -28.094300
H -1.998200 -32.054100 -28.393200
C -1.790000 -29.596300 -26.595700
H -1.662900 -26.998100 -25.397600
N -1.498000 -30.805600 -27.015100
C -1.130900 -27.785700 -25.009000
C -1.044300 -29.078800 -25.465100
N -0.295300 -27.609400 -23.947800
H -0.088500 -26.868500 -23.487000
C -0.082400 -29.747500 -24.625800
H 0.158400 -31.733800 -25.214200
C 0.359100 -28.788500 -23.687800
C 0.447600 -31.044400 -24.554300
C 1.305600 -29.082500 -22.705200
C 1.373100 -31.336700 -23.570700
H 1.639600 -28.340300 -22.089700
H 1.760700 -32.255900 -23.533900
C 1.797000 -30.365100 -22.652500
H 2.492000 -30.582300 -22.003800
38
Fragment
H -9.218000 -39.889000 -28.713300
H -8.878000 -37.334100 -27.735600
C -8.516500 -39.621600 -29.308300
H -8.360900 -41.357100 -30.352600
N -8.321800 -37.291700 -28.407500
C -8.009700 -40.463100 -30.271600
C -7.999500 -38.332200 -29.262900
H -7.657600 -35.369900 -28.178600
C -7.561200 -36.208900 -28.698700
C -7.020400 -40.033400 -31.162500
C -7.000400 -37.873000 -30.133800
C -6.720400 -36.494900 -29.753300
H -6.651500 -40.655400 -31.826000
C -6.510300 -38.752800 -31.112000
O -6.073400 -33.796200 -28.797800
H -5.799100 -38.437500 -31.720700
C -5.744600 -35.621400 -30.363900
C -5.496800 -34.279000 -29.806800
N -5.056600 -36.036100 -31.397900
N -4.555900 -33.587000 -30.452500
H -4.327200 -32.742800 -30.153600
C -4.119000 -35.200600 -31.951100
H -3.991800 -37.798800 -33.149200
N -3.826900 -33.991300 -31.531700
C -3.459900 -37.011200 -33.537800
C -3.373300 -35.718100 -33.081700
N -2.624300 -37.187500 -34.599000
H -2.417500 -37.928400 -35.059800
C -2.411400 -35.049400 -33.921000
H -2.170600 -33.063100 -33.332600
C -1.969800 -36.008400 -34.859000
C -1.881300 -33.752500 -33.992500
C -1.023300 -35.714400 -35.841600
C -0.955800 -33.460200 -34.976100
H -0.689400 -36.456600 -36.457100
H -0.568300 -32.541000 -35.012900
C -0.531900 -34.431800 -35.894300
H 0.163000 -34.214600 -36.543000
76
Fragment
H -6.889000 -24.907900 -29.833500
H -6.549000 -27.462800 -30.811200
C -6.187600 -25.175300 -29.238500
H -6.032000 -23.439800 -28.194200
N -5.992900 -27.505200 -30.139300
C -5.680800 -24.333800 -28.275200
C -5.670500 -26.464700 -29.283900
H -5.328600 -29.427000 -30.368200
C -5.232200 -28.588000 -29.848100
C -4.691400 -24.763500 -27.384300
C -4.671400 -26.923900 -28.413000
C -4.391500 -28.302000 -28.793500
H -4.322500 -24.141500 -26.720800
C -4.181400 -26.044100 -27.434800
O -3.744500 -31.000700 -29.749000
H -3.470100 -26.359400 -26.826100
C -3.415600 -29.175500 -28.182900
C -3.167800 -30.517900 -28.740000
N -2.727700 -28.760800 -27.148900
N -2.226900 -31.209900 -28.094300
H -1.998200 -32.054100 -28.393200
C -1.790000 -29.596300 -26.595700
H -1.662900 -26.998100 -25.397600
N -1.498000 -30.805600 -27.015100
C -1.130900 -27.785700 -25.009000
C -1.044300 -29.078800 -25.465100
N -0.295300 -27.609400 -23.947800
H -0.088500 -26.868500 -23.487000
C -0.082400 -29.747500 -24.625800
H 0.158400 -31.733800 -25.214200
C 0.359100 -28.788500 -23.687800
C 0.447600 -31.044400 -24.554300
C 1.305600 -29.082500 -22.705200
C 1.373100 -31.336700 -23.570700
H 1.639600 -28.340300 -22.089700
H 1.760700 -32.255900 -23.533900
C 1.797000 -30.365100 -22.652500
H 2.492000 -30.582300 -22.003800
H -9.218000 -39.889000 -28.713300
H -8.878000 -37.334100 -27.735600
C -8.516500 -39.621600 -29.308300
H -8.360900 -41.357100 -30.352600
N -8.321800 -37.291700 -28.407500
C -8.009700 -40.463100 -30.271600
C -7.999500 -38.332200 -29.262900
H -7.657600 -35.369900 -28.178600
C -7.561200 -36.208900 -28.698700
C -7.020400 -40.033400 -31.162500
C -7.000400 -37.873000 -30.133800
C -6.720400 -36.494900 -29.753300
H -6.651500 -40.655400 -31.826000
C -6.510300 -38.752800 -31.112000
O -6.073400 -33.796200 -28.797800
H -5.799100 -38.437500 -31.720700
C -5.744600 -35.621400 -30.363900
C -5.496800 -34.279000 -29.806800
N -5.056600 -36.036100 -31.397900
N -4.555900 -33.587000 -30.452500
H -4.327200 -32.742800 -30.153600
C -4.119000 -35.200600 -31.951100
H -3.991800 -37.798800 -33.149200
N -3.826900 -33.991300 -31.531700
C -3.459900 -37.011200 -33.537800
C -3.373300 -35.718100 -33.081700
N -2.624300 -37.187500 -34.599000
H -2.417500 -37.928400 -35.059800
C -2.411400 -35.049400 -33.921000
H -2.170600 -33.063100 -33.332600
C -1.969800 -36.008400 -34.859000
C -1.881300 -33.752500 -33.992500
C -1.023300 -35.714400 -35.841600
C -0.955800 -33.460200 -34.976100
H -0.689400 -36.456600 -36.457100
H -0.568300 -32.541000 -35.012900
C -0.531900 -34.431800 -35.894300
H 0.163000 -34.214600 -36.543000
