38
Fragment
H -6.889000 -24.907900 -29.833500
H -6.549000 -27.462800 -30.811200
C -6.187600 -25.175300 -29.238500
H -6.032000 -23.439800 -28.194200
N -5.992900 -27.505200 -30.139300
C -5.680800 -24.333800 -28.275200
C -5.670500 -26.464700 -29.283900
H -5.328600 -29.427000 -30.368200
C -5.232200 -28.588000 -29.848100
C -4.691400 -24.763500 -27.384300
C -4.671400 -26.923900 -28.413000
C -4.391500 -28.302000 -28.793500
H -4.322500 -24.141500 -26.720800
C -4.181400 -26.044100 -27.434800
O -3.744500 -31.000700 -29.749000
H -3.470100 -26.359400 -26.826100
C -3.415600 -29.175500 -28.182900
C -3.167800 -30.517900 -28.740000
N -2.727700 -28.760800 -27.148900
N -2.226900 -31.209900 -28.094300
H -1.998200 -32.054100 -28.393200
C -1.790000 -29.596300 -26.595700
H -1.662900 -26.998100 -25.397600
N -1.498000 -30.805600 -27.015100
C -1.130900 -27.785700 -25.009000
C -1.044300 -29.078800 -25.465100
N -0.295300 -27.609400 -23.947800
H -0.088500 -26.868500 -23.487000
C -0.082400 -29.747500 -24.625800
H 0.158400 -31.733800 -25.214200
C 0.359100 -28.788500 -23.687800
C 0.447600 -31.044400 -24.554300
C 1.305600 -29.082500 -22.705200
C 1.373100 -31.336700 -23.570700
H 1.639600 -28.340300 -22.089700
H 1.760700 -32.255900 -23.533900
C 1.797000 -30.365100 -22.652500
H 2.492000 -30.582300 -22.003800
38
Fragment
H -7.149900 -21.325600 -26.785200
C -6.454900 -21.108400 -26.136500
H -6.418600 -22.999200 -25.255100
H -6.297500 -19.083600 -26.699300
C -6.031000 -22.080000 -25.218300
C -5.963500 -19.825800 -26.083800
C -5.105500 -21.787700 -24.234700
C -5.017000 -19.531800 -25.101200
H -4.816300 -22.477100 -23.574800
C -4.575500 -20.490800 -24.163200
H -4.569400 -17.611800 -25.302000
N -4.362600 -18.352700 -24.841200
C -3.613600 -19.822100 -23.323900
C -3.527000 -18.529000 -23.780000
N -3.159900 -21.548900 -21.773900
H -2.995000 -17.741400 -23.391400
C -2.867900 -20.339600 -22.193300
H -2.659700 -22.797400 -20.395800
N -2.431000 -21.953200 -20.694700
N -1.930200 -19.504100 -21.640100
C -1.490100 -21.261200 -20.049000
C -1.242300 -19.918800 -20.606100
H -1.187800 -17.102700 -21.962900
O -0.913400 -21.744000 -19.040000
C -0.476500 -16.787400 -21.354200
H -0.335400 -14.884800 -22.068200
C -0.266400 -19.045300 -19.995500
C 0.013500 -17.667200 -20.376000
C 0.033500 -15.506800 -21.404700
C 0.574300 -19.331300 -18.940900
H 0.670700 -20.170300 -18.420800
C 1.012600 -17.208000 -19.505100
C 1.022900 -15.077100 -20.513800
N 1.335000 -18.248500 -18.649700
H 1.374100 -14.183100 -20.594800
C 1.529700 -15.918600 -19.550500
H 1.891100 -18.206100 -17.977800
H 2.231100 -15.651200 -18.955500
76
Fragment
H -6.889000 -24.907900 -29.833500
H -6.549000 -27.462800 -30.811200
C -6.187600 -25.175300 -29.238500
H -6.032000 -23.439800 -28.194200
N -5.992900 -27.505200 -30.139300
C -5.680800 -24.333800 -28.275200
C -5.670500 -26.464700 -29.283900
H -5.328600 -29.427000 -30.368200
C -5.232200 -28.588000 -29.848100
C -4.691400 -24.763500 -27.384300
C -4.671400 -26.923900 -28.413000
C -4.391500 -28.302000 -28.793500
H -4.322500 -24.141500 -26.720800
C -4.181400 -26.044100 -27.434800
O -3.744500 -31.000700 -29.749000
H -3.470100 -26.359400 -26.826100
C -3.415600 -29.175500 -28.182900
C -3.167800 -30.517900 -28.740000
N -2.727700 -28.760800 -27.148900
N -2.226900 -31.209900 -28.094300
H -1.998200 -32.054100 -28.393200
C -1.790000 -29.596300 -26.595700
H -1.662900 -26.998100 -25.397600
N -1.498000 -30.805600 -27.015100
C -1.130900 -27.785700 -25.009000
C -1.044300 -29.078800 -25.465100
N -0.295300 -27.609400 -23.947800
H -0.088500 -26.868500 -23.487000
C -0.082400 -29.747500 -24.625800
H 0.158400 -31.733800 -25.214200
C 0.359100 -28.788500 -23.687800
C 0.447600 -31.044400 -24.554300
C 1.305600 -29.082500 -22.705200
C 1.373100 -31.336700 -23.570700
H 1.639600 -28.340300 -22.089700
H 1.760700 -32.255900 -23.533900
C 1.797000 -30.365100 -22.652500
H 2.492000 -30.582300 -22.003800
H -7.149900 -21.325600 -26.785200
C -6.454900 -21.108400 -26.136500
H -6.418600 -22.999200 -25.255100
H -6.297500 -19.083600 -26.699300
C -6.031000 -22.080000 -25.218300
C -5.963500 -19.825800 -26.083800
C -5.105500 -21.787700 -24.234700
C -5.017000 -19.531800 -25.101200
H -4.816300 -22.477100 -23.574800
C -4.575500 -20.490800 -24.163200
H -4.569400 -17.611800 -25.302000
N -4.362600 -18.352700 -24.841200
C -3.613600 -19.822100 -23.323900
C -3.527000 -18.529000 -23.780000
N -3.159900 -21.548900 -21.773900
H -2.995000 -17.741400 -23.391400
C -2.867900 -20.339600 -22.193300
H -2.659700 -22.797400 -20.395800
N -2.431000 -21.953200 -20.694700
N -1.930200 -19.504100 -21.640100
C -1.490100 -21.261200 -20.049000
C -1.242300 -19.918800 -20.606100
H -1.187800 -17.102700 -21.962900
O -0.913400 -21.744000 -19.040000
C -0.476500 -16.787400 -21.354200
H -0.335400 -14.884800 -22.068200
C -0.266400 -19.045300 -19.995500
C 0.013500 -17.667200 -20.376000
C 0.033500 -15.506800 -21.404700
C 0.574300 -19.331300 -18.940900
H 0.670700 -20.170300 -18.420800
C 1.012600 -17.208000 -19.505100
C 1.022900 -15.077100 -20.513800
N 1.335000 -18.248500 -18.649700
H 1.374100 -14.183100 -20.594800
C 1.529700 -15.918600 -19.550500
H 1.891100 -18.206100 -17.977800
H 2.231100 -15.651200 -18.955500
