12
Fragment
H -7.155900 -5.171500 -24.717000
H -7.106300 -7.125100 -24.183400
H -7.011700 -7.516800 -22.532800
C -6.650000 -4.756600 -23.811100
C -6.605900 -7.144800 -23.307700
O -6.344100 -3.578200 -23.683200
N -6.300800 -5.743000 -23.001400
H -5.797400 -5.984500 -21.031300
H -5.755400 -7.678600 -23.550300
H -5.644000 -4.553200 -21.538300
C -5.477300 -5.481600 -21.834200
H -4.571000 -5.770000 -21.927600
76
Fragment
H -5.478300 -0.703300 -24.598200
H -4.828800 -7.795000 -27.357300
H -4.826200 1.421000 -25.270100
H -4.682000 -5.370100 -27.527100
C -4.677400 -0.309000 -24.354400
H -4.545300 -2.729300 -23.055500
C -4.442600 -7.194200 -26.678100
C -4.317100 0.950400 -24.740100
C -4.300200 -5.827000 -26.798200
H -4.149600 -9.812900 -25.747900
N -3.925900 -9.107800 -25.165600
N -3.919200 -2.269800 -23.011600
C -3.910100 -7.788200 -25.529600
C -3.816700 -0.996200 -23.503000
C -3.659400 -5.085100 -25.812200
H -3.594900 -4.054500 -25.905600
C -3.298500 -9.248800 -23.965100
C -3.260700 -7.051100 -24.517200
H -3.221600 -10.090200 -23.533300
C -3.131900 1.534200 -24.280400
C -3.129400 -5.669800 -24.669700
H -2.923700 2.584700 -24.595700
C -2.863300 -8.016500 -23.499400
C -2.814200 -2.564800 -22.279300
H -2.721300 -3.326900 -21.836600
H -2.696600 -5.158100 -23.965100
C -2.595500 -0.451700 -23.050600
C -2.271600 0.845800 -23.438700
C -2.156300 -7.769700 -22.282900
O -2.031700 -10.064300 -21.646300
C -1.948300 -1.493700 -22.275300
N -1.867000 -6.508800 -21.987000
C -1.746700 -8.858100 -21.381800
H -1.448900 1.277100 -23.102800
N -1.176700 -6.296200 -20.841600
N -1.046900 -8.553300 -20.241900
H -0.946400 -5.152400 -20.673500
C -0.779900 -7.289700 -20.002700
O -0.714800 -3.680700 -20.829000
C -0.644800 -1.442000 -21.650400
H -0.186600 -9.791400 -18.056300
C -0.087700 -2.581900 -20.924800
C -0.065600 -6.911300 -18.796100
N 0.039900 -0.325700 -21.778600
H 0.235600 -4.727400 -19.077500
C 0.259700 -9.171800 -17.468100
C 0.332400 -5.646600 -18.438300
C 0.350300 -7.794800 -17.736100
H 0.711500 -10.605000 -16.113400
C 0.802200 -9.653800 -16.297700
N 0.965000 -5.667100 -17.248600
C 0.990400 -6.975500 -16.784000
N 1.145200 -2.457900 -20.328800
N 1.262800 -0.294600 -21.195900
H 1.364400 -4.919800 -16.775600
C 1.441500 -8.808800 -15.372300
C 1.543400 -7.475500 -15.617300
H 1.755600 -9.148000 -14.482100
C 1.787200 -1.311700 -20.490300
H 1.791700 0.683300 -21.368500
H 1.997700 -6.879200 -15.087300
H 2.804700 -3.842300 -18.980400
C 3.107600 -1.141800 -19.899900
C 3.635700 -3.454200 -18.739100
H 3.653600 0.931100 -20.375200
C 3.841600 -2.115400 -19.128800
C 3.885700 -0.003700 -19.943400
H 4.358400 -4.890800 -17.625700
C 4.565400 -4.047400 -17.922900
C 5.023300 -1.478900 -18.722100
N 5.026600 -0.191800 -19.241900
C 5.716900 -3.381800 -17.488700
H 5.826300 0.453500 -19.041100
C 5.977000 -2.093600 -17.909500
H 6.384900 -3.811800 -16.849500
H 6.783200 -1.511200 -17.610000
88
Fragment
H -7.155900 -5.171500 -24.717000
H -7.106300 -7.125100 -24.183400
H -7.011700 -7.516800 -22.532800
C -6.650000 -4.756600 -23.811100
C -6.605900 -7.144800 -23.307700
O -6.344100 -3.578200 -23.683200
N -6.300800 -5.743000 -23.001400
H -5.797400 -5.984500 -21.031300
H -5.755400 -7.678600 -23.550300
H -5.644000 -4.553200 -21.538300
C -5.477300 -5.481600 -21.834200
H -4.571000 -5.770000 -21.927600
H -5.478300 -0.703300 -24.598200
H -4.828800 -7.795000 -27.357300
H -4.826200 1.421000 -25.270100
H -4.682000 -5.370100 -27.527100
C -4.677400 -0.309000 -24.354400
H -4.545300 -2.729300 -23.055500
C -4.442600 -7.194200 -26.678100
C -4.317100 0.950400 -24.740100
C -4.300200 -5.827000 -26.798200
H -4.149600 -9.812900 -25.747900
N -3.925900 -9.107800 -25.165600
N -3.919200 -2.269800 -23.011600
C -3.910100 -7.788200 -25.529600
C -3.816700 -0.996200 -23.503000
C -3.659400 -5.085100 -25.812200
H -3.594900 -4.054500 -25.905600
C -3.298500 -9.248800 -23.965100
C -3.260700 -7.051100 -24.517200
H -3.221600 -10.090200 -23.533300
C -3.131900 1.534200 -24.280400
C -3.129400 -5.669800 -24.669700
H -2.923700 2.584700 -24.595700
C -2.863300 -8.016500 -23.499400
C -2.814200 -2.564800 -22.279300
H -2.721300 -3.326900 -21.836600
H -2.696600 -5.158100 -23.965100
C -2.595500 -0.451700 -23.050600
C -2.271600 0.845800 -23.438700
C -2.156300 -7.769700 -22.282900
O -2.031700 -10.064300 -21.646300
C -1.948300 -1.493700 -22.275300
N -1.867000 -6.508800 -21.987000
C -1.746700 -8.858100 -21.381800
H -1.448900 1.277100 -23.102800
N -1.176700 -6.296200 -20.841600
N -1.046900 -8.553300 -20.241900
H -0.946400 -5.152400 -20.673500
C -0.779900 -7.289700 -20.002700
O -0.714800 -3.680700 -20.829000
C -0.644800 -1.442000 -21.650400
H -0.186600 -9.791400 -18.056300
C -0.087700 -2.581900 -20.924800
C -0.065600 -6.911300 -18.796100
N 0.039900 -0.325700 -21.778600
H 0.235600 -4.727400 -19.077500
C 0.259700 -9.171800 -17.468100
C 0.332400 -5.646600 -18.438300
C 0.350300 -7.794800 -17.736100
H 0.711500 -10.605000 -16.113400
C 0.802200 -9.653800 -16.297700
N 0.965000 -5.667100 -17.248600
C 0.990400 -6.975500 -16.784000
N 1.145200 -2.457900 -20.328800
N 1.262800 -0.294600 -21.195900
H 1.364400 -4.919800 -16.775600
C 1.441500 -8.808800 -15.372300
C 1.543400 -7.475500 -15.617300
H 1.755600 -9.148000 -14.482100
C 1.787200 -1.311700 -20.490300
H 1.791700 0.683300 -21.368500
H 1.997700 -6.879200 -15.087300
H 2.804700 -3.842300 -18.980400
C 3.107600 -1.141800 -19.899900
C 3.635700 -3.454200 -18.739100
H 3.653600 0.931100 -20.375200
C 3.841600 -2.115400 -19.128800
C 3.885700 -0.003700 -19.943400
H 4.358400 -4.890800 -17.625700
C 4.565400 -4.047400 -17.922900
C 5.023300 -1.478900 -18.722100
N 5.026600 -0.191800 -19.241900
C 5.716900 -3.381800 -17.488700
H 5.826300 0.453500 -19.041100
C 5.977000 -2.093600 -17.909500
H 6.384900 -3.811800 -16.849500
H 6.783200 -1.511200 -17.610000
