12
Fragment
H -7.155900 -5.171500 -24.717000
H -7.106300 -7.125100 -24.183400
H -7.011700 -7.516800 -22.532800
C -6.650000 -4.756600 -23.811100
C -6.605900 -7.144800 -23.307700
O -6.344100 -3.578200 -23.683200
N -6.300800 -5.743000 -23.001400
H -5.797400 -5.984500 -21.031300
H -5.755400 -7.678600 -23.550300
H -5.644000 -4.553200 -21.538300
C -5.477300 -5.481600 -21.834200
H -4.571000 -5.770000 -21.927600
76
Fragment
H -9.625600 -12.994900 -24.598200
H -8.976000 -20.086600 -27.357300
H -8.973400 -10.870600 -25.270100
H -8.829300 -17.661700 -27.527100
C -8.824700 -12.600600 -24.354400
H -8.692600 -15.020900 -23.055500
C -8.589800 -19.485900 -26.678100
C -8.464400 -11.341300 -24.740100
C -8.447500 -18.118600 -26.798200
H -8.296900 -22.104600 -25.747900
N -8.073100 -21.399400 -25.165600
N -8.066500 -14.561400 -23.011600
C -8.057400 -20.079900 -25.529600
C -7.964000 -13.287800 -23.503000
C -7.806700 -17.376700 -25.812200
H -7.742100 -16.346200 -25.905600
C -7.445800 -21.540400 -23.965100
C -7.408000 -19.342700 -24.517200
H -7.368900 -22.381800 -23.533300
C -7.279200 -10.757400 -24.280400
C -7.276700 -17.961500 -24.669700
H -7.070900 -9.706900 -24.595700
C -7.010600 -20.308200 -23.499400
C -6.961400 -14.856400 -22.279300
H -6.868600 -15.618500 -21.836600
H -6.843800 -17.449800 -23.965100
C -6.742800 -12.743300 -23.050600
C -6.418900 -11.445800 -23.438700
C -6.303500 -20.061300 -22.282900
O -6.178900 -22.356000 -21.646300
C -6.095600 -13.785400 -22.275300
N -6.014200 -18.800400 -21.987000
C -5.894000 -21.149700 -21.381800
H -5.596100 -11.014500 -23.102800
N -5.324000 -18.587800 -20.841600
N -5.194200 -20.844900 -20.241900
H -5.093700 -17.444100 -20.673500
C -4.927200 -19.581400 -20.002700
O -4.862100 -15.972400 -20.829000
C -4.792100 -13.733600 -21.650400
H -4.333800 -22.083100 -18.056300
C -4.235000 -14.873500 -20.924800
C -4.212900 -19.202900 -18.796100
N -4.107300 -12.617300 -21.778600
H -3.911600 -17.019100 -19.077500
C -3.887600 -21.463400 -17.468100
C -3.814900 -17.938200 -18.438300
C -3.796900 -20.086500 -17.736100
H -3.435700 -22.896600 -16.113400
C -3.345100 -21.945500 -16.297700
N -3.182300 -17.958800 -17.248600
C -3.156900 -19.267200 -16.784000
N -3.002100 -14.749500 -20.328800
N -2.884500 -12.586200 -21.195900
H -2.782900 -17.211400 -16.775600
C -2.705800 -21.100400 -15.372300
C -2.603900 -19.767100 -15.617300
H -2.391600 -21.439700 -14.482100
C -2.360000 -13.603400 -20.490300
H -2.355600 -11.608300 -21.368500
H -2.149600 -19.170800 -15.087300
H -1.342600 -16.134000 -18.980400
C -1.039700 -13.433400 -19.899900
C -0.511500 -15.745800 -18.739100
H -0.493700 -11.360500 -20.375200
C -0.305600 -14.407000 -19.128800
C -0.261500 -12.295400 -19.943400
H 0.211100 -17.182400 -17.625700
C 0.418100 -16.339000 -17.922900
C 0.876100 -13.770500 -18.722100
N 0.879400 -12.483400 -19.241900
C 1.569700 -15.673400 -17.488700
H 1.679000 -11.838100 -19.041100
C 1.829700 -14.385200 -17.909500
H 2.237700 -16.103400 -16.849500
H 2.635900 -13.802800 -17.610000
88
Fragment
H -7.155900 -5.171500 -24.717000
H -7.106300 -7.125100 -24.183400
H -7.011700 -7.516800 -22.532800
C -6.650000 -4.756600 -23.811100
C -6.605900 -7.144800 -23.307700
O -6.344100 -3.578200 -23.683200
N -6.300800 -5.743000 -23.001400
H -5.797400 -5.984500 -21.031300
H -5.755400 -7.678600 -23.550300
H -5.644000 -4.553200 -21.538300
C -5.477300 -5.481600 -21.834200
H -4.571000 -5.770000 -21.927600
H -9.625600 -12.994900 -24.598200
H -8.976000 -20.086600 -27.357300
H -8.973400 -10.870600 -25.270100
H -8.829300 -17.661700 -27.527100
C -8.824700 -12.600600 -24.354400
H -8.692600 -15.020900 -23.055500
C -8.589800 -19.485900 -26.678100
C -8.464400 -11.341300 -24.740100
C -8.447500 -18.118600 -26.798200
H -8.296900 -22.104600 -25.747900
N -8.073100 -21.399400 -25.165600
N -8.066500 -14.561400 -23.011600
C -8.057400 -20.079900 -25.529600
C -7.964000 -13.287800 -23.503000
C -7.806700 -17.376700 -25.812200
H -7.742100 -16.346200 -25.905600
C -7.445800 -21.540400 -23.965100
C -7.408000 -19.342700 -24.517200
H -7.368900 -22.381800 -23.533300
C -7.279200 -10.757400 -24.280400
C -7.276700 -17.961500 -24.669700
H -7.070900 -9.706900 -24.595700
C -7.010600 -20.308200 -23.499400
C -6.961400 -14.856400 -22.279300
H -6.868600 -15.618500 -21.836600
H -6.843800 -17.449800 -23.965100
C -6.742800 -12.743300 -23.050600
C -6.418900 -11.445800 -23.438700
C -6.303500 -20.061300 -22.282900
O -6.178900 -22.356000 -21.646300
C -6.095600 -13.785400 -22.275300
N -6.014200 -18.800400 -21.987000
C -5.894000 -21.149700 -21.381800
H -5.596100 -11.014500 -23.102800
N -5.324000 -18.587800 -20.841600
N -5.194200 -20.844900 -20.241900
H -5.093700 -17.444100 -20.673500
C -4.927200 -19.581400 -20.002700
O -4.862100 -15.972400 -20.829000
C -4.792100 -13.733600 -21.650400
H -4.333800 -22.083100 -18.056300
C -4.235000 -14.873500 -20.924800
C -4.212900 -19.202900 -18.796100
N -4.107300 -12.617300 -21.778600
H -3.911600 -17.019100 -19.077500
C -3.887600 -21.463400 -17.468100
C -3.814900 -17.938200 -18.438300
C -3.796900 -20.086500 -17.736100
H -3.435700 -22.896600 -16.113400
C -3.345100 -21.945500 -16.297700
N -3.182300 -17.958800 -17.248600
C -3.156900 -19.267200 -16.784000
N -3.002100 -14.749500 -20.328800
N -2.884500 -12.586200 -21.195900
H -2.782900 -17.211400 -16.775600
C -2.705800 -21.100400 -15.372300
C -2.603900 -19.767100 -15.617300
H -2.391600 -21.439700 -14.482100
C -2.360000 -13.603400 -20.490300
H -2.355600 -11.608300 -21.368500
H -2.149600 -19.170800 -15.087300
H -1.342600 -16.134000 -18.980400
C -1.039700 -13.433400 -19.899900
C -0.511500 -15.745800 -18.739100
H -0.493700 -11.360500 -20.375200
C -0.305600 -14.407000 -19.128800
C -0.261500 -12.295400 -19.943400
H 0.211100 -17.182400 -17.625700
C 0.418100 -16.339000 -17.922900
C 0.876100 -13.770500 -18.722100
N 0.879400 -12.483400 -19.241900
C 1.569700 -15.673400 -17.488700
H 1.679000 -11.838100 -19.041100
C 1.829700 -14.385200 -17.909500
H 2.237700 -16.103400 -16.849500
H 2.635900 -13.802800 -17.610000
