19
Fragment
H -19.352200 -19.066000 -15.092100
C -18.357300 -19.407000 -14.784700
H -18.193800 -18.631600 -17.392500
N -18.061100 -20.006100 -13.618900
N -17.216700 -19.229700 -15.633200
C -17.173400 -18.591400 -16.915500
H -16.862500 -17.513400 -16.803500
C -16.687200 -20.256700 -13.688600
H -16.424500 -19.118100 -17.585800
C -16.141200 -19.770800 -14.933700
O -16.079100 -21.375700 -11.630200
C -15.805000 -20.889500 -12.745900
N -14.821700 -19.853900 -15.316800
N -14.444300 -20.942100 -13.181800
C -14.020400 -20.442200 -14.409200
H -13.768000 -21.341700 -12.538700
N -12.674600 -20.598400 -14.726100
H -12.462000 -20.585600 -15.699700
H -12.210300 -21.315500 -14.214500
16
Fragment
H -23.882800 -22.284400 -10.185400
H -23.260700 -22.935900 -8.716800
N -23.103400 -22.629400 -9.644800
C -21.957900 -23.019000 -10.283100
N -21.782400 -22.749000 -11.593200
H -21.112200 -23.881300 -8.428000
C -20.944300 -23.670400 -9.490300
C -20.551800 -23.069800 -12.197800
O -20.311500 -22.885500 -13.399000
C -19.744400 -23.992400 -10.116700
N -19.513400 -23.704400 -11.430500
H -18.911100 -24.473600 -9.549700
H -18.476300 -24.701500 -12.955100
C -18.270800 -24.025100 -12.079900
H -17.794300 -23.087400 -12.473300
H -17.566300 -24.532000 -11.359700
35
Fragment
H -19.352200 -19.066000 -15.092100
C -18.357300 -19.407000 -14.784700
H -18.193800 -18.631600 -17.392500
N -18.061100 -20.006100 -13.618900
N -17.216700 -19.229700 -15.633200
C -17.173400 -18.591400 -16.915500
H -16.862500 -17.513400 -16.803500
C -16.687200 -20.256700 -13.688600
H -16.424500 -19.118100 -17.585800
C -16.141200 -19.770800 -14.933700
O -16.079100 -21.375700 -11.630200
C -15.805000 -20.889500 -12.745900
N -14.821700 -19.853900 -15.316800
N -14.444300 -20.942100 -13.181800
C -14.020400 -20.442200 -14.409200
H -13.768000 -21.341700 -12.538700
N -12.674600 -20.598400 -14.726100
H -12.462000 -20.585600 -15.699700
H -12.210300 -21.315500 -14.214500
H -23.882800 -22.284400 -10.185400
H -23.260700 -22.935900 -8.716800
N -23.103400 -22.629400 -9.644800
C -21.957900 -23.019000 -10.283100
N -21.782400 -22.749000 -11.593200
H -21.112200 -23.881300 -8.428000
C -20.944300 -23.670400 -9.490300
C -20.551800 -23.069800 -12.197800
O -20.311500 -22.885500 -13.399000
C -19.744400 -23.992400 -10.116700
N -19.513400 -23.704400 -11.430500
H -18.911100 -24.473600 -9.549700
H -18.476300 -24.701500 -12.955100
C -18.270800 -24.025100 -12.079900
H -17.794300 -23.087400 -12.473300
H -17.566300 -24.532000 -11.359700
