19
Fragment
H -19.352200 -19.066000 -15.092100
C -18.357300 -19.407000 -14.784700
H -18.193800 -18.631600 -17.392500
N -18.061100 -20.006100 -13.618900
N -17.216700 -19.229700 -15.633200
C -17.173400 -18.591400 -16.915500
H -16.862500 -17.513400 -16.803500
C -16.687200 -20.256700 -13.688600
H -16.424500 -19.118100 -17.585800
C -16.141200 -19.770800 -14.933700
O -16.079100 -21.375700 -11.630200
C -15.805000 -20.889500 -12.745900
N -14.821700 -19.853900 -15.316800
N -14.444300 -20.942100 -13.181800
C -14.020400 -20.442200 -14.409200
H -13.768000 -21.341700 -12.538700
N -12.674600 -20.598400 -14.726100
H -12.462000 -20.585600 -15.699700
H -12.210300 -21.315500 -14.214500
19
Fragment
H -18.750300 -16.903500 -20.210600
C -17.755400 -16.562500 -19.903200
H -17.591900 -17.337900 -22.511000
N -17.459100 -15.963400 -18.737400
N -16.614800 -16.739800 -20.751700
C -16.571400 -17.378100 -22.034000
H -16.260600 -18.456100 -21.922000
C -16.085300 -15.712800 -18.807100
H -15.822600 -16.851400 -22.704300
C -15.539300 -16.198600 -20.052200
O -15.477200 -14.593800 -16.748700
C -15.203100 -15.080000 -17.864400
N -14.219800 -16.115600 -20.435300
N -13.842400 -15.027300 -18.300300
C -13.418500 -15.527300 -19.527700
H -13.166100 -14.627800 -17.657200
N -12.072700 -15.371100 -19.844600
H -11.860100 -15.383900 -20.818100
H -11.608400 -14.654000 -19.333000
38
Fragment
H -19.352200 -19.066000 -15.092100
C -18.357300 -19.407000 -14.784700
H -18.193800 -18.631600 -17.392500
N -18.061100 -20.006100 -13.618900
N -17.216700 -19.229700 -15.633200
C -17.173400 -18.591400 -16.915500
H -16.862500 -17.513400 -16.803500
C -16.687200 -20.256700 -13.688600
H -16.424500 -19.118100 -17.585800
C -16.141200 -19.770800 -14.933700
O -16.079100 -21.375700 -11.630200
C -15.805000 -20.889500 -12.745900
N -14.821700 -19.853900 -15.316800
N -14.444300 -20.942100 -13.181800
C -14.020400 -20.442200 -14.409200
H -13.768000 -21.341700 -12.538700
N -12.674600 -20.598400 -14.726100
H -12.462000 -20.585600 -15.699700
H -12.210300 -21.315500 -14.214500
H -18.750300 -16.903500 -20.210600
C -17.755400 -16.562500 -19.903200
H -17.591900 -17.337900 -22.511000
N -17.459100 -15.963400 -18.737400
N -16.614800 -16.739800 -20.751700
C -16.571400 -17.378100 -22.034000
H -16.260600 -18.456100 -21.922000
C -16.085300 -15.712800 -18.807100
H -15.822600 -16.851400 -22.704300
C -15.539300 -16.198600 -20.052200
O -15.477200 -14.593800 -16.748700
C -15.203100 -15.080000 -17.864400
N -14.219800 -16.115600 -20.435300
N -13.842400 -15.027300 -18.300300
C -13.418500 -15.527300 -19.527700
H -13.166100 -14.627800 -17.657200
N -12.072700 -15.371100 -19.844600
H -11.860100 -15.383900 -20.818100
H -11.608400 -14.654000 -19.333000
