19
Fragment
H -19.352200 -19.066000 -15.092100
C -18.357300 -19.407000 -14.784700
H -18.193800 -18.631600 -17.392500
N -18.061100 -20.006100 -13.618900
N -17.216700 -19.229700 -15.633200
C -17.173400 -18.591400 -16.915500
H -16.862500 -17.513400 -16.803500
C -16.687200 -20.256700 -13.688600
H -16.424500 -19.118100 -17.585800
C -16.141200 -19.770800 -14.933700
O -16.079100 -21.375700 -11.630200
C -15.805000 -20.889500 -12.745900
N -14.821700 -19.853900 -15.316800
N -14.444300 -20.942100 -13.181800
C -14.020400 -20.442200 -14.409200
H -13.768000 -21.341700 -12.538700
N -12.674600 -20.598400 -14.726100
H -12.462000 -20.585600 -15.699700
H -12.210300 -21.315500 -14.214500
19
Fragment
H -10.470700 -19.066000 -15.092100
C -9.475800 -19.407000 -14.784700
H -9.312300 -18.631600 -17.392500
N -9.179500 -20.006100 -13.618900
N -8.335200 -19.229700 -15.633200
C -8.291800 -18.591400 -16.915500
H -7.981000 -17.513400 -16.803500
C -7.805700 -20.256700 -13.688600
H -7.543000 -19.118100 -17.585800
C -7.259700 -19.770800 -14.933700
O -7.197600 -21.375700 -11.630200
C -6.923500 -20.889500 -12.745900
N -5.940200 -19.853900 -15.316800
N -5.562800 -20.942100 -13.181800
C -5.138900 -20.442200 -14.409200
H -4.886500 -21.341700 -12.538700
N -3.793100 -20.598400 -14.726100
H -3.580500 -20.585600 -15.699700
H -3.328800 -21.315500 -14.214500
38
Fragment
H -19.352200 -19.066000 -15.092100
C -18.357300 -19.407000 -14.784700
H -18.193800 -18.631600 -17.392500
N -18.061100 -20.006100 -13.618900
N -17.216700 -19.229700 -15.633200
C -17.173400 -18.591400 -16.915500
H -16.862500 -17.513400 -16.803500
C -16.687200 -20.256700 -13.688600
H -16.424500 -19.118100 -17.585800
C -16.141200 -19.770800 -14.933700
O -16.079100 -21.375700 -11.630200
C -15.805000 -20.889500 -12.745900
N -14.821700 -19.853900 -15.316800
N -14.444300 -20.942100 -13.181800
C -14.020400 -20.442200 -14.409200
H -13.768000 -21.341700 -12.538700
N -12.674600 -20.598400 -14.726100
H -12.462000 -20.585600 -15.699700
H -12.210300 -21.315500 -14.214500
H -10.470700 -19.066000 -15.092100
C -9.475800 -19.407000 -14.784700
H -9.312300 -18.631600 -17.392500
N -9.179500 -20.006100 -13.618900
N -8.335200 -19.229700 -15.633200
C -8.291800 -18.591400 -16.915500
H -7.981000 -17.513400 -16.803500
C -7.805700 -20.256700 -13.688600
H -7.543000 -19.118100 -17.585800
C -7.259700 -19.770800 -14.933700
O -7.197600 -21.375700 -11.630200
C -6.923500 -20.889500 -12.745900
N -5.940200 -19.853900 -15.316800
N -5.562800 -20.942100 -13.181800
C -5.138900 -20.442200 -14.409200
H -4.886500 -21.341700 -12.538700
N -3.793100 -20.598400 -14.726100
H -3.580500 -20.585600 -15.699700
H -3.328800 -21.315500 -14.214500
