19
Fragment
H -19.352200 -19.066000 -15.092100
C -18.357300 -19.407000 -14.784700
H -18.193800 -18.631600 -17.392500
N -18.061100 -20.006100 -13.618900
N -17.216700 -19.229700 -15.633200
C -17.173400 -18.591400 -16.915500
H -16.862500 -17.513400 -16.803500
C -16.687200 -20.256700 -13.688600
H -16.424500 -19.118100 -17.585800
C -16.141200 -19.770800 -14.933700
O -16.079100 -21.375700 -11.630200
C -15.805000 -20.889500 -12.745900
N -14.821700 -19.853900 -15.316800
N -14.444300 -20.942100 -13.181800
C -14.020400 -20.442200 -14.409200
H -13.768000 -21.341700 -12.538700
N -12.674600 -20.598400 -14.726100
H -12.462000 -20.585600 -15.699700
H -12.210300 -21.315500 -14.214500
19
Fragment
H -19.954100 -16.903500 -9.973600
C -18.959200 -16.562500 -9.666200
H -18.795700 -17.337900 -12.274000
N -18.663000 -15.963400 -8.500400
N -17.818700 -16.739800 -10.514700
C -17.775300 -17.378100 -11.797100
H -17.464500 -18.456100 -11.685000
C -17.289200 -15.712800 -8.570100
H -17.026400 -16.851400 -12.467300
C -16.743100 -16.198600 -9.815200
O -16.681000 -14.593800 -6.511700
C -16.406900 -15.080000 -7.627400
N -15.423600 -16.115600 -10.198300
N -15.046200 -15.027300 -8.063300
C -14.622300 -15.527300 -9.290700
H -14.369900 -14.627800 -7.420200
N -13.276500 -15.371100 -9.607600
H -13.063900 -15.383900 -10.581200
H -12.812200 -14.654000 -9.096000
38
Fragment
H -19.352200 -19.066000 -15.092100
C -18.357300 -19.407000 -14.784700
H -18.193800 -18.631600 -17.392500
N -18.061100 -20.006100 -13.618900
N -17.216700 -19.229700 -15.633200
C -17.173400 -18.591400 -16.915500
H -16.862500 -17.513400 -16.803500
C -16.687200 -20.256700 -13.688600
H -16.424500 -19.118100 -17.585800
C -16.141200 -19.770800 -14.933700
O -16.079100 -21.375700 -11.630200
C -15.805000 -20.889500 -12.745900
N -14.821700 -19.853900 -15.316800
N -14.444300 -20.942100 -13.181800
C -14.020400 -20.442200 -14.409200
H -13.768000 -21.341700 -12.538700
N -12.674600 -20.598400 -14.726100
H -12.462000 -20.585600 -15.699700
H -12.210300 -21.315500 -14.214500
H -19.954100 -16.903500 -9.973600
C -18.959200 -16.562500 -9.666200
H -18.795700 -17.337900 -12.274000
N -18.663000 -15.963400 -8.500400
N -17.818700 -16.739800 -10.514700
C -17.775300 -17.378100 -11.797100
H -17.464500 -18.456100 -11.685000
C -17.289200 -15.712800 -8.570100
H -17.026400 -16.851400 -12.467300
C -16.743100 -16.198600 -9.815200
O -16.681000 -14.593800 -6.511700
C -16.406900 -15.080000 -7.627400
N -15.423600 -16.115600 -10.198300
N -15.046200 -15.027300 -8.063300
C -14.622300 -15.527300 -9.290700
H -14.369900 -14.627800 -7.420200
N -13.276500 -15.371100 -9.607600
H -13.063900 -15.383900 -10.581200
H -12.812200 -14.654000 -9.096000
