22
Fragment
H -16.515100 -10.473000 -30.957900
N -15.646500 -11.095300 -31.032900
N -15.630800 -12.181900 -31.842700
N -14.710200 -9.031300 -29.002300
N -14.420100 -12.634900 -31.854700
C -14.408700 -10.924400 -30.565100
H -14.065200 -7.585600 -27.748100
C -13.931000 -9.903700 -29.654900
N -13.846400 -8.322300 -28.291200
N -13.611400 -11.871200 -31.058500
C -12.598600 -9.654700 -29.295900
N -12.553900 -8.651800 -28.424600
H -11.570500 -10.911700 -30.335700
N -11.468600 -10.330600 -29.719700
C -10.235200 -10.143900 -29.199400
O -9.959900 -12.326800 -30.993400
N -9.898500 -9.208900 -28.328900
C -9.069400 -10.922900 -29.455300
N -8.953300 -12.060500 -30.339300
O -8.529500 -9.444000 -28.060300
N -8.058800 -10.504100 -28.761100
O -7.899000 -12.672600 -30.362600
22
Fragment
H -16.515100 -15.574300 -30.957900
N -15.646500 -16.196600 -31.032900
N -15.630800 -17.283200 -31.842700
N -14.710200 -14.132600 -29.002300
N -14.420100 -17.736200 -31.854700
C -14.408700 -16.025700 -30.565100
H -14.065200 -12.686900 -27.748100
C -13.931000 -15.005000 -29.654900
N -13.846400 -13.423600 -28.291200
N -13.611400 -16.972500 -31.058500
C -12.598600 -14.756000 -29.295900
N -12.553900 -13.753100 -28.424600
H -11.570500 -16.013000 -30.335700
N -11.468600 -15.431900 -29.719700
C -10.235200 -15.245200 -29.199400
O -9.959900 -17.428100 -30.993400
N -9.898500 -14.310200 -28.328900
C -9.069400 -16.024200 -29.455300
N -8.953300 -17.161800 -30.339300
O -8.529500 -14.545300 -28.060300
N -8.058800 -15.605400 -28.761100
O -7.899000 -17.773900 -30.362600
44
Fragment
H -16.515100 -10.473000 -30.957900
N -15.646500 -11.095300 -31.032900
N -15.630800 -12.181900 -31.842700
N -14.710200 -9.031300 -29.002300
N -14.420100 -12.634900 -31.854700
C -14.408700 -10.924400 -30.565100
H -14.065200 -7.585600 -27.748100
C -13.931000 -9.903700 -29.654900
N -13.846400 -8.322300 -28.291200
N -13.611400 -11.871200 -31.058500
C -12.598600 -9.654700 -29.295900
N -12.553900 -8.651800 -28.424600
H -11.570500 -10.911700 -30.335700
N -11.468600 -10.330600 -29.719700
C -10.235200 -10.143900 -29.199400
O -9.959900 -12.326800 -30.993400
N -9.898500 -9.208900 -28.328900
C -9.069400 -10.922900 -29.455300
N -8.953300 -12.060500 -30.339300
O -8.529500 -9.444000 -28.060300
N -8.058800 -10.504100 -28.761100
O -7.899000 -12.672600 -30.362600
H -16.515100 -15.574300 -30.957900
N -15.646500 -16.196600 -31.032900
N -15.630800 -17.283200 -31.842700
N -14.710200 -14.132600 -29.002300
N -14.420100 -17.736200 -31.854700
C -14.408700 -16.025700 -30.565100
H -14.065200 -12.686900 -27.748100
C -13.931000 -15.005000 -29.654900
N -13.846400 -13.423600 -28.291200
N -13.611400 -16.972500 -31.058500
C -12.598600 -14.756000 -29.295900
N -12.553900 -13.753100 -28.424600
H -11.570500 -16.013000 -30.335700
N -11.468600 -15.431900 -29.719700
C -10.235200 -15.245200 -29.199400
O -9.959900 -17.428100 -30.993400
N -9.898500 -14.310200 -28.328900
C -9.069400 -16.024200 -29.455300
N -8.953300 -17.161800 -30.339300
O -8.529500 -14.545300 -28.060300
N -8.058800 -15.605400 -28.761100
O -7.899000 -17.773900 -30.362600
