22
Fragment
H -16.515100 -10.473000 -30.957900
N -15.646500 -11.095300 -31.032900
N -15.630800 -12.181900 -31.842700
N -14.710200 -9.031300 -29.002300
N -14.420100 -12.634900 -31.854700
C -14.408700 -10.924400 -30.565100
H -14.065200 -7.585600 -27.748100
C -13.931000 -9.903700 -29.654900
N -13.846400 -8.322300 -28.291200
N -13.611400 -11.871200 -31.058500
C -12.598600 -9.654700 -29.295900
N -12.553900 -8.651800 -28.424600
H -11.570500 -10.911700 -30.335700
N -11.468600 -10.330600 -29.719700
C -10.235200 -10.143900 -29.199400
O -9.959900 -12.326800 -30.993400
N -9.898500 -9.208900 -28.328900
C -9.069400 -10.922900 -29.455300
N -8.953300 -12.060500 -30.339300
O -8.529500 -9.444000 -28.060300
N -8.058800 -10.504100 -28.761100
O -7.899000 -12.672600 -30.362600
9
Fragment
H -19.346000 -9.720000 -29.325500
H -18.929900 -7.525400 -29.861700
H -18.686600 -9.804700 -31.188400
H -18.549700 -7.746800 -28.322700
C -18.405900 -9.431300 -29.433700
C -18.312800 -7.973300 -29.246800
O -17.934500 -9.803200 -30.750300
H -17.862100 -9.888900 -28.745400
H -17.397300 -7.678500 -29.429800
31
Fragment
H -16.515100 -10.473000 -30.957900
N -15.646500 -11.095300 -31.032900
N -15.630800 -12.181900 -31.842700
N -14.710200 -9.031300 -29.002300
N -14.420100 -12.634900 -31.854700
C -14.408700 -10.924400 -30.565100
H -14.065200 -7.585600 -27.748100
C -13.931000 -9.903700 -29.654900
N -13.846400 -8.322300 -28.291200
N -13.611400 -11.871200 -31.058500
C -12.598600 -9.654700 -29.295900
N -12.553900 -8.651800 -28.424600
H -11.570500 -10.911700 -30.335700
N -11.468600 -10.330600 -29.719700
C -10.235200 -10.143900 -29.199400
O -9.959900 -12.326800 -30.993400
N -9.898500 -9.208900 -28.328900
C -9.069400 -10.922900 -29.455300
N -8.953300 -12.060500 -30.339300
O -8.529500 -9.444000 -28.060300
N -8.058800 -10.504100 -28.761100
O -7.899000 -12.672600 -30.362600
H -19.346000 -9.720000 -29.325500
H -18.929900 -7.525400 -29.861700
H -18.686600 -9.804700 -31.188400
H -18.549700 -7.746800 -28.322700
C -18.405900 -9.431300 -29.433700
C -18.312800 -7.973300 -29.246800
O -17.934500 -9.803200 -30.750300
H -17.862100 -9.888900 -28.745400
H -17.397300 -7.678500 -29.429800
