24
Fragment
H -23.654200 -11.975700 -23.755100
O -23.444500 -9.846200 -25.065000
H -23.138900 -9.123200 -25.406600
C -22.766600 -11.807500 -23.974300
C -22.452200 -10.677200 -24.675700
H -22.039300 -13.465300 -23.119700
C -21.799300 -12.698700 -23.588000
C -21.117900 -10.421500 -24.963300
O -20.884100 -9.257700 -25.630400
C -20.470400 -12.468600 -23.889600
H -20.257200 -14.805400 -22.550100
C -20.152300 -11.313700 -24.580100
C -19.547500 -8.827100 -25.737300
H -19.522400 -7.963500 -26.154700
C -19.431400 -14.473500 -22.819200
C -19.386800 -13.344100 -23.496500
H -19.263000 -11.139600 -24.788700
H -19.158500 -8.770400 -24.861900
H -19.050800 -9.454300 -26.267500
H -18.538300 -13.070700 -23.759500
O -18.314500 -16.233100 -21.773300
C -18.231600 -15.214400 -22.480400
O -17.112600 -14.773000 -22.920000
H -16.233000 -15.243900 -22.553000
17
Fragment
H -23.194100 -5.352800 -32.757900
H -23.007700 -7.216800 -31.463600
H -22.849600 -8.563400 -29.771100
C -22.479400 -5.412200 -32.164900
C -22.377200 -6.536800 -31.392300
N -22.088500 -8.664200 -29.446200
N -22.025100 -9.744600 -28.542400
H -21.817400 -9.402100 -27.737400
N -21.626400 -4.408300 -32.120500
C -21.328800 -6.648600 -30.507700
H -21.295900 -10.262800 -28.787200
C -21.100900 -7.789400 -29.577100
C -20.617200 -4.529500 -31.273400
C -20.431000 -5.619300 -30.469600
O -20.050300 -7.895000 -28.959400
H -20.001100 -3.835300 -31.222000
H -19.696900 -5.660400 -29.899900
41
Fragment
H -23.654200 -11.975700 -23.755100
O -23.444500 -9.846200 -25.065000
H -23.138900 -9.123200 -25.406600
C -22.766600 -11.807500 -23.974300
C -22.452200 -10.677200 -24.675700
H -22.039300 -13.465300 -23.119700
C -21.799300 -12.698700 -23.588000
C -21.117900 -10.421500 -24.963300
O -20.884100 -9.257700 -25.630400
C -20.470400 -12.468600 -23.889600
H -20.257200 -14.805400 -22.550100
C -20.152300 -11.313700 -24.580100
C -19.547500 -8.827100 -25.737300
H -19.522400 -7.963500 -26.154700
C -19.431400 -14.473500 -22.819200
C -19.386800 -13.344100 -23.496500
H -19.263000 -11.139600 -24.788700
H -19.158500 -8.770400 -24.861900
H -19.050800 -9.454300 -26.267500
H -18.538300 -13.070700 -23.759500
O -18.314500 -16.233100 -21.773300
C -18.231600 -15.214400 -22.480400
O -17.112600 -14.773000 -22.920000
H -16.233000 -15.243900 -22.553000
H -23.194100 -5.352800 -32.757900
H -23.007700 -7.216800 -31.463600
H -22.849600 -8.563400 -29.771100
C -22.479400 -5.412200 -32.164900
C -22.377200 -6.536800 -31.392300
N -22.088500 -8.664200 -29.446200
N -22.025100 -9.744600 -28.542400
H -21.817400 -9.402100 -27.737400
N -21.626400 -4.408300 -32.120500
C -21.328800 -6.648600 -30.507700
H -21.295900 -10.262800 -28.787200
C -21.100900 -7.789400 -29.577100
C -20.617200 -4.529500 -31.273400
C -20.431000 -5.619300 -30.469600
O -20.050300 -7.895000 -28.959400
H -20.001100 -3.835300 -31.222000
H -19.696900 -5.660400 -29.899900
