17
Fragment
H -5.814000 -24.292900 -17.689200
O -5.677500 -25.191900 -20.113000
H -5.516900 -24.492800 -15.454600
C -5.138000 -24.839700 -17.359100
C -4.956200 -24.974600 -16.020000
C -4.553800 -25.402600 -19.671900
C -4.320500 -25.513600 -18.209400
H -4.285500 -26.070900 -22.053800
N -4.036700 -25.743300 -15.467100
H -3.831900 -24.665300 -22.123500
N -3.604700 -25.558800 -21.861000
N -3.502900 -25.565100 -20.456400
C -3.344400 -26.309400 -17.660000
C -3.254900 -26.389100 -16.293600
H -2.756900 -26.783300 -18.203600
H -2.730100 -25.679200 -20.096700
H -2.596800 -26.936500 -15.931200
14
Fragment
H -4.369600 -25.655000 -10.237200
O -4.362500 -25.613600 -12.733300
H -4.124000 -25.708200 -13.715500
H -3.725100 -26.293300 -8.078200
C -3.669900 -26.163700 -10.578800
C -3.503500 -26.283000 -11.934200
O -2.917400 -26.713100 -8.373400
C -2.799600 -26.797400 -9.728700
C -2.482600 -27.059600 -12.448100
H -2.386600 -27.168600 -13.366800
C -1.760000 -27.543300 -10.219600
C -1.614400 -27.665200 -11.579400
H -1.162900 -27.960000 -9.641500
H -0.910900 -28.169600 -11.918300
31
Fragment
H -5.814000 -24.292900 -17.689200
O -5.677500 -25.191900 -20.113000
H -5.516900 -24.492800 -15.454600
C -5.138000 -24.839700 -17.359100
C -4.956200 -24.974600 -16.020000
C -4.553800 -25.402600 -19.671900
C -4.320500 -25.513600 -18.209400
H -4.285500 -26.070900 -22.053800
N -4.036700 -25.743300 -15.467100
H -3.831900 -24.665300 -22.123500
N -3.604700 -25.558800 -21.861000
N -3.502900 -25.565100 -20.456400
C -3.344400 -26.309400 -17.660000
C -3.254900 -26.389100 -16.293600
H -2.756900 -26.783300 -18.203600
H -2.730100 -25.679200 -20.096700
H -2.596800 -26.936500 -15.931200
H -4.369600 -25.655000 -10.237200
O -4.362500 -25.613600 -12.733300
H -4.124000 -25.708200 -13.715500
H -3.725100 -26.293300 -8.078200
C -3.669900 -26.163700 -10.578800
C -3.503500 -26.283000 -11.934200
O -2.917400 -26.713100 -8.373400
C -2.799600 -26.797400 -9.728700
C -2.482600 -27.059600 -12.448100
H -2.386600 -27.168600 -13.366800
C -1.760000 -27.543300 -10.219600
C -1.614400 -27.665200 -11.579400
H -1.162900 -27.960000 -9.641500
H -0.910900 -28.169600 -11.918300
