20
Fragment
O -12.934300 -7.861100 -19.980600
H -12.615500 -4.185900 -17.247300
H -12.442700 -3.457300 -18.624200
H -12.242400 -2.663800 -17.286400
H -12.154900 -5.854300 -18.727400
C -12.122800 -3.511600 -17.720900
H -11.783100 -9.591200 -21.169000
C -11.696800 -8.020600 -20.145500
C -11.242900 -5.932700 -18.889200
O -11.212700 -9.003500 -20.790700
C -10.755200 -7.028300 -19.599200
O -10.750900 -3.848000 -17.726700
C -10.382900 -4.970800 -18.428400
C -9.394200 -7.139600 -19.826100
H -9.061700 -7.872700 -20.292400
C -9.005200 -5.080200 -18.660600
C -8.529900 -6.171300 -19.365500
H -8.484600 -3.458400 -17.874500
O -8.124300 -4.157700 -18.230500
H -7.617700 -6.251200 -19.530100
20
Fragment
O -15.411700 -0.839200 -19.980600
H -15.092900 2.836000 -17.247300
H -14.920000 3.564600 -18.624200
H -14.719800 4.358100 -17.286400
H -14.632300 1.167600 -18.727400
C -14.600200 3.510300 -17.720900
H -14.260400 -2.569300 -21.169000
C -14.174100 -0.998700 -20.145500
C -13.720200 1.089200 -18.889200
O -13.690100 -1.981600 -20.790700
C -13.232500 -0.006300 -19.599200
O -13.228300 3.174000 -17.726700
C -12.860300 2.051100 -18.428400
C -11.871500 -0.117700 -19.826100
H -11.539000 -0.850800 -20.292400
C -11.482600 1.941700 -18.660600
C -11.007200 0.850600 -19.365500
H -10.961900 3.563500 -17.874500
O -10.601600 2.864200 -18.230500
H -10.095100 0.770700 -19.530100
40
Fragment
O -12.934300 -7.861100 -19.980600
H -12.615500 -4.185900 -17.247300
H -12.442700 -3.457300 -18.624200
H -12.242400 -2.663800 -17.286400
H -12.154900 -5.854300 -18.727400
C -12.122800 -3.511600 -17.720900
H -11.783100 -9.591200 -21.169000
C -11.696800 -8.020600 -20.145500
C -11.242900 -5.932700 -18.889200
O -11.212700 -9.003500 -20.790700
C -10.755200 -7.028300 -19.599200
O -10.750900 -3.848000 -17.726700
C -10.382900 -4.970800 -18.428400
C -9.394200 -7.139600 -19.826100
H -9.061700 -7.872700 -20.292400
C -9.005200 -5.080200 -18.660600
C -8.529900 -6.171300 -19.365500
H -8.484600 -3.458400 -17.874500
O -8.124300 -4.157700 -18.230500
H -7.617700 -6.251200 -19.530100
O -15.411700 -0.839200 -19.980600
H -15.092900 2.836000 -17.247300
H -14.920000 3.564600 -18.624200
H -14.719800 4.358100 -17.286400
H -14.632300 1.167600 -18.727400
C -14.600200 3.510300 -17.720900
H -14.260400 -2.569300 -21.169000
C -14.174100 -0.998700 -20.145500
C -13.720200 1.089200 -18.889200
O -13.690100 -1.981600 -20.790700
C -13.232500 -0.006300 -19.599200
O -13.228300 3.174000 -17.726700
C -12.860300 2.051100 -18.428400
C -11.871500 -0.117700 -19.826100
H -11.539000 -0.850800 -20.292400
C -11.482600 1.941700 -18.660600
C -11.007200 0.850600 -19.365500
H -10.961900 3.563500 -17.874500
O -10.601600 2.864200 -18.230500
H -10.095100 0.770700 -19.530100
