20
Fragment
O -12.934300 -7.861100 -19.980600
H -12.615500 -4.185900 -17.247300
H -12.442700 -3.457300 -18.624200
H -12.242400 -2.663800 -17.286400
H -12.154900 -5.854300 -18.727400
C -12.122800 -3.511600 -17.720900
H -11.783100 -9.591200 -21.169000
C -11.696800 -8.020600 -20.145500
C -11.242900 -5.932700 -18.889200
O -11.212700 -9.003500 -20.790700
C -10.755200 -7.028300 -19.599200
O -10.750900 -3.848000 -17.726700
C -10.382900 -4.970800 -18.428400
C -9.394200 -7.139600 -19.826100
H -9.061700 -7.872700 -20.292400
C -9.005200 -5.080200 -18.660600
C -8.529900 -6.171300 -19.365500
H -8.484600 -3.458400 -17.874500
O -8.124300 -4.157700 -18.230500
H -7.617700 -6.251200 -19.530100
17
Fragment
H -10.241800 -0.994300 -17.371400
H -10.160300 0.840000 -16.009800
H -10.023800 2.246900 -14.429500
C -9.506900 -0.887800 -16.811000
C -9.468200 0.219000 -15.993100
N -9.261900 2.359800 -14.042000
N -9.258500 3.431900 -13.116800
H -9.047700 3.083100 -12.300000
H -8.595400 3.976800 -13.389800
N -8.557300 -1.809500 -16.845700
C -8.392200 0.396800 -15.147000
C -8.241000 1.512200 -14.150600
C -7.519200 -1.627100 -16.039100
C -7.398400 -0.552600 -15.196200
O -7.224300 1.614300 -13.476900
H -6.838700 -2.260300 -16.046100
H -6.644900 -0.465700 -14.658000
37
Fragment
O -12.934300 -7.861100 -19.980600
H -12.615500 -4.185900 -17.247300
H -12.442700 -3.457300 -18.624200
H -12.242400 -2.663800 -17.286400
H -12.154900 -5.854300 -18.727400
C -12.122800 -3.511600 -17.720900
H -11.783100 -9.591200 -21.169000
C -11.696800 -8.020600 -20.145500
C -11.242900 -5.932700 -18.889200
O -11.212700 -9.003500 -20.790700
C -10.755200 -7.028300 -19.599200
O -10.750900 -3.848000 -17.726700
C -10.382900 -4.970800 -18.428400
C -9.394200 -7.139600 -19.826100
H -9.061700 -7.872700 -20.292400
C -9.005200 -5.080200 -18.660600
C -8.529900 -6.171300 -19.365500
H -8.484600 -3.458400 -17.874500
O -8.124300 -4.157700 -18.230500
H -7.617700 -6.251200 -19.530100
H -10.241800 -0.994300 -17.371400
H -10.160300 0.840000 -16.009800
H -10.023800 2.246900 -14.429500
C -9.506900 -0.887800 -16.811000
C -9.468200 0.219000 -15.993100
N -9.261900 2.359800 -14.042000
N -9.258500 3.431900 -13.116800
H -9.047700 3.083100 -12.300000
H -8.595400 3.976800 -13.389800
N -8.557300 -1.809500 -16.845700
C -8.392200 0.396800 -15.147000
C -8.241000 1.512200 -14.150600
C -7.519200 -1.627100 -16.039100
C -7.398400 -0.552600 -15.196200
O -7.224300 1.614300 -13.476900
H -6.838700 -2.260300 -16.046100
H -6.644900 -0.465700 -14.658000
