24
Fragment
H -23.654200 -11.975700 -23.755100
O -23.444500 -9.846200 -25.065000
H -23.138900 -9.123200 -25.406600
C -22.766600 -11.807500 -23.974300
C -22.452200 -10.677200 -24.675700
H -22.039300 -13.465300 -23.119700
C -21.799300 -12.698700 -23.588000
C -21.117900 -10.421500 -24.963300
O -20.884100 -9.257700 -25.630400
C -20.470400 -12.468600 -23.889600
H -20.257200 -14.805400 -22.550100
C -20.152300 -11.313700 -24.580100
C -19.547500 -8.827100 -25.737300
H -19.522400 -7.963500 -26.154700
C -19.431400 -14.473500 -22.819200
C -19.386800 -13.344100 -23.496500
H -19.263000 -11.139600 -24.788700
H -19.158500 -8.770400 -24.861900
H -19.050800 -9.454300 -26.267500
H -18.538300 -13.070700 -23.759500
O -18.314500 -16.233100 -21.773300
C -18.231600 -15.214400 -22.480400
O -17.112600 -14.773000 -22.920000
H -16.233000 -15.243900 -22.553000
24
Fragment
H -18.433300 -19.172500 -23.755100
O -18.223600 -17.043100 -25.065000
H -17.917900 -16.320000 -25.406600
C -17.545700 -19.004300 -23.974300
C -17.231300 -17.874000 -24.675700
H -16.818400 -20.662200 -23.119700
C -16.578400 -19.895500 -23.588000
C -15.897000 -17.618400 -24.963300
O -15.663200 -16.454600 -25.630400
C -15.249400 -19.665400 -23.889600
H -15.036300 -22.002300 -22.550100
C -14.931300 -18.510500 -24.580100
C -14.326600 -16.023900 -25.737300
H -14.301500 -15.160400 -26.154700
C -14.210500 -21.670300 -22.819200
C -14.165900 -20.541000 -23.496500
H -14.042100 -18.336400 -24.788700
H -13.937500 -15.967300 -24.861900
H -13.829800 -16.651200 -26.267500
H -13.317400 -20.267500 -23.759500
O -13.093600 -23.430000 -21.773300
C -13.010700 -22.411300 -22.480400
O -11.891700 -21.969800 -22.920000
H -11.012100 -22.440800 -22.553000
48
Fragment
H -23.654200 -11.975700 -23.755100
O -23.444500 -9.846200 -25.065000
H -23.138900 -9.123200 -25.406600
C -22.766600 -11.807500 -23.974300
C -22.452200 -10.677200 -24.675700
H -22.039300 -13.465300 -23.119700
C -21.799300 -12.698700 -23.588000
C -21.117900 -10.421500 -24.963300
O -20.884100 -9.257700 -25.630400
C -20.470400 -12.468600 -23.889600
H -20.257200 -14.805400 -22.550100
C -20.152300 -11.313700 -24.580100
C -19.547500 -8.827100 -25.737300
H -19.522400 -7.963500 -26.154700
C -19.431400 -14.473500 -22.819200
C -19.386800 -13.344100 -23.496500
H -19.263000 -11.139600 -24.788700
H -19.158500 -8.770400 -24.861900
H -19.050800 -9.454300 -26.267500
H -18.538300 -13.070700 -23.759500
O -18.314500 -16.233100 -21.773300
C -18.231600 -15.214400 -22.480400
O -17.112600 -14.773000 -22.920000
H -16.233000 -15.243900 -22.553000
H -18.433300 -19.172500 -23.755100
O -18.223600 -17.043100 -25.065000
H -17.917900 -16.320000 -25.406600
C -17.545700 -19.004300 -23.974300
C -17.231300 -17.874000 -24.675700
H -16.818400 -20.662200 -23.119700
C -16.578400 -19.895500 -23.588000
C -15.897000 -17.618400 -24.963300
O -15.663200 -16.454600 -25.630400
C -15.249400 -19.665400 -23.889600
H -15.036300 -22.002300 -22.550100
C -14.931300 -18.510500 -24.580100
C -14.326600 -16.023900 -25.737300
H -14.301500 -15.160400 -26.154700
C -14.210500 -21.670300 -22.819200
C -14.165900 -20.541000 -23.496500
H -14.042100 -18.336400 -24.788700
H -13.937500 -15.967300 -24.861900
H -13.829800 -16.651200 -26.267500
H -13.317400 -20.267500 -23.759500
O -13.093600 -23.430000 -21.773300
C -13.010700 -22.411300 -22.480400
O -11.891700 -21.969800 -22.920000
H -11.012100 -22.440800 -22.553000
