24
Fragment
H -23.654200 -11.975700 -23.755100
O -23.444500 -9.846200 -25.065000
H -23.138900 -9.123200 -25.406600
C -22.766600 -11.807500 -23.974300
C -22.452200 -10.677200 -24.675700
H -22.039300 -13.465300 -23.119700
C -21.799300 -12.698700 -23.588000
C -21.117900 -10.421500 -24.963300
O -20.884100 -9.257700 -25.630400
C -20.470400 -12.468600 -23.889600
H -20.257200 -14.805400 -22.550100
C -20.152300 -11.313700 -24.580100
C -19.547500 -8.827100 -25.737300
H -19.522400 -7.963500 -26.154700
C -19.431400 -14.473500 -22.819200
C -19.386800 -13.344100 -23.496500
H -19.263000 -11.139600 -24.788700
H -19.158500 -8.770400 -24.861900
H -19.050800 -9.454300 -26.267500
H -18.538300 -13.070700 -23.759500
O -18.314500 -16.233100 -21.773300
C -18.231600 -15.214400 -22.480400
O -17.112600 -14.773000 -22.920000
H -16.233000 -15.243900 -22.553000
24
Fragment
H -22.276200 -9.838600 -21.370100
O -21.396600 -10.309600 -21.003100
C -20.277600 -9.868100 -21.442700
O -20.194700 -8.849400 -22.149800
H -19.970900 -12.011900 -20.163600
H -19.458500 -15.628200 -17.655600
H -19.350800 -16.312100 -19.061200
H -19.246200 -13.943000 -19.134400
C -19.122400 -11.738400 -20.426600
C -19.077800 -10.609100 -21.103900
H -18.986800 -17.119000 -17.768400
C -18.961700 -16.255500 -18.185800
C -18.357000 -13.768900 -19.343000
H -18.252000 -10.277100 -21.373000
C -18.038900 -12.614000 -20.033500
O -17.625100 -15.824800 -18.292700
C -17.391300 -14.661000 -18.959800
C -16.709900 -12.383900 -20.335100
H -16.469900 -11.617300 -20.803400
C -16.057000 -14.405400 -19.247400
C -15.742600 -13.275100 -19.948800
H -15.370400 -15.959400 -18.516500
O -15.064700 -15.236300 -18.858100
H -14.855100 -13.106900 -20.168000
48
Fragment
H -23.654200 -11.975700 -23.755100
O -23.444500 -9.846200 -25.065000
H -23.138900 -9.123200 -25.406600
C -22.766600 -11.807500 -23.974300
C -22.452200 -10.677200 -24.675700
H -22.039300 -13.465300 -23.119700
C -21.799300 -12.698700 -23.588000
C -21.117900 -10.421500 -24.963300
O -20.884100 -9.257700 -25.630400
C -20.470400 -12.468600 -23.889600
H -20.257200 -14.805400 -22.550100
C -20.152300 -11.313700 -24.580100
C -19.547500 -8.827100 -25.737300
H -19.522400 -7.963500 -26.154700
C -19.431400 -14.473500 -22.819200
C -19.386800 -13.344100 -23.496500
H -19.263000 -11.139600 -24.788700
H -19.158500 -8.770400 -24.861900
H -19.050800 -9.454300 -26.267500
H -18.538300 -13.070700 -23.759500
O -18.314500 -16.233100 -21.773300
C -18.231600 -15.214400 -22.480400
O -17.112600 -14.773000 -22.920000
H -16.233000 -15.243900 -22.553000
H -22.276200 -9.838600 -21.370100
O -21.396600 -10.309600 -21.003100
C -20.277600 -9.868100 -21.442700
O -20.194700 -8.849400 -22.149800
H -19.970900 -12.011900 -20.163600
H -19.458500 -15.628200 -17.655600
H -19.350800 -16.312100 -19.061200
H -19.246200 -13.943000 -19.134400
C -19.122400 -11.738400 -20.426600
C -19.077800 -10.609100 -21.103900
H -18.986800 -17.119000 -17.768400
C -18.961700 -16.255500 -18.185800
C -18.357000 -13.768900 -19.343000
H -18.252000 -10.277100 -21.373000
C -18.038900 -12.614000 -20.033500
O -17.625100 -15.824800 -18.292700
C -17.391300 -14.661000 -18.959800
C -16.709900 -12.383900 -20.335100
H -16.469900 -11.617300 -20.803400
C -16.057000 -14.405400 -19.247400
C -15.742600 -13.275100 -19.948800
H -15.370400 -15.959400 -18.516500
O -15.064700 -15.236300 -18.858100
H -14.855100 -13.106900 -20.168000
