20
Fragment
O -12.934300 -7.861100 -19.980600
H -12.615500 -4.185900 -17.247300
H -12.442700 -3.457300 -18.624200
H -12.242400 -2.663800 -17.286400
H -12.154900 -5.854300 -18.727400
C -12.122800 -3.511600 -17.720900
H -11.783100 -9.591200 -21.169000
C -11.696800 -8.020600 -20.145500
C -11.242900 -5.932700 -18.889200
O -11.212700 -9.003500 -20.790700
C -10.755200 -7.028300 -19.599200
O -10.750900 -3.848000 -17.726700
C -10.382900 -4.970800 -18.428400
C -9.394200 -7.139600 -19.826100
H -9.061700 -7.872700 -20.292400
C -9.005200 -5.080200 -18.660600
C -8.529900 -6.171300 -19.365500
H -8.484600 -3.458400 -17.874500
O -8.124300 -4.157700 -18.230500
H -7.617700 -6.251200 -19.530100
20
Fragment
O -5.620400 -7.861100 -19.980600
H -5.301600 -4.185900 -17.247300
H -5.128800 -3.457300 -18.624200
H -4.928500 -2.663800 -17.286400
H -4.841000 -5.854300 -18.727400
C -4.808900 -3.511600 -17.720900
H -4.469200 -9.591200 -21.169000
C -4.382900 -8.020600 -20.145500
C -3.929000 -5.932700 -18.889200
O -3.898800 -9.003500 -20.790700
C -3.441300 -7.028300 -19.599200
O -3.437000 -3.848000 -17.726700
C -3.069000 -4.970800 -18.428400
C -2.080300 -7.139600 -19.826100
H -1.747800 -7.872700 -20.292400
C -1.691300 -5.080200 -18.660600
C -1.216000 -6.171300 -19.365500
H -1.170700 -3.458400 -17.874500
O -0.810400 -4.157700 -18.230500
H -0.303800 -6.251200 -19.530100
40
Fragment
O -12.934300 -7.861100 -19.980600
H -12.615500 -4.185900 -17.247300
H -12.442700 -3.457300 -18.624200
H -12.242400 -2.663800 -17.286400
H -12.154900 -5.854300 -18.727400
C -12.122800 -3.511600 -17.720900
H -11.783100 -9.591200 -21.169000
C -11.696800 -8.020600 -20.145500
C -11.242900 -5.932700 -18.889200
O -11.212700 -9.003500 -20.790700
C -10.755200 -7.028300 -19.599200
O -10.750900 -3.848000 -17.726700
C -10.382900 -4.970800 -18.428400
C -9.394200 -7.139600 -19.826100
H -9.061700 -7.872700 -20.292400
C -9.005200 -5.080200 -18.660600
C -8.529900 -6.171300 -19.365500
H -8.484600 -3.458400 -17.874500
O -8.124300 -4.157700 -18.230500
H -7.617700 -6.251200 -19.530100
O -5.620400 -7.861100 -19.980600
H -5.301600 -4.185900 -17.247300
H -5.128800 -3.457300 -18.624200
H -4.928500 -2.663800 -17.286400
H -4.841000 -5.854300 -18.727400
C -4.808900 -3.511600 -17.720900
H -4.469200 -9.591200 -21.169000
C -4.382900 -8.020600 -20.145500
C -3.929000 -5.932700 -18.889200
O -3.898800 -9.003500 -20.790700
C -3.441300 -7.028300 -19.599200
O -3.437000 -3.848000 -17.726700
C -3.069000 -4.970800 -18.428400
C -2.080300 -7.139600 -19.826100
H -1.747800 -7.872700 -20.292400
C -1.691300 -5.080200 -18.660600
C -1.216000 -6.171300 -19.365500
H -1.170700 -3.458400 -17.874500
O -0.810400 -4.157700 -18.230500
H -0.303800 -6.251200 -19.530100
