20
Fragment
O -12.934300 -7.861100 -19.980600
H -12.615500 -4.185900 -17.247300
H -12.442700 -3.457300 -18.624200
H -12.242400 -2.663800 -17.286400
H -12.154900 -5.854300 -18.727400
C -12.122800 -3.511600 -17.720900
H -11.783100 -9.591200 -21.169000
C -11.696800 -8.020600 -20.145500
C -11.242900 -5.932700 -18.889200
O -11.212700 -9.003500 -20.790700
C -10.755200 -7.028300 -19.599200
O -10.750900 -3.848000 -17.726700
C -10.382900 -4.970800 -18.428400
C -9.394200 -7.139600 -19.826100
H -9.061700 -7.872700 -20.292400
C -9.005200 -5.080200 -18.660600
C -8.529900 -6.171300 -19.365500
H -8.484600 -3.458400 -17.874500
O -8.124300 -4.157700 -18.230500
H -7.617700 -6.251200 -19.530100
20
Fragment
O -10.457000 -14.883000 -19.980600
H -10.138200 -11.207800 -17.247300
H -9.965300 -10.479200 -18.624200
H -9.765100 -9.685700 -17.286400
H -9.677600 -12.876200 -18.727400
C -9.645500 -10.533500 -17.720900
H -9.305700 -16.613100 -21.169000
C -9.219400 -15.042500 -20.145500
C -8.765500 -12.954600 -18.889200
O -8.735400 -16.025400 -20.790700
C -8.277800 -14.050200 -19.599200
O -8.273600 -10.869900 -17.726700
C -7.905600 -11.992700 -18.428400
C -6.916800 -14.161500 -19.826100
H -6.584400 -14.894700 -20.292400
C -6.527900 -12.102100 -18.660600
C -6.052500 -13.193200 -19.365500
H -6.007200 -10.480300 -17.874500
O -5.646900 -11.179600 -18.230500
H -5.140400 -13.273100 -19.530100
40
Fragment
O -12.934300 -7.861100 -19.980600
H -12.615500 -4.185900 -17.247300
H -12.442700 -3.457300 -18.624200
H -12.242400 -2.663800 -17.286400
H -12.154900 -5.854300 -18.727400
C -12.122800 -3.511600 -17.720900
H -11.783100 -9.591200 -21.169000
C -11.696800 -8.020600 -20.145500
C -11.242900 -5.932700 -18.889200
O -11.212700 -9.003500 -20.790700
C -10.755200 -7.028300 -19.599200
O -10.750900 -3.848000 -17.726700
C -10.382900 -4.970800 -18.428400
C -9.394200 -7.139600 -19.826100
H -9.061700 -7.872700 -20.292400
C -9.005200 -5.080200 -18.660600
C -8.529900 -6.171300 -19.365500
H -8.484600 -3.458400 -17.874500
O -8.124300 -4.157700 -18.230500
H -7.617700 -6.251200 -19.530100
O -10.457000 -14.883000 -19.980600
H -10.138200 -11.207800 -17.247300
H -9.965300 -10.479200 -18.624200
H -9.765100 -9.685700 -17.286400
H -9.677600 -12.876200 -18.727400
C -9.645500 -10.533500 -17.720900
H -9.305700 -16.613100 -21.169000
C -9.219400 -15.042500 -20.145500
C -8.765500 -12.954600 -18.889200
O -8.735400 -16.025400 -20.790700
C -8.277800 -14.050200 -19.599200
O -8.273600 -10.869900 -17.726700
C -7.905600 -11.992700 -18.428400
C -6.916800 -14.161500 -19.826100
H -6.584400 -14.894700 -20.292400
C -6.527900 -12.102100 -18.660600
C -6.052500 -13.193200 -19.365500
H -6.007200 -10.480300 -17.874500
O -5.646900 -11.179600 -18.230500
H -5.140400 -13.273100 -19.530100
