17
Fragment
H -5.814000 -24.292900 -17.689200
O -5.677500 -25.191900 -20.113000
H -5.516900 -24.492800 -15.454600
C -5.138000 -24.839700 -17.359100
C -4.956200 -24.974600 -16.020000
C -4.553800 -25.402600 -19.671900
C -4.320500 -25.513600 -18.209400
H -4.285500 -26.070900 -22.053800
N -4.036700 -25.743300 -15.467100
H -3.831900 -24.665300 -22.123500
N -3.604700 -25.558800 -21.861000
N -3.502900 -25.565100 -20.456400
C -3.344400 -26.309400 -17.660000
C -3.254900 -26.389100 -16.293600
H -2.756900 -26.783300 -18.203600
H -2.730100 -25.679200 -20.096700
H -2.596800 -26.936500 -15.931200
14
Fragment
H -10.904500 -20.187400 -17.140000
H -10.652500 -20.397000 -19.416700
C -10.201100 -20.691800 -17.478800
C -10.055400 -20.813700 -18.838600
H -9.428900 -21.188400 -15.691500
C -9.332900 -21.297400 -16.610100
C -9.015900 -21.559600 -19.329600
O -8.898100 -21.643900 -20.684800
C -8.312000 -22.074000 -17.124000
C -8.145600 -22.193300 -18.479500
H -8.090400 -22.063700 -20.980100
H -7.691500 -22.648800 -15.342800
O -7.453000 -22.743400 -16.324900
H -7.445800 -22.702000 -18.821000
31
Fragment
H -5.814000 -24.292900 -17.689200
O -5.677500 -25.191900 -20.113000
H -5.516900 -24.492800 -15.454600
C -5.138000 -24.839700 -17.359100
C -4.956200 -24.974600 -16.020000
C -4.553800 -25.402600 -19.671900
C -4.320500 -25.513600 -18.209400
H -4.285500 -26.070900 -22.053800
N -4.036700 -25.743300 -15.467100
H -3.831900 -24.665300 -22.123500
N -3.604700 -25.558800 -21.861000
N -3.502900 -25.565100 -20.456400
C -3.344400 -26.309400 -17.660000
C -3.254900 -26.389100 -16.293600
H -2.756900 -26.783300 -18.203600
H -2.730100 -25.679200 -20.096700
H -2.596800 -26.936500 -15.931200
H -10.904500 -20.187400 -17.140000
H -10.652500 -20.397000 -19.416700
C -10.201100 -20.691800 -17.478800
C -10.055400 -20.813700 -18.838600
H -9.428900 -21.188400 -15.691500
C -9.332900 -21.297400 -16.610100
C -9.015900 -21.559600 -19.329600
O -8.898100 -21.643900 -20.684800
C -8.312000 -22.074000 -17.124000
C -8.145600 -22.193300 -18.479500
H -8.090400 -22.063700 -20.980100
H -7.691500 -22.648800 -15.342800
O -7.453000 -22.743400 -16.324900
H -7.445800 -22.702000 -18.821000
