24
Fragment
H -23.654200 -11.975700 -23.755100
O -23.444500 -9.846200 -25.065000
H -23.138900 -9.123200 -25.406600
C -22.766600 -11.807500 -23.974300
C -22.452200 -10.677200 -24.675700
H -22.039300 -13.465300 -23.119700
C -21.799300 -12.698700 -23.588000
C -21.117900 -10.421500 -24.963300
O -20.884100 -9.257700 -25.630400
C -20.470400 -12.468600 -23.889600
H -20.257200 -14.805400 -22.550100
C -20.152300 -11.313700 -24.580100
C -19.547500 -8.827100 -25.737300
H -19.522400 -7.963500 -26.154700
C -19.431400 -14.473500 -22.819200
C -19.386800 -13.344100 -23.496500
H -19.263000 -11.139600 -24.788700
H -19.158500 -8.770400 -24.861900
H -19.050800 -9.454300 -26.267500
H -18.538300 -13.070700 -23.759500
O -18.314500 -16.233100 -21.773300
C -18.231600 -15.214400 -22.480400
O -17.112600 -14.773000 -22.920000
H -16.233000 -15.243900 -22.553000
17
Fragment
H -19.911300 -13.389400 -28.664200
H -19.607100 -15.214500 -27.342100
O -19.557900 -11.154800 -29.604800
C -19.177300 -13.430500 -28.094500
C -18.991000 -14.520200 -27.290700
C -18.507300 -11.260300 -28.987100
H -18.312400 -8.787000 -29.776900
C -18.279400 -12.401200 -28.056500
N -17.981800 -14.641400 -26.443600
H -17.790800 -9.647700 -30.826700
N -17.583100 -9.305200 -30.021700
N -17.519700 -10.385500 -29.117900
C -17.231000 -12.512900 -27.171900
C -17.128800 -13.637500 -26.399200
H -16.758600 -10.486400 -28.793100
H -16.600500 -11.832900 -27.100600
H -16.414100 -13.696900 -25.806300
41
Fragment
H -23.654200 -11.975700 -23.755100
O -23.444500 -9.846200 -25.065000
H -23.138900 -9.123200 -25.406600
C -22.766600 -11.807500 -23.974300
C -22.452200 -10.677200 -24.675700
H -22.039300 -13.465300 -23.119700
C -21.799300 -12.698700 -23.588000
C -21.117900 -10.421500 -24.963300
O -20.884100 -9.257700 -25.630400
C -20.470400 -12.468600 -23.889600
H -20.257200 -14.805400 -22.550100
C -20.152300 -11.313700 -24.580100
C -19.547500 -8.827100 -25.737300
H -19.522400 -7.963500 -26.154700
C -19.431400 -14.473500 -22.819200
C -19.386800 -13.344100 -23.496500
H -19.263000 -11.139600 -24.788700
H -19.158500 -8.770400 -24.861900
H -19.050800 -9.454300 -26.267500
H -18.538300 -13.070700 -23.759500
O -18.314500 -16.233100 -21.773300
C -18.231600 -15.214400 -22.480400
O -17.112600 -14.773000 -22.920000
H -16.233000 -15.243900 -22.553000
H -19.911300 -13.389400 -28.664200
H -19.607100 -15.214500 -27.342100
O -19.557900 -11.154800 -29.604800
C -19.177300 -13.430500 -28.094500
C -18.991000 -14.520200 -27.290700
C -18.507300 -11.260300 -28.987100
H -18.312400 -8.787000 -29.776900
C -18.279400 -12.401200 -28.056500
N -17.981800 -14.641400 -26.443600
H -17.790800 -9.647700 -30.826700
N -17.583100 -9.305200 -30.021700
N -17.519700 -10.385500 -29.117900
C -17.231000 -12.512900 -27.171900
C -17.128800 -13.637500 -26.399200
H -16.758600 -10.486400 -28.793100
H -16.600500 -11.832900 -27.100600
H -16.414100 -13.696900 -25.806300
