20
Fragment
O -12.934300 -7.861100 -19.980600
H -12.615500 -4.185900 -17.247300
H -12.442700 -3.457300 -18.624200
H -12.242400 -2.663800 -17.286400
H -12.154900 -5.854300 -18.727400
C -12.122800 -3.511600 -17.720900
H -11.783100 -9.591200 -21.169000
C -11.696800 -8.020600 -20.145500
C -11.242900 -5.932700 -18.889200
O -11.212700 -9.003500 -20.790700
C -10.755200 -7.028300 -19.599200
O -10.750900 -3.848000 -17.726700
C -10.382900 -4.970800 -18.428400
C -9.394200 -7.139600 -19.826100
H -9.061700 -7.872700 -20.292400
C -9.005200 -5.080200 -18.660600
C -8.529900 -6.171300 -19.365500
H -8.484600 -3.458400 -17.874500
O -8.124300 -4.157700 -18.230500
H -7.617700 -6.251200 -19.530100
20
Fragment
H -18.201200 -12.335400 -22.278300
O -17.694700 -14.428800 -23.577800
H -17.334300 -15.128100 -23.933900
C -17.289100 -12.415200 -22.442900
C -16.813700 -13.506400 -23.147800
H -16.757200 -10.713800 -21.516000
C -16.424700 -11.447000 -21.982300
C -15.436000 -13.615800 -23.379900
O -15.068000 -14.738600 -24.081600
C -15.063700 -11.558300 -22.209200
O -14.606200 -9.583100 -21.017600
C -14.576000 -12.653900 -22.919200
C -14.122100 -10.566000 -21.662900
H -14.035800 -8.995300 -20.639400
C -13.696100 -15.075000 -24.087500
H -13.664000 -12.732300 -23.081000
H -13.576500 -15.922800 -24.522000
H -13.376200 -15.129300 -23.184100
H -13.203400 -14.400700 -24.561000
O -12.884600 -10.725500 -21.827700
40
Fragment
O -12.934300 -7.861100 -19.980600
H -12.615500 -4.185900 -17.247300
H -12.442700 -3.457300 -18.624200
H -12.242400 -2.663800 -17.286400
H -12.154900 -5.854300 -18.727400
C -12.122800 -3.511600 -17.720900
H -11.783100 -9.591200 -21.169000
C -11.696800 -8.020600 -20.145500
C -11.242900 -5.932700 -18.889200
O -11.212700 -9.003500 -20.790700
C -10.755200 -7.028300 -19.599200
O -10.750900 -3.848000 -17.726700
C -10.382900 -4.970800 -18.428400
C -9.394200 -7.139600 -19.826100
H -9.061700 -7.872700 -20.292400
C -9.005200 -5.080200 -18.660600
C -8.529900 -6.171300 -19.365500
H -8.484600 -3.458400 -17.874500
O -8.124300 -4.157700 -18.230500
H -7.617700 -6.251200 -19.530100
H -18.201200 -12.335400 -22.278300
O -17.694700 -14.428800 -23.577800
H -17.334300 -15.128100 -23.933900
C -17.289100 -12.415200 -22.442900
C -16.813700 -13.506400 -23.147800
H -16.757200 -10.713800 -21.516000
C -16.424700 -11.447000 -21.982300
C -15.436000 -13.615800 -23.379900
O -15.068000 -14.738600 -24.081600
C -15.063700 -11.558300 -22.209200
O -14.606200 -9.583100 -21.017600
C -14.576000 -12.653900 -22.919200
C -14.122100 -10.566000 -21.662900
H -14.035800 -8.995300 -20.639400
C -13.696100 -15.075000 -24.087500
H -13.664000 -12.732300 -23.081000
H -13.576500 -15.922800 -24.522000
H -13.376200 -15.129300 -23.184100
H -13.203400 -14.400700 -24.561000
O -12.884600 -10.725500 -21.827700
