24
Fragment
H -23.654200 -11.975700 -23.755100
O -23.444500 -9.846200 -25.065000
H -23.138900 -9.123200 -25.406600
C -22.766600 -11.807500 -23.974300
C -22.452200 -10.677200 -24.675700
H -22.039300 -13.465300 -23.119700
C -21.799300 -12.698700 -23.588000
C -21.117900 -10.421500 -24.963300
O -20.884100 -9.257700 -25.630400
C -20.470400 -12.468600 -23.889600
H -20.257200 -14.805400 -22.550100
C -20.152300 -11.313700 -24.580100
C -19.547500 -8.827100 -25.737300
H -19.522400 -7.963500 -26.154700
C -19.431400 -14.473500 -22.819200
C -19.386800 -13.344100 -23.496500
H -19.263000 -11.139600 -24.788700
H -19.158500 -8.770400 -24.861900
H -19.050800 -9.454300 -26.267500
H -18.538300 -13.070700 -23.759500
O -18.314500 -16.233100 -21.773300
C -18.231600 -15.214400 -22.480400
O -17.112600 -14.773000 -22.920000
H -16.233000 -15.243900 -22.553000
24
Fragment
H -28.875100 -4.778900 -23.755100
O -28.665400 -2.649400 -25.065000
H -28.359800 -1.926400 -25.406600
C -27.987500 -4.610600 -23.974300
C -27.673200 -3.480300 -24.675700
H -27.260300 -6.268500 -23.119700
C -27.020200 -5.501800 -23.588000
C -26.338800 -3.224700 -24.963300
O -26.105000 -2.060900 -25.630400
C -25.691300 -5.271800 -23.889600
H -25.478100 -7.608600 -22.550100
C -25.373200 -4.116900 -24.580100
C -24.768500 -1.630200 -25.737300
H -24.743400 -0.766700 -26.154700
C -24.652400 -7.276600 -22.819200
C -24.607800 -6.147300 -23.496500
H -24.484000 -3.942700 -24.788700
H -24.379400 -1.573600 -24.861900
H -24.271700 -2.257500 -26.267500
H -23.759200 -5.873900 -23.759500
O -23.535400 -9.036300 -21.773300
C -23.452500 -8.017600 -22.480400
O -22.333600 -7.576200 -22.920000
H -21.453900 -8.047100 -22.553000
48
Fragment
H -23.654200 -11.975700 -23.755100
O -23.444500 -9.846200 -25.065000
H -23.138900 -9.123200 -25.406600
C -22.766600 -11.807500 -23.974300
C -22.452200 -10.677200 -24.675700
H -22.039300 -13.465300 -23.119700
C -21.799300 -12.698700 -23.588000
C -21.117900 -10.421500 -24.963300
O -20.884100 -9.257700 -25.630400
C -20.470400 -12.468600 -23.889600
H -20.257200 -14.805400 -22.550100
C -20.152300 -11.313700 -24.580100
C -19.547500 -8.827100 -25.737300
H -19.522400 -7.963500 -26.154700
C -19.431400 -14.473500 -22.819200
C -19.386800 -13.344100 -23.496500
H -19.263000 -11.139600 -24.788700
H -19.158500 -8.770400 -24.861900
H -19.050800 -9.454300 -26.267500
H -18.538300 -13.070700 -23.759500
O -18.314500 -16.233100 -21.773300
C -18.231600 -15.214400 -22.480400
O -17.112600 -14.773000 -22.920000
H -16.233000 -15.243900 -22.553000
H -28.875100 -4.778900 -23.755100
O -28.665400 -2.649400 -25.065000
H -28.359800 -1.926400 -25.406600
C -27.987500 -4.610600 -23.974300
C -27.673200 -3.480300 -24.675700
H -27.260300 -6.268500 -23.119700
C -27.020200 -5.501800 -23.588000
C -26.338800 -3.224700 -24.963300
O -26.105000 -2.060900 -25.630400
C -25.691300 -5.271800 -23.889600
H -25.478100 -7.608600 -22.550100
C -25.373200 -4.116900 -24.580100
C -24.768500 -1.630200 -25.737300
H -24.743400 -0.766700 -26.154700
C -24.652400 -7.276600 -22.819200
C -24.607800 -6.147300 -23.496500
H -24.484000 -3.942700 -24.788700
H -24.379400 -1.573600 -24.861900
H -24.271700 -2.257500 -26.267500
H -23.759200 -5.873900 -23.759500
O -23.535400 -9.036300 -21.773300
C -23.452500 -8.017600 -22.480400
O -22.333600 -7.576200 -22.920000
H -21.453900 -8.047100 -22.553000
