17
Fragment
H -5.814000 -24.292900 -17.689200
O -5.677500 -25.191900 -20.113000
H -5.516900 -24.492800 -15.454600
C -5.138000 -24.839700 -17.359100
C -4.956200 -24.974600 -16.020000
C -4.553800 -25.402600 -19.671900
C -4.320500 -25.513600 -18.209400
H -4.285500 -26.070900 -22.053800
N -4.036700 -25.743300 -15.467100
H -3.831900 -24.665300 -22.123500
N -3.604700 -25.558800 -21.861000
N -3.502900 -25.565100 -20.456400
C -3.344400 -26.309400 -17.660000
C -3.254900 -26.389100 -16.293600
H -2.756900 -26.783300 -18.203600
H -2.730100 -25.679200 -20.096700
H -2.596800 -26.936500 -15.931200
14
Fragment
H -7.746200 -25.655000 -24.766400
O -7.739100 -25.613600 -27.262500
H -7.500600 -25.708200 -28.244600
H -7.101700 -26.293300 -22.607300
C -7.046500 -26.163700 -25.107900
C -6.880100 -26.283000 -26.463400
O -6.293900 -26.713100 -22.902600
C -6.176200 -26.797400 -24.257800
C -5.859200 -27.059600 -26.977300
H -5.763200 -27.168600 -27.895900
C -5.136600 -27.543300 -24.748800
C -4.991000 -27.665200 -26.108600
H -4.539500 -27.960000 -24.170700
H -4.287500 -28.169600 -26.447400
31
Fragment
H -5.814000 -24.292900 -17.689200
O -5.677500 -25.191900 -20.113000
H -5.516900 -24.492800 -15.454600
C -5.138000 -24.839700 -17.359100
C -4.956200 -24.974600 -16.020000
C -4.553800 -25.402600 -19.671900
C -4.320500 -25.513600 -18.209400
H -4.285500 -26.070900 -22.053800
N -4.036700 -25.743300 -15.467100
H -3.831900 -24.665300 -22.123500
N -3.604700 -25.558800 -21.861000
N -3.502900 -25.565100 -20.456400
C -3.344400 -26.309400 -17.660000
C -3.254900 -26.389100 -16.293600
H -2.756900 -26.783300 -18.203600
H -2.730100 -25.679200 -20.096700
H -2.596800 -26.936500 -15.931200
H -7.746200 -25.655000 -24.766400
O -7.739100 -25.613600 -27.262500
H -7.500600 -25.708200 -28.244600
H -7.101700 -26.293300 -22.607300
C -7.046500 -26.163700 -25.107900
C -6.880100 -26.283000 -26.463400
O -6.293900 -26.713100 -22.902600
C -6.176200 -26.797400 -24.257800
C -5.859200 -27.059600 -26.977300
H -5.763200 -27.168600 -27.895900
C -5.136600 -27.543300 -24.748800
C -4.991000 -27.665200 -26.108600
H -4.539500 -27.960000 -24.170700
H -4.287500 -28.169600 -26.447400
