17
Fragment
H -7.665000 -27.616100 -13.798700
H -7.549900 -29.911100 -14.000300
H -7.497600 -23.740200 -11.788100
C -7.328400 -28.141100 -13.082900
C -7.256700 -29.508200 -13.191300
N -7.138100 -23.867600 -12.584400
O -7.130900 -25.611500 -10.506200
C -7.004200 -26.068400 -11.653100
N -6.985500 -25.269900 -12.717500
C -6.899000 -27.542700 -11.907900
N -6.795500 -30.303900 -12.217200
H -6.776200 -25.553000 -13.527800
C -6.394900 -28.356200 -10.901100
C -6.360700 -29.715100 -11.092200
H -6.310400 -23.493900 -12.491600
H -6.077600 -27.976200 -10.089300
H -6.013400 -30.262900 -10.398200
21
Fragment
H -8.105700 -39.146800 -14.706600
O -7.718000 -39.819400 -14.220800
H -7.571200 -41.638400 -13.090500
C -7.216200 -39.306200 -13.052500
O -7.202900 -32.857300 -12.523400
H -7.192500 -37.348500 -13.525900
H -7.190600 -35.295700 -12.908000
O -7.150200 -41.563900 -12.249500
C -6.999500 -37.971400 -12.835700
H -6.995800 -31.860500 -12.320500
C -6.919400 -40.239100 -12.045700
C -6.697900 -35.086700 -12.122700
C -6.497600 -37.511000 -11.608400
C -6.434900 -33.670800 -11.819500
C -6.401400 -39.802000 -10.841200
C -6.282800 -36.088700 -11.355500
H -6.192200 -40.429900 -10.159600
C -6.187400 -38.449000 -10.625400
H -5.825500 -38.157700 -9.797400
H -5.801200 -35.858600 -10.569400
O -5.593700 -33.278400 -11.026300
38
Fragment
H -7.665000 -27.616100 -13.798700
H -7.549900 -29.911100 -14.000300
H -7.497600 -23.740200 -11.788100
C -7.328400 -28.141100 -13.082900
C -7.256700 -29.508200 -13.191300
N -7.138100 -23.867600 -12.584400
O -7.130900 -25.611500 -10.506200
C -7.004200 -26.068400 -11.653100
N -6.985500 -25.269900 -12.717500
C -6.899000 -27.542700 -11.907900
N -6.795500 -30.303900 -12.217200
H -6.776200 -25.553000 -13.527800
C -6.394900 -28.356200 -10.901100
C -6.360700 -29.715100 -11.092200
H -6.310400 -23.493900 -12.491600
H -6.077600 -27.976200 -10.089300
H -6.013400 -30.262900 -10.398200
H -8.105700 -39.146800 -14.706600
O -7.718000 -39.819400 -14.220800
H -7.571200 -41.638400 -13.090500
C -7.216200 -39.306200 -13.052500
O -7.202900 -32.857300 -12.523400
H -7.192500 -37.348500 -13.525900
H -7.190600 -35.295700 -12.908000
O -7.150200 -41.563900 -12.249500
C -6.999500 -37.971400 -12.835700
H -6.995800 -31.860500 -12.320500
C -6.919400 -40.239100 -12.045700
C -6.697900 -35.086700 -12.122700
C -6.497600 -37.511000 -11.608400
C -6.434900 -33.670800 -11.819500
C -6.401400 -39.802000 -10.841200
C -6.282800 -36.088700 -11.355500
H -6.192200 -40.429900 -10.159600
C -6.187400 -38.449000 -10.625400
H -5.825500 -38.157700 -9.797400
H -5.801200 -35.858600 -10.569400
O -5.593700 -33.278400 -11.026300
