17
Fragment
H -7.665000 -27.616100 -13.798700
H -7.549900 -29.911100 -14.000300
H -7.497600 -23.740200 -11.788100
C -7.328400 -28.141100 -13.082900
C -7.256700 -29.508200 -13.191300
N -7.138100 -23.867600 -12.584400
O -7.130900 -25.611500 -10.506200
C -7.004200 -26.068400 -11.653100
N -6.985500 -25.269900 -12.717500
C -6.899000 -27.542700 -11.907900
N -6.795500 -30.303900 -12.217200
H -6.776200 -25.553000 -13.527800
C -6.394900 -28.356200 -10.901100
C -6.360700 -29.715100 -11.092200
H -6.310400 -23.493900 -12.491600
H -6.077600 -27.976200 -10.089300
H -6.013400 -30.262900 -10.398200
17
Fragment
H -4.793800 -31.819100 -8.614800
H -4.729600 -34.105800 -8.923800
H -4.496800 -38.588100 -6.521500
C -4.446500 -32.366900 -7.920800
C -4.412300 -33.725800 -8.111900
H -4.031000 -36.529000 -5.485300
N -4.011700 -31.778100 -6.795800
C -3.908200 -34.539300 -7.105200
N -3.821700 -36.812100 -6.295500
C -3.803000 -36.013600 -7.359900
O -3.676300 -36.470500 -8.506800
N -3.669100 -38.214400 -6.428700
C -3.550500 -32.573800 -5.821800
C -3.478700 -33.940900 -5.930200
H -3.309600 -38.341800 -7.225000
H -3.257300 -32.170900 -5.012800
H -3.142100 -34.465900 -5.214300
34
Fragment
H -7.665000 -27.616100 -13.798700
H -7.549900 -29.911100 -14.000300
H -7.497600 -23.740200 -11.788100
C -7.328400 -28.141100 -13.082900
C -7.256700 -29.508200 -13.191300
N -7.138100 -23.867600 -12.584400
O -7.130900 -25.611500 -10.506200
C -7.004200 -26.068400 -11.653100
N -6.985500 -25.269900 -12.717500
C -6.899000 -27.542700 -11.907900
N -6.795500 -30.303900 -12.217200
H -6.776200 -25.553000 -13.527800
C -6.394900 -28.356200 -10.901100
C -6.360700 -29.715100 -11.092200
H -6.310400 -23.493900 -12.491600
H -6.077600 -27.976200 -10.089300
H -6.013400 -30.262900 -10.398200
H -4.793800 -31.819100 -8.614800
H -4.729600 -34.105800 -8.923800
H -4.496800 -38.588100 -6.521500
C -4.446500 -32.366900 -7.920800
C -4.412300 -33.725800 -8.111900
H -4.031000 -36.529000 -5.485300
N -4.011700 -31.778100 -6.795800
C -3.908200 -34.539300 -7.105200
N -3.821700 -36.812100 -6.295500
C -3.803000 -36.013600 -7.359900
O -3.676300 -36.470500 -8.506800
N -3.669100 -38.214400 -6.428700
C -3.550500 -32.573800 -5.821800
C -3.478700 -33.940900 -5.930200
H -3.309600 -38.341800 -7.225000
H -3.257300 -32.170900 -5.012800
H -3.142100 -34.465900 -5.214300
