17
Fragment
H -7.665000 -27.616100 -13.798700
H -7.549900 -29.911100 -14.000300
H -7.497600 -23.740200 -11.788100
C -7.328400 -28.141100 -13.082900
C -7.256700 -29.508200 -13.191300
N -7.138100 -23.867600 -12.584400
O -7.130900 -25.611500 -10.506200
C -7.004200 -26.068400 -11.653100
N -6.985500 -25.269900 -12.717500
C -6.899000 -27.542700 -11.907900
N -6.795500 -30.303900 -12.217200
H -6.776200 -25.553000 -13.527800
C -6.394900 -28.356200 -10.901100
C -6.360700 -29.715100 -11.092200
H -6.310400 -23.493900 -12.491600
H -6.077600 -27.976200 -10.089300
H -6.013400 -30.262900 -10.398200
17
Fragment
H -6.743300 -24.118900 -18.552000
H -6.628200 -21.823900 -18.753500
H -6.575900 -27.994800 -16.541300
C -6.406700 -23.593900 -17.836100
C -6.335000 -22.226800 -17.944500
N -6.216400 -27.867400 -17.337600
O -6.209200 -26.123500 -15.259500
C -6.082500 -25.666600 -16.406400
N -6.063800 -26.465100 -17.470800
C -5.977300 -24.192300 -16.661100
N -5.873800 -21.431100 -16.970500
H -5.854500 -26.182000 -18.281000
C -5.473200 -23.378800 -15.654400
C -5.439000 -22.019900 -15.845500
H -5.388700 -28.241100 -17.244800
H -5.155900 -23.758800 -14.842500
H -5.091700 -21.472100 -15.151500
34
Fragment
H -7.665000 -27.616100 -13.798700
H -7.549900 -29.911100 -14.000300
H -7.497600 -23.740200 -11.788100
C -7.328400 -28.141100 -13.082900
C -7.256700 -29.508200 -13.191300
N -7.138100 -23.867600 -12.584400
O -7.130900 -25.611500 -10.506200
C -7.004200 -26.068400 -11.653100
N -6.985500 -25.269900 -12.717500
C -6.899000 -27.542700 -11.907900
N -6.795500 -30.303900 -12.217200
H -6.776200 -25.553000 -13.527800
C -6.394900 -28.356200 -10.901100
C -6.360700 -29.715100 -11.092200
H -6.310400 -23.493900 -12.491600
H -6.077600 -27.976200 -10.089300
H -6.013400 -30.262900 -10.398200
H -6.743300 -24.118900 -18.552000
H -6.628200 -21.823900 -18.753500
H -6.575900 -27.994800 -16.541300
C -6.406700 -23.593900 -17.836100
C -6.335000 -22.226800 -17.944500
N -6.216400 -27.867400 -17.337600
O -6.209200 -26.123500 -15.259500
C -6.082500 -25.666600 -16.406400
N -6.063800 -26.465100 -17.470800
C -5.977300 -24.192300 -16.661100
N -5.873800 -21.431100 -16.970500
H -5.854500 -26.182000 -18.281000
C -5.473200 -23.378800 -15.654400
C -5.439000 -22.019900 -15.845500
H -5.388700 -28.241100 -17.244800
H -5.155900 -23.758800 -14.842500
H -5.091700 -21.472100 -15.151500
