17
Fragment
H -7.665000 -27.616100 -13.798700
H -7.549900 -29.911100 -14.000300
H -7.497600 -23.740200 -11.788100
C -7.328400 -28.141100 -13.082900
C -7.256700 -29.508200 -13.191300
N -7.138100 -23.867600 -12.584400
O -7.130900 -25.611500 -10.506200
C -7.004200 -26.068400 -11.653100
N -6.985500 -25.269900 -12.717500
C -6.899000 -27.542700 -11.907900
N -6.795500 -30.303900 -12.217200
H -6.776200 -25.553000 -13.527800
C -6.394900 -28.356200 -10.901100
C -6.360700 -29.715100 -11.092200
H -6.310400 -23.493900 -12.491600
H -6.077600 -27.976200 -10.089300
H -6.013400 -30.262900 -10.398200
21
Fragment
O -4.291800 -22.931400 -12.740000
H -4.084300 -25.511600 -13.197000
H -4.060000 -27.810700 -13.968900
C -3.698100 -28.102000 -13.140900
H -3.693200 -30.082900 -13.606700
C -3.602600 -25.741700 -12.410800
C -3.484100 -29.455000 -12.925100
C -3.450600 -23.323800 -11.946800
C -3.387900 -27.164000 -12.157900
C -3.187600 -24.739700 -11.643600
C -2.966100 -29.892100 -11.720600
H -2.889700 -21.513500 -11.445900
C -2.886000 -27.624400 -10.930600
O -2.735300 -31.216900 -11.516800
H -2.694900 -24.948700 -10.858300
H -2.692900 -27.001500 -10.240400
O -2.682600 -22.510300 -11.242900
C -2.669300 -28.959200 -10.713900
H -2.314300 -31.291400 -10.675800
O -2.167500 -29.472400 -9.545500
H -1.779800 -28.799800 -9.059700
38
Fragment
H -7.665000 -27.616100 -13.798700
H -7.549900 -29.911100 -14.000300
H -7.497600 -23.740200 -11.788100
C -7.328400 -28.141100 -13.082900
C -7.256700 -29.508200 -13.191300
N -7.138100 -23.867600 -12.584400
O -7.130900 -25.611500 -10.506200
C -7.004200 -26.068400 -11.653100
N -6.985500 -25.269900 -12.717500
C -6.899000 -27.542700 -11.907900
N -6.795500 -30.303900 -12.217200
H -6.776200 -25.553000 -13.527800
C -6.394900 -28.356200 -10.901100
C -6.360700 -29.715100 -11.092200
H -6.310400 -23.493900 -12.491600
H -6.077600 -27.976200 -10.089300
H -6.013400 -30.262900 -10.398200
O -4.291800 -22.931400 -12.740000
H -4.084300 -25.511600 -13.197000
H -4.060000 -27.810700 -13.968900
C -3.698100 -28.102000 -13.140900
H -3.693200 -30.082900 -13.606700
C -3.602600 -25.741700 -12.410800
C -3.484100 -29.455000 -12.925100
C -3.450600 -23.323800 -11.946800
C -3.387900 -27.164000 -12.157900
C -3.187600 -24.739700 -11.643600
C -2.966100 -29.892100 -11.720600
H -2.889700 -21.513500 -11.445900
C -2.886000 -27.624400 -10.930600
O -2.735300 -31.216900 -11.516800
H -2.694900 -24.948700 -10.858300
H -2.692900 -27.001500 -10.240400
O -2.682600 -22.510300 -11.242900
C -2.669300 -28.959200 -10.713900
H -2.314300 -31.291400 -10.675800
O -2.167500 -29.472400 -9.545500
H -1.779800 -28.799800 -9.059700
