17
Fragment
H -7.665000 -27.616100 -13.798700
H -7.549900 -29.911100 -14.000300
H -7.497600 -23.740200 -11.788100
C -7.328400 -28.141100 -13.082900
C -7.256700 -29.508200 -13.191300
N -7.138100 -23.867600 -12.584400
O -7.130900 -25.611500 -10.506200
C -7.004200 -26.068400 -11.653100
N -6.985500 -25.269900 -12.717500
C -6.899000 -27.542700 -11.907900
N -6.795500 -30.303900 -12.217200
H -6.776200 -25.553000 -13.527800
C -6.394900 -28.356200 -10.901100
C -6.360700 -29.715100 -11.092200
H -6.310400 -23.493900 -12.491600
H -6.077600 -27.976200 -10.089300
H -6.013400 -30.262900 -10.398200
17
Fragment
H -10.197400 -31.819100 -18.121300
H -10.133200 -34.105800 -18.430300
H -9.900400 -38.588100 -16.028000
C -9.850100 -32.366900 -17.427400
C -9.815900 -33.725800 -17.618400
H -9.434600 -36.529000 -14.991800
N -9.415300 -31.778100 -16.302400
C -9.311800 -34.539300 -16.611700
N -9.225300 -36.812100 -15.802000
C -9.206600 -36.013600 -16.866500
O -9.079900 -36.470500 -18.013300
N -9.072700 -38.214400 -15.935200
C -8.954100 -32.573800 -15.328300
C -8.882300 -33.940900 -15.436700
H -8.713200 -38.341800 -16.731500
H -8.660900 -32.170900 -14.519300
H -8.545700 -34.465900 -14.720900
34
Fragment
H -7.665000 -27.616100 -13.798700
H -7.549900 -29.911100 -14.000300
H -7.497600 -23.740200 -11.788100
C -7.328400 -28.141100 -13.082900
C -7.256700 -29.508200 -13.191300
N -7.138100 -23.867600 -12.584400
O -7.130900 -25.611500 -10.506200
C -7.004200 -26.068400 -11.653100
N -6.985500 -25.269900 -12.717500
C -6.899000 -27.542700 -11.907900
N -6.795500 -30.303900 -12.217200
H -6.776200 -25.553000 -13.527800
C -6.394900 -28.356200 -10.901100
C -6.360700 -29.715100 -11.092200
H -6.310400 -23.493900 -12.491600
H -6.077600 -27.976200 -10.089300
H -6.013400 -30.262900 -10.398200
H -10.197400 -31.819100 -18.121300
H -10.133200 -34.105800 -18.430300
H -9.900400 -38.588100 -16.028000
C -9.850100 -32.366900 -17.427400
C -9.815900 -33.725800 -17.618400
H -9.434600 -36.529000 -14.991800
N -9.415300 -31.778100 -16.302400
C -9.311800 -34.539300 -16.611700
N -9.225300 -36.812100 -15.802000
C -9.206600 -36.013600 -16.866500
O -9.079900 -36.470500 -18.013300
N -9.072700 -38.214400 -15.935200
C -8.954100 -32.573800 -15.328300
C -8.882300 -33.940900 -15.436700
H -8.713200 -38.341800 -16.731500
H -8.660900 -32.170900 -14.519300
H -8.545700 -34.465900 -14.720900
