12
Fragment
H -18.683100 -9.639300 -21.427400
H -17.973000 -9.426900 -19.483100
H -17.750900 -10.041200 -22.234200
C -17.749600 -9.461800 -21.729000
H -17.628400 -8.623000 -21.863900
C -17.104000 -9.422400 -19.317700
H -17.029600 -8.425800 -19.205300
N -16.807100 -9.789400 -20.699900
H -16.464800 -9.882000 -18.729100
H -15.671500 -10.549300 -21.890300
C -15.656100 -10.337800 -20.972400
O -14.792500 -10.597900 -20.127200
28
Fragment
H -14.646500 -4.049900 -17.393200
O -14.002400 -5.720600 -17.880000
H -14.001900 -7.978400 -19.006900
C -13.827500 -4.437400 -17.280800
H -13.387300 -4.436600 -16.348300
H -13.133000 -3.936100 -17.776800
C -13.087400 -7.729600 -18.667000
C -12.887700 -6.513100 -18.030800
H -12.183900 -9.442100 -19.350800
C -12.029000 -8.592700 -18.881200
C -11.624100 -6.166600 -17.590300
H -11.478100 -5.369500 -17.036100
C -10.738100 -8.259700 -18.447400
C -10.545100 -7.044000 -17.809900
H -9.841000 -10.033600 -19.192100
N -9.720700 -9.209300 -18.702700
H -9.559100 -6.749800 -17.551900
C -8.403800 -9.131900 -18.428900
O -8.204000 -11.263000 -19.468500
N -7.880400 -8.109600 -17.799300
C -7.645100 -10.332400 -18.927500
N -6.523700 -8.227100 -17.678900
N -6.294700 -10.286200 -18.735700
N -5.754700 -7.264000 -17.115500
H -5.751200 -11.012000 -19.046600
C -5.741900 -9.211500 -18.108800
N -4.531100 -7.709100 -17.229200
N -4.477100 -8.929400 -17.856200
40
Fragment
H -18.683100 -9.639300 -21.427400
H -17.973000 -9.426900 -19.483100
H -17.750900 -10.041200 -22.234200
C -17.749600 -9.461800 -21.729000
H -17.628400 -8.623000 -21.863900
C -17.104000 -9.422400 -19.317700
H -17.029600 -8.425800 -19.205300
N -16.807100 -9.789400 -20.699900
H -16.464800 -9.882000 -18.729100
H -15.671500 -10.549300 -21.890300
C -15.656100 -10.337800 -20.972400
O -14.792500 -10.597900 -20.127200
H -14.646500 -4.049900 -17.393200
O -14.002400 -5.720600 -17.880000
H -14.001900 -7.978400 -19.006900
C -13.827500 -4.437400 -17.280800
H -13.387300 -4.436600 -16.348300
H -13.133000 -3.936100 -17.776800
C -13.087400 -7.729600 -18.667000
C -12.887700 -6.513100 -18.030800
H -12.183900 -9.442100 -19.350800
C -12.029000 -8.592700 -18.881200
C -11.624100 -6.166600 -17.590300
H -11.478100 -5.369500 -17.036100
C -10.738100 -8.259700 -18.447400
C -10.545100 -7.044000 -17.809900
H -9.841000 -10.033600 -19.192100
N -9.720700 -9.209300 -18.702700
H -9.559100 -6.749800 -17.551900
C -8.403800 -9.131900 -18.428900
O -8.204000 -11.263000 -19.468500
N -7.880400 -8.109600 -17.799300
C -7.645100 -10.332400 -18.927500
N -6.523700 -8.227100 -17.678900
N -6.294700 -10.286200 -18.735700
N -5.754700 -7.264000 -17.115500
H -5.751200 -11.012000 -19.046600
C -5.741900 -9.211500 -18.108800
N -4.531100 -7.709100 -17.229200
N -4.477100 -8.929400 -17.856200
