12
Fragment
H -18.683100 -9.639300 -21.427400
H -17.973000 -9.426900 -19.483100
H -17.750900 -10.041200 -22.234200
C -17.749600 -9.461800 -21.729000
H -17.628400 -8.623000 -21.863900
C -17.104000 -9.422400 -19.317700
H -17.029600 -8.425800 -19.205300
N -16.807100 -9.789400 -20.699900
H -16.464800 -9.882000 -18.729100
H -15.671500 -10.549300 -21.890300
C -15.656100 -10.337800 -20.972400
O -14.792500 -10.597900 -20.127200
28
Fragment
N -24.843900 -12.721400 -15.210800
N -24.789900 -11.501100 -15.837800
C -23.579000 -13.003500 -14.958200
H -23.569700 -14.804000 -14.020400
N -23.566300 -11.056000 -15.951500
N -23.026200 -14.078200 -14.331200
N -22.797300 -12.019100 -15.388000
C -21.675900 -14.124400 -14.139400
N -21.440600 -11.901600 -15.267700
O -21.117000 -15.055000 -13.598500
C -20.917100 -12.923900 -14.638100
H -19.761900 -10.541800 -15.515000
N -19.600200 -13.001300 -14.364300
H -19.479900 -13.825600 -13.874900
C -18.775900 -10.836000 -15.257100
C -18.582900 -12.051700 -14.619600
H -17.842800 -9.161500 -16.030900
C -17.696800 -9.958600 -15.476700
C -17.292000 -12.384700 -14.185700
H -17.137000 -13.234100 -13.716200
C -16.433300 -10.305100 -15.036200
C -16.233600 -11.521600 -14.400000
H -16.187900 -7.728100 -15.290200
H -15.933700 -8.228600 -16.718700
C -15.493400 -8.229400 -15.786200
H -15.319000 -11.770400 -14.060100
O -15.318600 -9.512600 -15.187000
H -14.674400 -7.841900 -15.673700
40
Fragment
H -18.683100 -9.639300 -21.427400
H -17.973000 -9.426900 -19.483100
H -17.750900 -10.041200 -22.234200
C -17.749600 -9.461800 -21.729000
H -17.628400 -8.623000 -21.863900
C -17.104000 -9.422400 -19.317700
H -17.029600 -8.425800 -19.205300
N -16.807100 -9.789400 -20.699900
H -16.464800 -9.882000 -18.729100
H -15.671500 -10.549300 -21.890300
C -15.656100 -10.337800 -20.972400
O -14.792500 -10.597900 -20.127200
N -24.843900 -12.721400 -15.210800
N -24.789900 -11.501100 -15.837800
C -23.579000 -13.003500 -14.958200
H -23.569700 -14.804000 -14.020400
N -23.566300 -11.056000 -15.951500
N -23.026200 -14.078200 -14.331200
N -22.797300 -12.019100 -15.388000
C -21.675900 -14.124400 -14.139400
N -21.440600 -11.901600 -15.267700
O -21.117000 -15.055000 -13.598500
C -20.917100 -12.923900 -14.638100
H -19.761900 -10.541800 -15.515000
N -19.600200 -13.001300 -14.364300
H -19.479900 -13.825600 -13.874900
C -18.775900 -10.836000 -15.257100
C -18.582900 -12.051700 -14.619600
H -17.842800 -9.161500 -16.030900
C -17.696800 -9.958600 -15.476700
C -17.292000 -12.384700 -14.185700
H -17.137000 -13.234100 -13.716200
C -16.433300 -10.305100 -15.036200
C -16.233600 -11.521600 -14.400000
H -16.187900 -7.728100 -15.290200
H -15.933700 -8.228600 -16.718700
C -15.493400 -8.229400 -15.786200
H -15.319000 -11.770400 -14.060100
O -15.318600 -9.512600 -15.187000
H -14.674400 -7.841900 -15.673700
