12
Fragment
H -18.683100 -9.639300 -21.427400
H -17.973000 -9.426900 -19.483100
H -17.750900 -10.041200 -22.234200
C -17.749600 -9.461800 -21.729000
H -17.628400 -8.623000 -21.863900
C -17.104000 -9.422400 -19.317700
H -17.029600 -8.425800 -19.205300
N -16.807100 -9.789400 -20.699900
H -16.464800 -9.882000 -18.729100
H -15.671500 -10.549300 -21.890300
C -15.656100 -10.337800 -20.972400
O -14.792500 -10.597900 -20.127200
28
Fragment
N -30.708100 -6.238600 -21.824200
N -30.654100 -7.458900 -22.451100
C -29.443200 -5.956500 -21.571600
H -29.433900 -4.156000 -20.633800
N -29.430400 -7.904000 -22.564900
N -28.890400 -4.881800 -20.944600
N -28.661500 -6.940900 -22.001400
C -27.540100 -4.835600 -20.752800
N -27.304700 -7.058400 -21.881100
O -26.981200 -3.905000 -20.211800
C -26.781300 -6.036100 -21.251500
H -25.626100 -8.418200 -22.128400
N -25.464400 -5.958700 -20.977700
H -25.344100 -5.134400 -20.488300
C -24.640100 -8.124000 -21.870500
C -24.447100 -6.908300 -21.233000
H -23.707000 -9.798500 -22.644300
C -23.561000 -9.001400 -22.090100
C -23.156200 -6.575300 -20.799100
H -23.001200 -5.725900 -20.329600
C -22.297500 -8.654900 -21.649600
C -22.097700 -7.438400 -21.013400
H -22.052100 -11.231900 -21.903600
H -21.797900 -10.731400 -23.332000
C -21.357600 -10.730600 -22.399600
H -21.183200 -7.189600 -20.673500
O -21.182800 -9.447400 -21.800400
H -20.538600 -11.118100 -22.287100
40
Fragment
H -18.683100 -9.639300 -21.427400
H -17.973000 -9.426900 -19.483100
H -17.750900 -10.041200 -22.234200
C -17.749600 -9.461800 -21.729000
H -17.628400 -8.623000 -21.863900
C -17.104000 -9.422400 -19.317700
H -17.029600 -8.425800 -19.205300
N -16.807100 -9.789400 -20.699900
H -16.464800 -9.882000 -18.729100
H -15.671500 -10.549300 -21.890300
C -15.656100 -10.337800 -20.972400
O -14.792500 -10.597900 -20.127200
N -30.708100 -6.238600 -21.824200
N -30.654100 -7.458900 -22.451100
C -29.443200 -5.956500 -21.571600
H -29.433900 -4.156000 -20.633800
N -29.430400 -7.904000 -22.564900
N -28.890400 -4.881800 -20.944600
N -28.661500 -6.940900 -22.001400
C -27.540100 -4.835600 -20.752800
N -27.304700 -7.058400 -21.881100
O -26.981200 -3.905000 -20.211800
C -26.781300 -6.036100 -21.251500
H -25.626100 -8.418200 -22.128400
N -25.464400 -5.958700 -20.977700
H -25.344100 -5.134400 -20.488300
C -24.640100 -8.124000 -21.870500
C -24.447100 -6.908300 -21.233000
H -23.707000 -9.798500 -22.644300
C -23.561000 -9.001400 -22.090100
C -23.156200 -6.575300 -20.799100
H -23.001200 -5.725900 -20.329600
C -22.297500 -8.654900 -21.649600
C -22.097700 -7.438400 -21.013400
H -22.052100 -11.231900 -21.903600
H -21.797900 -10.731400 -23.332000
C -21.357600 -10.730600 -22.399600
H -21.183200 -7.189600 -20.673500
O -21.182800 -9.447400 -21.800400
H -20.538600 -11.118100 -22.287100
