22
Fragment
O -15.837900 -14.085700 -8.321200
O -15.206100 -12.013500 -8.516200
N -14.992800 -13.220500 -8.622200
H -14.919500 -16.080000 -8.681000
N -14.098000 -16.125500 -8.992600
C -13.769200 -13.668900 -9.093400
H -13.726600 -16.909300 -9.142100
C -13.431600 -15.034700 -9.232100
C -12.676800 -12.831300 -9.522000
O -12.492500 -11.632600 -9.588800
N -12.161100 -15.056900 -9.713100
N -11.709000 -13.758100 -9.918600
O -11.377700 -17.182400 -10.042900
C -11.193300 -15.983700 -10.109700
C -10.438600 -13.780300 -10.399600
H -10.143500 -11.905700 -10.489600
C -10.100900 -15.146100 -10.538300
N -9.772100 -12.689500 -10.639100
H -8.950700 -12.735000 -10.950700
N -8.877300 -15.594500 -11.009500
O -8.664000 -16.801500 -11.115500
O -8.032200 -14.729300 -11.310500
22
Fragment
O -24.057900 -14.085700 -8.321200
O -23.426100 -12.013500 -8.516200
N -23.212800 -13.220500 -8.622200
H -23.139500 -16.080000 -8.681000
N -22.318000 -16.125500 -8.992600
C -21.989200 -13.668900 -9.093400
H -21.946600 -16.909300 -9.142100
C -21.651600 -15.034700 -9.232100
C -20.896800 -12.831300 -9.522000
O -20.712500 -11.632600 -9.588800
N -20.381100 -15.056900 -9.713100
N -19.929000 -13.758100 -9.918600
O -19.597700 -17.182400 -10.042900
C -19.413300 -15.983700 -10.109700
C -18.658600 -13.780300 -10.399600
H -18.363500 -11.905700 -10.489600
C -18.320900 -15.146100 -10.538300
N -17.992100 -12.689500 -10.639100
H -17.170700 -12.735000 -10.950700
N -17.097300 -15.594500 -11.009500
O -16.884000 -16.801500 -11.115500
O -16.252200 -14.729300 -11.310500
44
Fragment
O -15.837900 -14.085700 -8.321200
O -15.206100 -12.013500 -8.516200
N -14.992800 -13.220500 -8.622200
H -14.919500 -16.080000 -8.681000
N -14.098000 -16.125500 -8.992600
C -13.769200 -13.668900 -9.093400
H -13.726600 -16.909300 -9.142100
C -13.431600 -15.034700 -9.232100
C -12.676800 -12.831300 -9.522000
O -12.492500 -11.632600 -9.588800
N -12.161100 -15.056900 -9.713100
N -11.709000 -13.758100 -9.918600
O -11.377700 -17.182400 -10.042900
C -11.193300 -15.983700 -10.109700
C -10.438600 -13.780300 -10.399600
H -10.143500 -11.905700 -10.489600
C -10.100900 -15.146100 -10.538300
N -9.772100 -12.689500 -10.639100
H -8.950700 -12.735000 -10.950700
N -8.877300 -15.594500 -11.009500
O -8.664000 -16.801500 -11.115500
O -8.032200 -14.729300 -11.310500
O -24.057900 -14.085700 -8.321200
O -23.426100 -12.013500 -8.516200
N -23.212800 -13.220500 -8.622200
H -23.139500 -16.080000 -8.681000
N -22.318000 -16.125500 -8.992600
C -21.989200 -13.668900 -9.093400
H -21.946600 -16.909300 -9.142100
C -21.651600 -15.034700 -9.232100
C -20.896800 -12.831300 -9.522000
O -20.712500 -11.632600 -9.588800
N -20.381100 -15.056900 -9.713100
N -19.929000 -13.758100 -9.918600
O -19.597700 -17.182400 -10.042900
C -19.413300 -15.983700 -10.109700
C -18.658600 -13.780300 -10.399600
H -18.363500 -11.905700 -10.489600
C -18.320900 -15.146100 -10.538300
N -17.992100 -12.689500 -10.639100
H -17.170700 -12.735000 -10.950700
N -17.097300 -15.594500 -11.009500
O -16.884000 -16.801500 -11.115500
O -16.252200 -14.729300 -11.310500
