22
Fragment
O -15.837900 -14.085700 -8.321200
O -15.206100 -12.013500 -8.516200
N -14.992800 -13.220500 -8.622200
H -14.919500 -16.080000 -8.681000
N -14.098000 -16.125500 -8.992600
C -13.769200 -13.668900 -9.093400
H -13.726600 -16.909300 -9.142100
C -13.431600 -15.034700 -9.232100
C -12.676800 -12.831300 -9.522000
O -12.492500 -11.632600 -9.588800
N -12.161100 -15.056900 -9.713100
N -11.709000 -13.758100 -9.918600
O -11.377700 -17.182400 -10.042900
C -11.193300 -15.983700 -10.109700
C -10.438600 -13.780300 -10.399600
H -10.143500 -11.905700 -10.489600
C -10.100900 -15.146100 -10.538300
N -9.772100 -12.689500 -10.639100
H -8.950700 -12.735000 -10.950700
N -8.877300 -15.594500 -11.009500
O -8.664000 -16.801500 -11.115500
O -8.032200 -14.729300 -11.310500
22
Fragment
O -24.189500 -19.531800 -5.049300
O -23.557800 -21.604000 -5.244300
N -23.344500 -20.397000 -5.350300
H -23.271100 -17.537500 -5.409100
N -22.449600 -17.492000 -5.720700
C -22.120900 -19.948600 -5.821500
H -22.078200 -16.708200 -5.870100
C -21.783200 -18.582800 -5.960200
C -21.028500 -20.786200 -6.250100
O -20.844100 -21.984900 -6.316800
N -20.512800 -18.560600 -6.441200
N -20.060600 -19.859400 -6.646600
O -19.729300 -16.435100 -6.771000
C -19.545000 -17.633800 -6.837700
C -18.790200 -19.837200 -7.127600
H -18.495200 -21.711800 -7.217700
C -18.452500 -18.471400 -7.266400
N -18.123800 -20.928000 -7.367100
H -17.302300 -20.882500 -7.678700
N -17.228900 -18.023000 -7.737500
O -17.015600 -16.816000 -7.843500
O -16.383900 -18.888200 -8.038500
44
Fragment
O -15.837900 -14.085700 -8.321200
O -15.206100 -12.013500 -8.516200
N -14.992800 -13.220500 -8.622200
H -14.919500 -16.080000 -8.681000
N -14.098000 -16.125500 -8.992600
C -13.769200 -13.668900 -9.093400
H -13.726600 -16.909300 -9.142100
C -13.431600 -15.034700 -9.232100
C -12.676800 -12.831300 -9.522000
O -12.492500 -11.632600 -9.588800
N -12.161100 -15.056900 -9.713100
N -11.709000 -13.758100 -9.918600
O -11.377700 -17.182400 -10.042900
C -11.193300 -15.983700 -10.109700
C -10.438600 -13.780300 -10.399600
H -10.143500 -11.905700 -10.489600
C -10.100900 -15.146100 -10.538300
N -9.772100 -12.689500 -10.639100
H -8.950700 -12.735000 -10.950700
N -8.877300 -15.594500 -11.009500
O -8.664000 -16.801500 -11.115500
O -8.032200 -14.729300 -11.310500
O -24.189500 -19.531800 -5.049300
O -23.557800 -21.604000 -5.244300
N -23.344500 -20.397000 -5.350300
H -23.271100 -17.537500 -5.409100
N -22.449600 -17.492000 -5.720700
C -22.120900 -19.948600 -5.821500
H -22.078200 -16.708200 -5.870100
C -21.783200 -18.582800 -5.960200
C -21.028500 -20.786200 -6.250100
O -20.844100 -21.984900 -6.316800
N -20.512800 -18.560600 -6.441200
N -20.060600 -19.859400 -6.646600
O -19.729300 -16.435100 -6.771000
C -19.545000 -17.633800 -6.837700
C -18.790200 -19.837200 -7.127600
H -18.495200 -21.711800 -7.217700
C -18.452500 -18.471400 -7.266400
N -18.123800 -20.928000 -7.367100
H -17.302300 -20.882500 -7.678700
N -17.228900 -18.023000 -7.737500
O -17.015600 -16.816000 -7.843500
O -16.383900 -18.888200 -8.038500
