17
Fragment
H -15.633400 -5.914900 -21.014400
N -14.858800 -6.534700 -21.253200
N -14.626100 -7.548500 -20.456100
N -13.999500 -6.429400 -22.270700
N -13.562200 -8.181600 -20.933800
C -13.224500 -7.476100 -22.019400
N -12.143800 -7.840200 -22.821400
N -11.928500 -7.243700 -24.046300
H -11.663300 -9.474900 -20.894000
C -11.205000 -8.819100 -22.598200
N -11.122100 -9.567100 -21.511200
C -10.888700 -7.916700 -24.445000
O -10.815700 -6.821800 -26.461400
H -10.464600 -10.214300 -21.477700
N -10.380900 -8.871300 -23.653400
N -10.303200 -7.670600 -25.755000
O -9.332800 -8.347200 -26.062500
17
Fragment
H -15.633400 -10.979000 -21.014400
N -14.858800 -11.598800 -21.253200
N -14.626100 -12.612600 -20.456100
N -13.999500 -11.493500 -22.270700
N -13.562200 -13.245700 -20.933800
C -13.224500 -12.540200 -22.019400
N -12.143800 -12.904300 -22.821400
N -11.928500 -12.307800 -24.046300
H -11.663300 -14.539000 -20.894000
C -11.205000 -13.883200 -22.598200
N -11.122100 -14.631200 -21.511200
C -10.888700 -12.980800 -24.445000
O -10.815700 -11.885900 -26.461400
H -10.464600 -15.278400 -21.477700
N -10.380900 -13.935400 -23.653400
N -10.303200 -12.734700 -25.755000
O -9.332800 -13.411300 -26.062500
34
Fragment
H -15.633400 -5.914900 -21.014400
N -14.858800 -6.534700 -21.253200
N -14.626100 -7.548500 -20.456100
N -13.999500 -6.429400 -22.270700
N -13.562200 -8.181600 -20.933800
C -13.224500 -7.476100 -22.019400
N -12.143800 -7.840200 -22.821400
N -11.928500 -7.243700 -24.046300
H -11.663300 -9.474900 -20.894000
C -11.205000 -8.819100 -22.598200
N -11.122100 -9.567100 -21.511200
C -10.888700 -7.916700 -24.445000
O -10.815700 -6.821800 -26.461400
H -10.464600 -10.214300 -21.477700
N -10.380900 -8.871300 -23.653400
N -10.303200 -7.670600 -25.755000
O -9.332800 -8.347200 -26.062500
H -15.633400 -10.979000 -21.014400
N -14.858800 -11.598800 -21.253200
N -14.626100 -12.612600 -20.456100
N -13.999500 -11.493500 -22.270700
N -13.562200 -13.245700 -20.933800
C -13.224500 -12.540200 -22.019400
N -12.143800 -12.904300 -22.821400
N -11.928500 -12.307800 -24.046300
H -11.663300 -14.539000 -20.894000
C -11.205000 -13.883200 -22.598200
N -11.122100 -14.631200 -21.511200
C -10.888700 -12.980800 -24.445000
O -10.815700 -11.885900 -26.461400
H -10.464600 -15.278400 -21.477700
N -10.380900 -13.935400 -23.653400
N -10.303200 -12.734700 -25.755000
O -9.332800 -13.411300 -26.062500
