17
Fragment
H -15.633400 -5.914900 -21.014400
N -14.858800 -6.534700 -21.253200
N -14.626100 -7.548500 -20.456100
N -13.999500 -6.429400 -22.270700
N -13.562200 -8.181600 -20.933800
C -13.224500 -7.476100 -22.019400
N -12.143800 -7.840200 -22.821400
N -11.928500 -7.243700 -24.046300
H -11.663300 -9.474900 -20.894000
C -11.205000 -8.819100 -22.598200
N -11.122100 -9.567100 -21.511200
C -10.888700 -7.916700 -24.445000
O -10.815700 -6.821800 -26.461400
H -10.464600 -10.214300 -21.477700
N -10.380900 -8.871300 -23.653400
N -10.303200 -7.670600 -25.755000
O -9.332800 -8.347200 -26.062500
17
Fragment
O -20.770800 -1.781000 -19.660700
N -19.800500 -2.457600 -19.968200
N -19.722700 -1.256900 -22.069800
H -19.639000 0.086100 -24.245500
O -19.288000 -3.306400 -19.261800
C -19.215000 -2.211500 -21.278200
N -18.981600 -0.561100 -24.212000
C -18.898700 -1.309100 -23.125000
H -18.440400 -0.653300 -24.829200
N -18.175200 -2.884500 -21.676900
N -17.959900 -2.288000 -22.901800
C -16.879200 -2.652100 -23.703800
N -16.541500 -1.946600 -24.789400
N -16.104200 -3.698800 -23.452500
N -15.477500 -2.579700 -25.267100
N -15.244800 -3.593500 -24.470000
H -14.470200 -4.213300 -24.708800
34
Fragment
H -15.633400 -5.914900 -21.014400
N -14.858800 -6.534700 -21.253200
N -14.626100 -7.548500 -20.456100
N -13.999500 -6.429400 -22.270700
N -13.562200 -8.181600 -20.933800
C -13.224500 -7.476100 -22.019400
N -12.143800 -7.840200 -22.821400
N -11.928500 -7.243700 -24.046300
H -11.663300 -9.474900 -20.894000
C -11.205000 -8.819100 -22.598200
N -11.122100 -9.567100 -21.511200
C -10.888700 -7.916700 -24.445000
O -10.815700 -6.821800 -26.461400
H -10.464600 -10.214300 -21.477700
N -10.380900 -8.871300 -23.653400
N -10.303200 -7.670600 -25.755000
O -9.332800 -8.347200 -26.062500
O -20.770800 -1.781000 -19.660700
N -19.800500 -2.457600 -19.968200
N -19.722700 -1.256900 -22.069800
H -19.639000 0.086100 -24.245500
O -19.288000 -3.306400 -19.261800
C -19.215000 -2.211500 -21.278200
N -18.981600 -0.561100 -24.212000
C -18.898700 -1.309100 -23.125000
H -18.440400 -0.653300 -24.829200
N -18.175200 -2.884500 -21.676900
N -17.959900 -2.288000 -22.901800
C -16.879200 -2.652100 -23.703800
N -16.541500 -1.946600 -24.789400
N -16.104200 -3.698800 -23.452500
N -15.477500 -2.579700 -25.267100
N -15.244800 -3.593500 -24.470000
H -14.470200 -4.213300 -24.708800
