17
Fragment
H -15.633400 -5.914900 -21.014400
N -14.858800 -6.534700 -21.253200
N -14.626100 -7.548500 -20.456100
N -13.999500 -6.429400 -22.270700
N -13.562200 -8.181600 -20.933800
C -13.224500 -7.476100 -22.019400
N -12.143800 -7.840200 -22.821400
N -11.928500 -7.243700 -24.046300
H -11.663300 -9.474900 -20.894000
C -11.205000 -8.819100 -22.598200
N -11.122100 -9.567100 -21.511200
C -10.888700 -7.916700 -24.445000
O -10.815700 -6.821800 -26.461400
H -10.464600 -10.214300 -21.477700
N -10.380900 -8.871300 -23.653400
N -10.303200 -7.670600 -25.755000
O -9.332800 -8.347200 -26.062500
17
Fragment
O -9.940800 -11.909200 -19.660700
N -8.970500 -12.585800 -19.968200
N -8.892700 -11.385100 -22.069800
H -8.809000 -10.042100 -24.245500
O -8.458000 -13.434600 -19.261800
C -8.385000 -12.339700 -21.278200
N -8.151600 -10.689300 -24.212000
C -8.068700 -11.437300 -23.125000
H -7.610400 -10.781500 -24.829200
N -7.345200 -13.012700 -21.676900
N -7.129900 -12.416200 -22.901800
C -6.049200 -12.780300 -23.703800
N -5.711500 -12.074800 -24.789400
N -5.274200 -13.827000 -23.452500
N -4.647500 -12.707900 -25.267100
N -4.414800 -13.721700 -24.470000
H -3.640200 -14.341500 -24.708800
34
Fragment
H -15.633400 -5.914900 -21.014400
N -14.858800 -6.534700 -21.253200
N -14.626100 -7.548500 -20.456100
N -13.999500 -6.429400 -22.270700
N -13.562200 -8.181600 -20.933800
C -13.224500 -7.476100 -22.019400
N -12.143800 -7.840200 -22.821400
N -11.928500 -7.243700 -24.046300
H -11.663300 -9.474900 -20.894000
C -11.205000 -8.819100 -22.598200
N -11.122100 -9.567100 -21.511200
C -10.888700 -7.916700 -24.445000
O -10.815700 -6.821800 -26.461400
H -10.464600 -10.214300 -21.477700
N -10.380900 -8.871300 -23.653400
N -10.303200 -7.670600 -25.755000
O -9.332800 -8.347200 -26.062500
O -9.940800 -11.909200 -19.660700
N -8.970500 -12.585800 -19.968200
N -8.892700 -11.385100 -22.069800
H -8.809000 -10.042100 -24.245500
O -8.458000 -13.434600 -19.261800
C -8.385000 -12.339700 -21.278200
N -8.151600 -10.689300 -24.212000
C -8.068700 -11.437300 -23.125000
H -7.610400 -10.781500 -24.829200
N -7.345200 -13.012700 -21.676900
N -7.129900 -12.416200 -22.901800
C -6.049200 -12.780300 -23.703800
N -5.711500 -12.074800 -24.789400
N -5.274200 -13.827000 -23.452500
N -4.647500 -12.707900 -25.267100
N -4.414800 -13.721700 -24.470000
H -3.640200 -14.341500 -24.708800
