17
Fragment
H -15.633400 -5.914900 -21.014400
N -14.858800 -6.534700 -21.253200
N -14.626100 -7.548500 -20.456100
N -13.999500 -6.429400 -22.270700
N -13.562200 -8.181600 -20.933800
C -13.224500 -7.476100 -22.019400
N -12.143800 -7.840200 -22.821400
N -11.928500 -7.243700 -24.046300
H -11.663300 -9.474900 -20.894000
C -11.205000 -8.819100 -22.598200
N -11.122100 -9.567100 -21.511200
C -10.888700 -7.916700 -24.445000
O -10.815700 -6.821800 -26.461400
H -10.464600 -10.214300 -21.477700
N -10.380900 -8.871300 -23.653400
N -10.303200 -7.670600 -25.755000
O -9.332800 -8.347200 -26.062500
3
Fragment
O -15.354900 -7.723300 -17.619900
H -15.193100 -7.677200 -18.438600
H -15.094900 -6.983400 -17.242200
20
Fragment
H -15.633400 -5.914900 -21.014400
N -14.858800 -6.534700 -21.253200
N -14.626100 -7.548500 -20.456100
N -13.999500 -6.429400 -22.270700
N -13.562200 -8.181600 -20.933800
C -13.224500 -7.476100 -22.019400
N -12.143800 -7.840200 -22.821400
N -11.928500 -7.243700 -24.046300
H -11.663300 -9.474900 -20.894000
C -11.205000 -8.819100 -22.598200
N -11.122100 -9.567100 -21.511200
C -10.888700 -7.916700 -24.445000
O -10.815700 -6.821800 -26.461400
H -10.464600 -10.214300 -21.477700
N -10.380900 -8.871300 -23.653400
N -10.303200 -7.670600 -25.755000
O -9.332800 -8.347200 -26.062500
O -15.354900 -7.723300 -17.619900
H -15.193100 -7.677200 -18.438600
H -15.094900 -6.983400 -17.242200
