17
Fragment
H -15.633400 -5.914900 -21.014400
N -14.858800 -6.534700 -21.253200
N -14.626100 -7.548500 -20.456100
N -13.999500 -6.429400 -22.270700
N -13.562200 -8.181600 -20.933800
C -13.224500 -7.476100 -22.019400
N -12.143800 -7.840200 -22.821400
N -11.928500 -7.243700 -24.046300
H -11.663300 -9.474900 -20.894000
C -11.205000 -8.819100 -22.598200
N -11.122100 -9.567100 -21.511200
C -10.888700 -7.916700 -24.445000
O -10.815700 -6.821800 -26.461400
H -10.464600 -10.214300 -21.477700
N -10.380900 -8.871300 -23.653400
N -10.303200 -7.670600 -25.755000
O -9.332800 -8.347200 -26.062500
17
Fragment
O -7.738100 -10.879200 -27.281200
N -6.767800 -10.202600 -27.588800
N -6.690000 -11.403300 -29.690400
H -6.606300 -12.746300 -31.866000
O -6.255200 -9.353900 -26.882400
C -6.182300 -10.448800 -28.898700
N -5.948900 -12.099100 -31.832500
C -5.865900 -11.351200 -30.745500
H -5.407600 -12.007000 -32.449800
N -5.142500 -9.775700 -29.297500
N -4.927100 -10.372300 -30.522400
C -3.846500 -10.008200 -31.324400
N -3.508700 -10.713600 -32.410000
N -3.071400 -8.961400 -31.073000
N -2.444800 -10.080600 -32.887600
N -2.212100 -9.066800 -32.090500
H -1.437500 -8.446900 -32.329400
34
Fragment
H -15.633400 -5.914900 -21.014400
N -14.858800 -6.534700 -21.253200
N -14.626100 -7.548500 -20.456100
N -13.999500 -6.429400 -22.270700
N -13.562200 -8.181600 -20.933800
C -13.224500 -7.476100 -22.019400
N -12.143800 -7.840200 -22.821400
N -11.928500 -7.243700 -24.046300
H -11.663300 -9.474900 -20.894000
C -11.205000 -8.819100 -22.598200
N -11.122100 -9.567100 -21.511200
C -10.888700 -7.916700 -24.445000
O -10.815700 -6.821800 -26.461400
H -10.464600 -10.214300 -21.477700
N -10.380900 -8.871300 -23.653400
N -10.303200 -7.670600 -25.755000
O -9.332800 -8.347200 -26.062500
O -7.738100 -10.879200 -27.281200
N -6.767800 -10.202600 -27.588800
N -6.690000 -11.403300 -29.690400
H -6.606300 -12.746300 -31.866000
O -6.255200 -9.353900 -26.882400
C -6.182300 -10.448800 -28.898700
N -5.948900 -12.099100 -31.832500
C -5.865900 -11.351200 -30.745500
H -5.407600 -12.007000 -32.449800
N -5.142500 -9.775700 -29.297500
N -4.927100 -10.372300 -30.522400
C -3.846500 -10.008200 -31.324400
N -3.508700 -10.713600 -32.410000
N -3.071400 -8.961400 -31.073000
N -2.444800 -10.080600 -32.887600
N -2.212100 -9.066800 -32.090500
H -1.437500 -8.446900 -32.329400
