17
Fragment
H -15.633400 -5.914900 -21.014400
N -14.858800 -6.534700 -21.253200
N -14.626100 -7.548500 -20.456100
N -13.999500 -6.429400 -22.270700
N -13.562200 -8.181600 -20.933800
C -13.224500 -7.476100 -22.019400
N -12.143800 -7.840200 -22.821400
N -11.928500 -7.243700 -24.046300
H -11.663300 -9.474900 -20.894000
C -11.205000 -8.819100 -22.598200
N -11.122100 -9.567100 -21.511200
C -10.888700 -7.916700 -24.445000
O -10.815700 -6.821800 -26.461400
H -10.464600 -10.214300 -21.477700
N -10.380900 -8.871300 -23.653400
N -10.303200 -7.670600 -25.755000
O -9.332800 -8.347200 -26.062500
17
Fragment
H -13.430700 -11.809500 -28.634900
N -12.656100 -11.189600 -28.873800
N -12.423400 -10.175800 -28.076600
N -11.796800 -11.295000 -29.891200
N -11.359500 -9.542800 -28.554300
C -11.021700 -10.248200 -29.639900
N -9.941100 -9.884100 -30.441900
N -9.725700 -10.480700 -31.666800
H -9.460600 -8.249400 -28.514500
C -9.002300 -8.905200 -30.218800
N -8.919300 -8.157300 -29.131800
C -8.685900 -9.807600 -32.065500
O -8.613000 -10.902500 -34.081900
H -8.261900 -7.510100 -29.098300
N -8.178200 -8.853100 -31.273900
N -8.100400 -10.053800 -33.375500
O -7.130100 -9.377200 -33.683100
34
Fragment
H -15.633400 -5.914900 -21.014400
N -14.858800 -6.534700 -21.253200
N -14.626100 -7.548500 -20.456100
N -13.999500 -6.429400 -22.270700
N -13.562200 -8.181600 -20.933800
C -13.224500 -7.476100 -22.019400
N -12.143800 -7.840200 -22.821400
N -11.928500 -7.243700 -24.046300
H -11.663300 -9.474900 -20.894000
C -11.205000 -8.819100 -22.598200
N -11.122100 -9.567100 -21.511200
C -10.888700 -7.916700 -24.445000
O -10.815700 -6.821800 -26.461400
H -10.464600 -10.214300 -21.477700
N -10.380900 -8.871300 -23.653400
N -10.303200 -7.670600 -25.755000
O -9.332800 -8.347200 -26.062500
H -13.430700 -11.809500 -28.634900
N -12.656100 -11.189600 -28.873800
N -12.423400 -10.175800 -28.076600
N -11.796800 -11.295000 -29.891200
N -11.359500 -9.542800 -28.554300
C -11.021700 -10.248200 -29.639900
N -9.941100 -9.884100 -30.441900
N -9.725700 -10.480700 -31.666800
H -9.460600 -8.249400 -28.514500
C -9.002300 -8.905200 -30.218800
N -8.919300 -8.157300 -29.131800
C -8.685900 -9.807600 -32.065500
O -8.613000 -10.902500 -34.081900
H -8.261900 -7.510100 -29.098300
N -8.178200 -8.853100 -31.273900
N -8.100400 -10.053800 -33.375500
O -7.130100 -9.377200 -33.683100
