15
Fragment
H -23.245000 -5.291500 -19.363000
H -23.048500 -7.177200 -20.822800
H -22.452500 -4.905400 -20.699100
C -22.405200 -5.440400 -19.867300
H -22.345900 -7.472900 -19.411500
C -22.297000 -6.921100 -20.231500
H -21.296700 -5.421400 -18.282800
N -21.263400 -4.970200 -19.053800
N -21.028100 -7.159200 -20.914300
H -20.900700 -7.752200 -21.520300
N -20.096400 -5.378200 -19.715200
C -19.989100 -6.377200 -20.613800
N -18.929600 -4.696200 -19.664000
N -18.749100 -6.363300 -21.106000
N -18.141200 -5.315400 -20.477500
15
Fragment
H -23.245000 -10.425400 -19.363000
H -23.048500 -12.311100 -20.822800
H -22.452500 -10.039300 -20.699100
C -22.405200 -10.574300 -19.867300
H -22.345900 -12.606800 -19.411500
C -22.297000 -12.055000 -20.231500
H -21.296700 -10.555300 -18.282800
N -21.263400 -10.104100 -19.053800
N -21.028100 -12.293100 -20.914300
H -20.900700 -12.886100 -21.520300
N -20.096400 -10.512100 -19.715200
C -19.989100 -11.511100 -20.613800
N -18.929600 -9.830100 -19.664000
N -18.749100 -11.497200 -21.106000
N -18.141200 -10.449300 -20.477500
30
Fragment
H -23.245000 -5.291500 -19.363000
H -23.048500 -7.177200 -20.822800
H -22.452500 -4.905400 -20.699100
C -22.405200 -5.440400 -19.867300
H -22.345900 -7.472900 -19.411500
C -22.297000 -6.921100 -20.231500
H -21.296700 -5.421400 -18.282800
N -21.263400 -4.970200 -19.053800
N -21.028100 -7.159200 -20.914300
H -20.900700 -7.752200 -21.520300
N -20.096400 -5.378200 -19.715200
C -19.989100 -6.377200 -20.613800
N -18.929600 -4.696200 -19.664000
N -18.749100 -6.363300 -21.106000
N -18.141200 -5.315400 -20.477500
H -23.245000 -10.425400 -19.363000
H -23.048500 -12.311100 -20.822800
H -22.452500 -10.039300 -20.699100
C -22.405200 -10.574300 -19.867300
H -22.345900 -12.606800 -19.411500
C -22.297000 -12.055000 -20.231500
H -21.296700 -10.555300 -18.282800
N -21.263400 -10.104100 -19.053800
N -21.028100 -12.293100 -20.914300
H -20.900700 -12.886100 -21.520300
N -20.096400 -10.512100 -19.715200
C -19.989100 -11.511100 -20.613800
N -18.929600 -9.830100 -19.664000
N -18.749100 -11.497200 -21.106000
N -18.141200 -10.449300 -20.477500
