15
Fragment
H -23.245000 -5.291500 -19.363000
H -23.048500 -7.177200 -20.822800
H -22.452500 -4.905400 -20.699100
C -22.405200 -5.440400 -19.867300
H -22.345900 -7.472900 -19.411500
C -22.297000 -6.921100 -20.231500
H -21.296700 -5.421400 -18.282800
N -21.263400 -4.970200 -19.053800
N -21.028100 -7.159200 -20.914300
H -20.900700 -7.752200 -21.520300
N -20.096400 -5.378200 -19.715200
C -19.989100 -6.377200 -20.613800
N -18.929600 -4.696200 -19.664000
N -18.749100 -6.363300 -21.106000
N -18.141200 -5.315400 -20.477500
11
Fragment
O -27.037500 -4.370000 -16.752100
H -26.635600 -6.668900 -15.504500
N -25.904300 -4.549100 -17.188400
N -25.742000 -6.560300 -15.806600
O -25.342700 -3.860200 -18.029900
C -25.168600 -5.663500 -16.645800
O -24.810700 -8.455200 -14.761600
C -24.736600 -7.447000 -15.482000
N -23.914900 -5.862300 -16.885600
N -23.645600 -6.980900 -16.144800
H -22.775700 -7.356900 -16.210800
26
Fragment
H -23.245000 -5.291500 -19.363000
H -23.048500 -7.177200 -20.822800
H -22.452500 -4.905400 -20.699100
C -22.405200 -5.440400 -19.867300
H -22.345900 -7.472900 -19.411500
C -22.297000 -6.921100 -20.231500
H -21.296700 -5.421400 -18.282800
N -21.263400 -4.970200 -19.053800
N -21.028100 -7.159200 -20.914300
H -20.900700 -7.752200 -21.520300
N -20.096400 -5.378200 -19.715200
C -19.989100 -6.377200 -20.613800
N -18.929600 -4.696200 -19.664000
N -18.749100 -6.363300 -21.106000
N -18.141200 -5.315400 -20.477500
O -27.037500 -4.370000 -16.752100
H -26.635600 -6.668900 -15.504500
N -25.904300 -4.549100 -17.188400
N -25.742000 -6.560300 -15.806600
O -25.342700 -3.860200 -18.029900
C -25.168600 -5.663500 -16.645800
O -24.810700 -8.455200 -14.761600
C -24.736600 -7.447000 -15.482000
N -23.914900 -5.862300 -16.885600
N -23.645600 -6.980900 -16.144800
H -22.775700 -7.356900 -16.210800
