15
Fragment
H -23.245000 -5.291500 -19.363000
H -23.048500 -7.177200 -20.822800
H -22.452500 -4.905400 -20.699100
C -22.405200 -5.440400 -19.867300
H -22.345900 -7.472900 -19.411500
C -22.297000 -6.921100 -20.231500
H -21.296700 -5.421400 -18.282800
N -21.263400 -4.970200 -19.053800
N -21.028100 -7.159200 -20.914300
H -20.900700 -7.752200 -21.520300
N -20.096400 -5.378200 -19.715200
C -19.989100 -6.377200 -20.613800
N -18.929600 -4.696200 -19.664000
N -18.749100 -6.363300 -21.106000
N -18.141200 -5.315400 -20.477500
15
Fragment
N -20.726400 -10.086300 -23.669700
N -20.118500 -9.038400 -23.041100
N -19.938000 -10.705500 -24.483100
C -18.878500 -9.024500 -23.533400
N -18.771200 -10.023500 -24.431900
H -17.966900 -7.649500 -22.626900
N -17.839600 -8.242500 -23.232900
N -17.604200 -10.431500 -25.093400
H -17.570900 -9.980300 -25.864400
C -16.570600 -8.480600 -23.915700
H -16.521700 -7.928800 -24.735700
C -16.462400 -9.961300 -24.279900
H -16.415100 -10.496300 -23.448000
H -15.819200 -8.224500 -23.324400
H -15.622600 -10.110200 -24.784200
30
Fragment
H -23.245000 -5.291500 -19.363000
H -23.048500 -7.177200 -20.822800
H -22.452500 -4.905400 -20.699100
C -22.405200 -5.440400 -19.867300
H -22.345900 -7.472900 -19.411500
C -22.297000 -6.921100 -20.231500
H -21.296700 -5.421400 -18.282800
N -21.263400 -4.970200 -19.053800
N -21.028100 -7.159200 -20.914300
H -20.900700 -7.752200 -21.520300
N -20.096400 -5.378200 -19.715200
C -19.989100 -6.377200 -20.613800
N -18.929600 -4.696200 -19.664000
N -18.749100 -6.363300 -21.106000
N -18.141200 -5.315400 -20.477500
N -20.726400 -10.086300 -23.669700
N -20.118500 -9.038400 -23.041100
N -19.938000 -10.705500 -24.483100
C -18.878500 -9.024500 -23.533400
N -18.771200 -10.023500 -24.431900
H -17.966900 -7.649500 -22.626900
N -17.839600 -8.242500 -23.232900
N -17.604200 -10.431500 -25.093400
H -17.570900 -9.980300 -25.864400
C -16.570600 -8.480600 -23.915700
H -16.521700 -7.928800 -24.735700
C -16.462400 -9.961300 -24.279900
H -16.415100 -10.496300 -23.448000
H -15.819200 -8.224500 -23.324400
H -15.622600 -10.110200 -24.784200
