25
Fragment
H -22.204300 -26.739300 -12.905000
H -22.130600 -25.636100 -11.804800
H -21.779500 -25.310200 -13.310000
C -21.716500 -25.988400 -12.612700
H -20.574200 -28.394000 -12.567500
C -20.297900 -26.414600 -12.378500
C -19.898300 -27.720900 -12.416300
H -19.885800 -21.724900 -11.622600
N -19.665800 -24.116800 -12.026200
C -19.300100 -25.425500 -12.093700
N -19.016300 -21.926700 -11.667100
C -18.698700 -23.263100 -11.765000
C -18.571300 -28.122000 -12.185500
O -18.423400 -19.774300 -11.268900
H -18.331300 -29.033400 -12.155800
C -18.114600 -20.936400 -11.380300
C -17.952600 -25.829200 -11.882400
C -17.596600 -27.200600 -11.922900
C -17.347800 -23.651700 -11.582100
N -16.978400 -24.911500 -11.626600
N -16.794000 -21.347600 -11.235800
H -16.703700 -27.416200 -11.798100
C -16.321000 -22.623700 -11.300600
H -16.254800 -20.684400 -10.907100
O -15.142100 -22.893200 -11.131200
25
Fragment
O -26.920300 -29.161200 -15.866700
H -25.807500 -26.952400 -16.090700
C -25.741300 -28.891700 -15.697200
H -25.358600 -33.684200 -15.199800
N -25.268400 -27.615600 -15.762000
N -25.083900 -31.179500 -15.371200
C -24.714500 -29.919700 -15.415800
C -24.465700 -33.468600 -15.074900
C -24.109700 -32.097200 -15.115400
C -23.947800 -27.204400 -15.617600
H -23.731000 -35.301400 -14.842100
O -23.638900 -26.042300 -15.729000
C -23.491100 -34.390000 -14.812400
C -23.363600 -29.531100 -15.232900
N -23.046000 -28.194700 -15.330700
C -22.762300 -31.693500 -14.904200
N -22.396500 -30.384800 -14.971700
H -22.176600 -27.992900 -15.375300
C -22.164100 -33.988900 -14.581600
C -21.764400 -32.682600 -14.619400
H -21.488100 -34.662000 -14.430400
C -20.345900 -32.256400 -14.385100
H -20.282800 -31.578200 -13.687900
H -19.931700 -31.904100 -15.193100
H -19.858000 -33.007300 -14.092900
50
Fragment
H -22.204300 -26.739300 -12.905000
H -22.130600 -25.636100 -11.804800
H -21.779500 -25.310200 -13.310000
C -21.716500 -25.988400 -12.612700
H -20.574200 -28.394000 -12.567500
C -20.297900 -26.414600 -12.378500
C -19.898300 -27.720900 -12.416300
H -19.885800 -21.724900 -11.622600
N -19.665800 -24.116800 -12.026200
C -19.300100 -25.425500 -12.093700
N -19.016300 -21.926700 -11.667100
C -18.698700 -23.263100 -11.765000
C -18.571300 -28.122000 -12.185500
O -18.423400 -19.774300 -11.268900
H -18.331300 -29.033400 -12.155800
C -18.114600 -20.936400 -11.380300
C -17.952600 -25.829200 -11.882400
C -17.596600 -27.200600 -11.922900
C -17.347800 -23.651700 -11.582100
N -16.978400 -24.911500 -11.626600
N -16.794000 -21.347600 -11.235800
H -16.703700 -27.416200 -11.798100
C -16.321000 -22.623700 -11.300600
H -16.254800 -20.684400 -10.907100
O -15.142100 -22.893200 -11.131200
O -26.920300 -29.161200 -15.866700
H -25.807500 -26.952400 -16.090700
C -25.741300 -28.891700 -15.697200
H -25.358600 -33.684200 -15.199800
N -25.268400 -27.615600 -15.762000
N -25.083900 -31.179500 -15.371200
C -24.714500 -29.919700 -15.415800
C -24.465700 -33.468600 -15.074900
C -24.109700 -32.097200 -15.115400
C -23.947800 -27.204400 -15.617600
H -23.731000 -35.301400 -14.842100
O -23.638900 -26.042300 -15.729000
C -23.491100 -34.390000 -14.812400
C -23.363600 -29.531100 -15.232900
N -23.046000 -28.194700 -15.330700
C -22.762300 -31.693500 -14.904200
N -22.396500 -30.384800 -14.971700
H -22.176600 -27.992900 -15.375300
C -22.164100 -33.988900 -14.581600
C -21.764400 -32.682600 -14.619400
H -21.488100 -34.662000 -14.430400
C -20.345900 -32.256400 -14.385100
H -20.282800 -31.578200 -13.687900
H -19.931700 -31.904100 -15.193100
H -19.858000 -33.007300 -14.092900
