40
Fragment
H -15.535200 -21.642200 -44.634100
H -15.496600 -20.108800 -44.178000
H -15.161500 -20.501600 -45.692800
C -15.081900 -20.782300 -44.757500
O -14.281700 -21.424800 -42.306300
O -13.675500 -20.920200 -44.409900
C -13.410000 -21.249500 -43.124900
H -12.967900 -21.096200 -40.457600
C -12.021100 -21.175900 -40.453400
C -11.955100 -21.348500 -42.941700
H -11.857500 -21.065400 -38.462000
H -11.532400 -21.945500 -34.672000
C -11.362200 -21.153100 -39.268300
C -11.323900 -21.319100 -41.708000
O -11.321900 -22.626800 -44.771400
C -11.158300 -21.438200 -44.182400
H -11.007100 -22.206000 -46.706000
H -10.763200 -23.744500 -46.339100
C -10.637900 -22.820900 -46.037600
C -10.577500 -22.166400 -34.672000
O -10.558200 -20.027400 -36.328500
O -10.447700 -20.566800 -44.627200
H -10.444600 -23.038600 -34.243900
O -10.086500 -22.219900 -36.053900
H -10.083700 -21.480900 -34.175300
C -10.057000 -21.051400 -36.712800
C -9.911900 -21.258900 -39.205700
C -9.875400 -21.440900 -41.643000
H -9.680900 -22.641400 -45.923100
H -9.383600 -21.540600 -42.449800
C -9.282300 -21.204000 -37.972000
C -9.209600 -21.418100 -40.467300
H -8.263500 -21.507400 -40.465900
C -7.812100 -21.249500 -37.795800
O -7.527600 -21.074100 -36.492500
O -6.949200 -21.403400 -38.633600
C -6.124800 -21.076800 -36.128400
H -6.039400 -21.015100 -35.154800
H -5.708300 -21.907600 -36.441200
H -5.677300 -20.311000 -36.545600
40
Fragment
H -4.916800 -19.845500 -33.025700
H -4.885800 -18.248900 -33.130100
H -4.554700 -19.141400 -34.416400
C -4.469300 -19.079700 -33.442900
O -3.644900 -18.753100 -30.937700
O -3.066500 -19.082400 -33.078800
C -2.782000 -18.907000 -31.775500
H -2.330600 -18.649100 -29.105400
C -1.384500 -18.738400 -29.104000
C -1.311800 -18.952500 -31.599300
H -1.210500 -18.615900 -27.121400
H -0.913200 -17.515100 -23.648200
C -0.718700 -18.715600 -27.928200
C -0.682200 -18.897600 -30.365500
C -0.537100 -19.105100 -32.858500
H -0.510400 -18.675600 -35.396000
O -0.507600 -17.936600 -33.517400
H -0.149500 -17.117900 -35.327400
O -0.146400 -19.589700 -24.944100
O -0.035900 -20.129100 -33.242800
C -0.016600 -17.990100 -34.899300
C 0.043800 -17.335600 -23.533600
H 0.169100 -16.412000 -23.232200
H 0.413000 -17.950500 -22.865300
C 0.564200 -18.718300 -25.388900
O 0.727800 -17.529700 -24.799800
C 0.729800 -18.837400 -27.863300
C 0.768100 -19.003400 -30.302900
H 0.938300 -18.211000 -34.899300
H 1.263400 -19.091100 -31.109300
C 1.361000 -18.808000 -26.629600
C 1.427000 -18.980600 -29.117900
H 2.373800 -19.060300 -29.113700
C 2.815900 -18.907000 -26.446400
O 3.081400 -19.236300 -25.161400
O 3.687600 -18.731700 -27.265000
C 4.487800 -19.374200 -24.813800
H 4.567400 -19.654900 -23.878500
H 4.902500 -20.047700 -25.393300
H 4.941100 -18.514300 -24.937100
80
Fragment
H -15.535200 -21.642200 -44.634100
H -15.496600 -20.108800 -44.178000
H -15.161500 -20.501600 -45.692800
C -15.081900 -20.782300 -44.757500
O -14.281700 -21.424800 -42.306300
O -13.675500 -20.920200 -44.409900
C -13.410000 -21.249500 -43.124900
H -12.967900 -21.096200 -40.457600
C -12.021100 -21.175900 -40.453400
C -11.955100 -21.348500 -42.941700
H -11.857500 -21.065400 -38.462000
H -11.532400 -21.945500 -34.672000
C -11.362200 -21.153100 -39.268300
C -11.323900 -21.319100 -41.708000
O -11.321900 -22.626800 -44.771400
C -11.158300 -21.438200 -44.182400
H -11.007100 -22.206000 -46.706000
H -10.763200 -23.744500 -46.339100
C -10.637900 -22.820900 -46.037600
C -10.577500 -22.166400 -34.672000
O -10.558200 -20.027400 -36.328500
O -10.447700 -20.566800 -44.627200
H -10.444600 -23.038600 -34.243900
O -10.086500 -22.219900 -36.053900
H -10.083700 -21.480900 -34.175300
C -10.057000 -21.051400 -36.712800
C -9.911900 -21.258900 -39.205700
C -9.875400 -21.440900 -41.643000
H -9.680900 -22.641400 -45.923100
H -9.383600 -21.540600 -42.449800
C -9.282300 -21.204000 -37.972000
C -9.209600 -21.418100 -40.467300
H -8.263500 -21.507400 -40.465900
C -7.812100 -21.249500 -37.795800
O -7.527600 -21.074100 -36.492500
O -6.949200 -21.403400 -38.633600
C -6.124800 -21.076800 -36.128400
H -6.039400 -21.015100 -35.154800
H -5.708300 -21.907600 -36.441200
H -5.677300 -20.311000 -36.545600
H -4.916800 -19.845500 -33.025700
H -4.885800 -18.248900 -33.130100
H -4.554700 -19.141400 -34.416400
C -4.469300 -19.079700 -33.442900
O -3.644900 -18.753100 -30.937700
O -3.066500 -19.082400 -33.078800
C -2.782000 -18.907000 -31.775500
H -2.330600 -18.649100 -29.105400
C -1.384500 -18.738400 -29.104000
C -1.311800 -18.952500 -31.599300
H -1.210500 -18.615900 -27.121400
H -0.913200 -17.515100 -23.648200
C -0.718700 -18.715600 -27.928200
C -0.682200 -18.897600 -30.365500
C -0.537100 -19.105100 -32.858500
H -0.510400 -18.675600 -35.396000
O -0.507600 -17.936600 -33.517400
H -0.149500 -17.117900 -35.327400
O -0.146400 -19.589700 -24.944100
O -0.035900 -20.129100 -33.242800
C -0.016600 -17.990100 -34.899300
C 0.043800 -17.335600 -23.533600
H 0.169100 -16.412000 -23.232200
H 0.413000 -17.950500 -22.865300
C 0.564200 -18.718300 -25.388900
O 0.727800 -17.529700 -24.799800
C 0.729800 -18.837400 -27.863300
C 0.768100 -19.003400 -30.302900
H 0.938300 -18.211000 -34.899300
H 1.263400 -19.091100 -31.109300
C 1.361000 -18.808000 -26.629600
C 1.427000 -18.980600 -29.117900
H 2.373800 -19.060300 -29.113700
C 2.815900 -18.907000 -26.446400
O 3.081400 -19.236300 -25.161400
O 3.687600 -18.731700 -27.265000
C 4.487800 -19.374200 -24.813800
H 4.567400 -19.654900 -23.878500
H 4.902500 -20.047700 -25.393300
H 4.941100 -18.514300 -24.937100
