21
Fragment
H -17.472100 -18.861400 -32.814700
H -16.638500 -19.493800 -31.605000
H -16.584500 -16.699500 -33.876400
C -16.573200 -19.020400 -32.459400
H -16.417800 -17.162700 -31.602600
H -16.061700 -19.562600 -33.093800
C -15.874100 -17.697000 -32.249700
C -15.705500 -16.884300 -33.484400
O -15.408400 -15.672500 -30.166200
H -15.262200 -16.038900 -33.260800
H -15.159000 -17.380300 -34.129300
N -14.533200 -17.918200 -31.644600
N -14.482700 -16.334700 -29.730500
O -13.982600 -16.212500 -28.637700
C -13.914400 -17.363200 -30.591100
N -13.706000 -18.836900 -32.178600
N -12.719900 -17.860900 -30.380900
C -12.656500 -18.742900 -31.378800
O -11.527400 -20.433000 -32.425700
N -11.494300 -19.588000 -31.553400
O -10.551500 -19.395400 -30.806800
10
Fragment
O -17.191700 -11.451300 -37.075600
N -15.989700 -11.495000 -37.262400
N -15.924300 -13.615000 -36.080100
O -15.323800 -10.686400 -37.894200
C -15.285900 -12.609500 -36.667100
H -15.074700 -15.166500 -35.217400
N -14.973300 -14.404800 -35.645900
N -13.980600 -12.697700 -36.621500
C -13.854700 -13.839500 -35.972500
H -13.009800 -14.217400 -35.761400
31
Fragment
H -17.472100 -18.861400 -32.814700
H -16.638500 -19.493800 -31.605000
H -16.584500 -16.699500 -33.876400
C -16.573200 -19.020400 -32.459400
H -16.417800 -17.162700 -31.602600
H -16.061700 -19.562600 -33.093800
C -15.874100 -17.697000 -32.249700
C -15.705500 -16.884300 -33.484400
O -15.408400 -15.672500 -30.166200
H -15.262200 -16.038900 -33.260800
H -15.159000 -17.380300 -34.129300
N -14.533200 -17.918200 -31.644600
N -14.482700 -16.334700 -29.730500
O -13.982600 -16.212500 -28.637700
C -13.914400 -17.363200 -30.591100
N -13.706000 -18.836900 -32.178600
N -12.719900 -17.860900 -30.380900
C -12.656500 -18.742900 -31.378800
O -11.527400 -20.433000 -32.425700
N -11.494300 -19.588000 -31.553400
O -10.551500 -19.395400 -30.806800
O -17.191700 -11.451300 -37.075600
N -15.989700 -11.495000 -37.262400
N -15.924300 -13.615000 -36.080100
O -15.323800 -10.686400 -37.894200
C -15.285900 -12.609500 -36.667100
H -15.074700 -15.166500 -35.217400
N -14.973300 -14.404800 -35.645900
N -13.980600 -12.697700 -36.621500
C -13.854700 -13.839500 -35.972500
H -13.009800 -14.217400 -35.761400
