21
Fragment
H -17.472100 -18.861400 -32.814700
H -16.638500 -19.493800 -31.605000
H -16.584500 -16.699500 -33.876400
C -16.573200 -19.020400 -32.459400
H -16.417800 -17.162700 -31.602600
H -16.061700 -19.562600 -33.093800
C -15.874100 -17.697000 -32.249700
C -15.705500 -16.884300 -33.484400
O -15.408400 -15.672500 -30.166200
H -15.262200 -16.038900 -33.260800
H -15.159000 -17.380300 -34.129300
N -14.533200 -17.918200 -31.644600
N -14.482700 -16.334700 -29.730500
O -13.982600 -16.212500 -28.637700
C -13.914400 -17.363200 -30.591100
N -13.706000 -18.836900 -32.178600
N -12.719900 -17.860900 -30.380900
C -12.656500 -18.742900 -31.378800
O -11.527400 -20.433000 -32.425700
N -11.494300 -19.588000 -31.553400
O -10.551500 -19.395400 -30.806800
21
Fragment
O -13.128500 -25.031400 -30.806800
N -12.185700 -25.224000 -31.553400
O -12.152600 -26.069000 -32.425700
C -11.023500 -24.378900 -31.378800
N -10.960100 -23.496900 -30.380900
N -9.974000 -24.472900 -32.178600
C -9.765600 -22.999200 -30.591100
O -9.697400 -21.848500 -28.637700
N -9.197300 -21.970700 -29.730500
N -9.146800 -23.554200 -31.644600
H -8.521000 -23.016300 -34.129300
H -8.417800 -21.674900 -33.260800
O -8.271600 -21.308500 -30.166200
C -7.974500 -22.520300 -33.484400
C -7.805900 -23.333000 -32.249700
H -7.618300 -25.198600 -33.093800
H -7.262200 -22.798700 -31.602600
C -7.106800 -24.656400 -32.459400
H -7.095500 -22.335500 -33.876400
H -7.041500 -25.129800 -31.605000
H -6.207900 -24.497400 -32.814700
42
Fragment
H -17.472100 -18.861400 -32.814700
H -16.638500 -19.493800 -31.605000
H -16.584500 -16.699500 -33.876400
C -16.573200 -19.020400 -32.459400
H -16.417800 -17.162700 -31.602600
H -16.061700 -19.562600 -33.093800
C -15.874100 -17.697000 -32.249700
C -15.705500 -16.884300 -33.484400
O -15.408400 -15.672500 -30.166200
H -15.262200 -16.038900 -33.260800
H -15.159000 -17.380300 -34.129300
N -14.533200 -17.918200 -31.644600
N -14.482700 -16.334700 -29.730500
O -13.982600 -16.212500 -28.637700
C -13.914400 -17.363200 -30.591100
N -13.706000 -18.836900 -32.178600
N -12.719900 -17.860900 -30.380900
C -12.656500 -18.742900 -31.378800
O -11.527400 -20.433000 -32.425700
N -11.494300 -19.588000 -31.553400
O -10.551500 -19.395400 -30.806800
O -13.128500 -25.031400 -30.806800
N -12.185700 -25.224000 -31.553400
O -12.152600 -26.069000 -32.425700
C -11.023500 -24.378900 -31.378800
N -10.960100 -23.496900 -30.380900
N -9.974000 -24.472900 -32.178600
C -9.765600 -22.999200 -30.591100
O -9.697400 -21.848500 -28.637700
N -9.197300 -21.970700 -29.730500
N -9.146800 -23.554200 -31.644600
H -8.521000 -23.016300 -34.129300
H -8.417800 -21.674900 -33.260800
O -8.271600 -21.308500 -30.166200
C -7.974500 -22.520300 -33.484400
C -7.805900 -23.333000 -32.249700
H -7.618300 -25.198600 -33.093800
H -7.262200 -22.798700 -31.602600
C -7.106800 -24.656400 -32.459400
H -7.095500 -22.335500 -33.876400
H -7.041500 -25.129800 -31.605000
H -6.207900 -24.497400 -32.814700
