21
Fragment
H -17.472100 -18.861400 -32.814700
H -16.638500 -19.493800 -31.605000
H -16.584500 -16.699500 -33.876400
C -16.573200 -19.020400 -32.459400
H -16.417800 -17.162700 -31.602600
H -16.061700 -19.562600 -33.093800
C -15.874100 -17.697000 -32.249700
C -15.705500 -16.884300 -33.484400
O -15.408400 -15.672500 -30.166200
H -15.262200 -16.038900 -33.260800
H -15.159000 -17.380300 -34.129300
N -14.533200 -17.918200 -31.644600
N -14.482700 -16.334700 -29.730500
O -13.982600 -16.212500 -28.637700
C -13.914400 -17.363200 -30.591100
N -13.706000 -18.836900 -32.178600
N -12.719900 -17.860900 -30.380900
C -12.656500 -18.742900 -31.378800
O -11.527400 -20.433000 -32.425700
N -11.494300 -19.588000 -31.553400
O -10.551500 -19.395400 -30.806800
21
Fragment
H -12.736100 -18.861400 -26.835300
H -11.902500 -19.493800 -28.045000
H -11.848500 -16.699500 -25.773600
C -11.837200 -19.020400 -27.190600
H -11.681800 -17.162700 -28.047400
H -11.325700 -19.562600 -26.556200
C -11.138100 -17.697000 -27.400300
C -10.969500 -16.884300 -26.165600
O -10.672400 -15.672500 -29.483800
H -10.526200 -16.038900 -26.389200
H -10.423000 -17.380300 -25.520700
N -9.797200 -17.918200 -28.005400
N -9.746700 -16.334700 -29.919500
O -9.246600 -16.212500 -31.012300
C -9.178400 -17.363200 -29.058900
N -8.970000 -18.836900 -27.471400
N -7.983900 -17.860900 -29.269100
C -7.920500 -18.742900 -28.271200
O -6.791400 -20.433000 -27.224300
N -6.758300 -19.588000 -28.096600
O -5.815500 -19.395400 -28.843200
42
Fragment
H -17.472100 -18.861400 -32.814700
H -16.638500 -19.493800 -31.605000
H -16.584500 -16.699500 -33.876400
C -16.573200 -19.020400 -32.459400
H -16.417800 -17.162700 -31.602600
H -16.061700 -19.562600 -33.093800
C -15.874100 -17.697000 -32.249700
C -15.705500 -16.884300 -33.484400
O -15.408400 -15.672500 -30.166200
H -15.262200 -16.038900 -33.260800
H -15.159000 -17.380300 -34.129300
N -14.533200 -17.918200 -31.644600
N -14.482700 -16.334700 -29.730500
O -13.982600 -16.212500 -28.637700
C -13.914400 -17.363200 -30.591100
N -13.706000 -18.836900 -32.178600
N -12.719900 -17.860900 -30.380900
C -12.656500 -18.742900 -31.378800
O -11.527400 -20.433000 -32.425700
N -11.494300 -19.588000 -31.553400
O -10.551500 -19.395400 -30.806800
H -12.736100 -18.861400 -26.835300
H -11.902500 -19.493800 -28.045000
H -11.848500 -16.699500 -25.773600
C -11.837200 -19.020400 -27.190600
H -11.681800 -17.162700 -28.047400
H -11.325700 -19.562600 -26.556200
C -11.138100 -17.697000 -27.400300
C -10.969500 -16.884300 -26.165600
O -10.672400 -15.672500 -29.483800
H -10.526200 -16.038900 -26.389200
H -10.423000 -17.380300 -25.520700
N -9.797200 -17.918200 -28.005400
N -9.746700 -16.334700 -29.919500
O -9.246600 -16.212500 -31.012300
C -9.178400 -17.363200 -29.058900
N -8.970000 -18.836900 -27.471400
N -7.983900 -17.860900 -29.269100
C -7.920500 -18.742900 -28.271200
O -6.791400 -20.433000 -27.224300
N -6.758300 -19.588000 -28.096600
O -5.815500 -19.395400 -28.843200
