31
Fragment
H -24.427200 -8.725200 -14.335900
O -23.968200 -8.205200 -12.342700
H -23.726500 -7.064800 -14.016200
C -23.664300 -8.086800 -13.722400
H -23.610800 -11.410900 -15.108700
H -23.534800 -7.461700 -11.877800
O -22.732500 -11.351300 -15.491700
H -22.487400 -10.292900 -12.950300
C -22.331000 -8.693400 -14.071400
H -22.206700 -8.692100 -15.108700
H -22.186000 -9.353600 -10.558700
C -21.982600 -10.091800 -13.507200
C -21.732700 -11.220400 -14.477100
H -21.625700 -12.039300 -13.929600
O -21.244200 -8.074300 -13.302700
C -21.161400 -9.478000 -10.466800
H -20.894300 -11.053700 -14.942100
C -20.716500 -9.395900 -12.972300
N -20.487900 -9.526900 -9.339000
N -20.357200 -9.499800 -11.585300
H -19.846300 -9.671100 -13.569800
C -19.155400 -9.566000 -9.740700
C -19.058700 -9.554000 -11.123000
H -18.599500 -9.472700 -7.141300
C -17.940500 -9.606300 -9.022600
N -17.937100 -9.614200 -11.856400
N -17.856200 -9.597700 -7.687600
H -17.224900 -9.915900 -7.321200
C -16.864500 -9.677700 -11.073000
N -16.793500 -9.628800 -9.727400
H -15.900000 -9.810000 -11.604600
31
Fragment
H -33.315900 -6.502500 -15.042100
N -32.422500 -6.321300 -16.919300
C -32.351400 -6.370200 -15.573700
H -31.991100 -6.608400 -19.325500
N -31.359800 -6.290200 -18.959100
N -31.278900 -6.306700 -14.790200
C -31.275400 -6.298800 -17.624100
H -30.616400 -6.165200 -19.505400
C -30.157200 -6.246500 -15.523700
C -30.060600 -6.258500 -16.906000
H -29.369700 -6.363600 -13.076900
N -28.858700 -6.192300 -15.061400
N -28.728100 -6.219400 -17.307700
C -28.499400 -6.088400 -13.674400
H -28.321700 -7.746200 -11.704600
C -28.054600 -6.170500 -16.179900
O -27.971800 -4.766800 -13.344000
H -27.590300 -8.731800 -12.717100
C -27.483300 -7.912900 -12.169500
C -27.233400 -6.784300 -13.139500
H -27.030000 -6.046100 -16.087900
H -27.009200 -5.384600 -11.538000
C -26.885000 -5.385900 -12.575200
H -26.728600 -6.985400 -13.696400
O -26.483400 -8.043800 -11.155000
H -25.681200 -4.154200 -14.768900
H -25.605200 -8.103400 -11.538000
C -25.551700 -4.779300 -12.924300
H -25.489500 -3.757300 -12.630500
O -25.247700 -4.897700 -14.303900
H -24.788800 -5.417700 -12.310800
62
Fragment
H -24.427200 -8.725200 -14.335900
O -23.968200 -8.205200 -12.342700
H -23.726500 -7.064800 -14.016200
C -23.664300 -8.086800 -13.722400
H -23.610800 -11.410900 -15.108700
H -23.534800 -7.461700 -11.877800
O -22.732500 -11.351300 -15.491700
H -22.487400 -10.292900 -12.950300
C -22.331000 -8.693400 -14.071400
H -22.206700 -8.692100 -15.108700
H -22.186000 -9.353600 -10.558700
C -21.982600 -10.091800 -13.507200
C -21.732700 -11.220400 -14.477100
H -21.625700 -12.039300 -13.929600
O -21.244200 -8.074300 -13.302700
C -21.161400 -9.478000 -10.466800
H -20.894300 -11.053700 -14.942100
C -20.716500 -9.395900 -12.972300
N -20.487900 -9.526900 -9.339000
N -20.357200 -9.499800 -11.585300
H -19.846300 -9.671100 -13.569800
C -19.155400 -9.566000 -9.740700
C -19.058700 -9.554000 -11.123000
H -18.599500 -9.472700 -7.141300
C -17.940500 -9.606300 -9.022600
N -17.937100 -9.614200 -11.856400
N -17.856200 -9.597700 -7.687600
H -17.224900 -9.915900 -7.321200
C -16.864500 -9.677700 -11.073000
N -16.793500 -9.628800 -9.727400
H -15.900000 -9.810000 -11.604600
H -33.315900 -6.502500 -15.042100
N -32.422500 -6.321300 -16.919300
C -32.351400 -6.370200 -15.573700
H -31.991100 -6.608400 -19.325500
N -31.359800 -6.290200 -18.959100
N -31.278900 -6.306700 -14.790200
C -31.275400 -6.298800 -17.624100
H -30.616400 -6.165200 -19.505400
C -30.157200 -6.246500 -15.523700
C -30.060600 -6.258500 -16.906000
H -29.369700 -6.363600 -13.076900
N -28.858700 -6.192300 -15.061400
N -28.728100 -6.219400 -17.307700
C -28.499400 -6.088400 -13.674400
H -28.321700 -7.746200 -11.704600
C -28.054600 -6.170500 -16.179900
O -27.971800 -4.766800 -13.344000
H -27.590300 -8.731800 -12.717100
C -27.483300 -7.912900 -12.169500
C -27.233400 -6.784300 -13.139500
H -27.030000 -6.046100 -16.087900
H -27.009200 -5.384600 -11.538000
C -26.885000 -5.385900 -12.575200
H -26.728600 -6.985400 -13.696400
O -26.483400 -8.043800 -11.155000
H -25.681200 -4.154200 -14.768900
H -25.605200 -8.103400 -11.538000
C -25.551700 -4.779300 -12.924300
H -25.489500 -3.757300 -12.630500
O -25.247700 -4.897700 -14.303900
H -24.788800 -5.417700 -12.310800
