31
Fragment
H -24.427200 -8.725200 -14.335900
O -23.968200 -8.205200 -12.342700
H -23.726500 -7.064800 -14.016200
C -23.664300 -8.086800 -13.722400
H -23.610800 -11.410900 -15.108700
H -23.534800 -7.461700 -11.877800
O -22.732500 -11.351300 -15.491700
H -22.487400 -10.292900 -12.950300
C -22.331000 -8.693400 -14.071400
H -22.206700 -8.692100 -15.108700
H -22.186000 -9.353600 -10.558700
C -21.982600 -10.091800 -13.507200
C -21.732700 -11.220400 -14.477100
H -21.625700 -12.039300 -13.929600
O -21.244200 -8.074300 -13.302700
C -21.161400 -9.478000 -10.466800
H -20.894300 -11.053700 -14.942100
C -20.716500 -9.395900 -12.972300
N -20.487900 -9.526900 -9.339000
N -20.357200 -9.499800 -11.585300
H -19.846300 -9.671100 -13.569800
C -19.155400 -9.566000 -9.740700
C -19.058700 -9.554000 -11.123000
H -18.599500 -9.472700 -7.141300
C -17.940500 -9.606300 -9.022600
N -17.937100 -9.614200 -11.856400
N -17.856200 -9.597700 -7.687600
H -17.224900 -9.915900 -7.321200
C -16.864500 -9.677700 -11.073000
N -16.793500 -9.628800 -9.727400
H -15.900000 -9.810000 -11.604600
31
Fragment
H -21.012000 -6.502500 -8.380400
N -20.118500 -6.321300 -10.257600
C -20.047400 -6.370200 -8.912000
H -19.687100 -6.608400 -12.663800
N -19.055800 -6.290200 -12.297400
N -18.974900 -6.306700 -8.128600
C -18.971400 -6.298800 -10.962400
H -18.312500 -6.165200 -12.843700
C -17.853200 -6.246500 -8.862000
C -17.756600 -6.258500 -10.244300
H -17.065700 -6.363600 -6.415200
N -16.554700 -6.192300 -8.399700
N -16.424100 -6.219400 -10.646000
C -16.195400 -6.088400 -7.012700
H -16.017700 -7.746200 -5.042900
C -15.750600 -6.170500 -9.518200
O -15.667800 -4.766800 -6.682300
H -15.286300 -8.731800 -6.055500
C -15.179300 -7.912900 -5.507900
C -14.929400 -6.784300 -6.477800
H -14.726000 -6.046100 -9.426300
H -14.705200 -5.384600 -4.876300
C -14.581000 -5.385900 -5.913600
H -14.424600 -6.985400 -7.034700
O -14.179500 -8.043800 -4.493300
H -13.377200 -4.154200 -8.107300
H -13.301200 -8.103400 -4.876300
C -13.247700 -4.779300 -6.262600
H -13.185500 -3.757300 -5.968900
O -12.943700 -4.897700 -7.642300
H -12.484800 -5.417700 -5.649100
62
Fragment
H -24.427200 -8.725200 -14.335900
O -23.968200 -8.205200 -12.342700
H -23.726500 -7.064800 -14.016200
C -23.664300 -8.086800 -13.722400
H -23.610800 -11.410900 -15.108700
H -23.534800 -7.461700 -11.877800
O -22.732500 -11.351300 -15.491700
H -22.487400 -10.292900 -12.950300
C -22.331000 -8.693400 -14.071400
H -22.206700 -8.692100 -15.108700
H -22.186000 -9.353600 -10.558700
C -21.982600 -10.091800 -13.507200
C -21.732700 -11.220400 -14.477100
H -21.625700 -12.039300 -13.929600
O -21.244200 -8.074300 -13.302700
C -21.161400 -9.478000 -10.466800
H -20.894300 -11.053700 -14.942100
C -20.716500 -9.395900 -12.972300
N -20.487900 -9.526900 -9.339000
N -20.357200 -9.499800 -11.585300
H -19.846300 -9.671100 -13.569800
C -19.155400 -9.566000 -9.740700
C -19.058700 -9.554000 -11.123000
H -18.599500 -9.472700 -7.141300
C -17.940500 -9.606300 -9.022600
N -17.937100 -9.614200 -11.856400
N -17.856200 -9.597700 -7.687600
H -17.224900 -9.915900 -7.321200
C -16.864500 -9.677700 -11.073000
N -16.793500 -9.628800 -9.727400
H -15.900000 -9.810000 -11.604600
H -21.012000 -6.502500 -8.380400
N -20.118500 -6.321300 -10.257600
C -20.047400 -6.370200 -8.912000
H -19.687100 -6.608400 -12.663800
N -19.055800 -6.290200 -12.297400
N -18.974900 -6.306700 -8.128600
C -18.971400 -6.298800 -10.962400
H -18.312500 -6.165200 -12.843700
C -17.853200 -6.246500 -8.862000
C -17.756600 -6.258500 -10.244300
H -17.065700 -6.363600 -6.415200
N -16.554700 -6.192300 -8.399700
N -16.424100 -6.219400 -10.646000
C -16.195400 -6.088400 -7.012700
H -16.017700 -7.746200 -5.042900
C -15.750600 -6.170500 -9.518200
O -15.667800 -4.766800 -6.682300
H -15.286300 -8.731800 -6.055500
C -15.179300 -7.912900 -5.507900
C -14.929400 -6.784300 -6.477800
H -14.726000 -6.046100 -9.426300
H -14.705200 -5.384600 -4.876300
C -14.581000 -5.385900 -5.913600
H -14.424600 -6.985400 -7.034700
O -14.179500 -8.043800 -4.493300
H -13.377200 -4.154200 -8.107300
H -13.301200 -8.103400 -4.876300
C -13.247700 -4.779300 -6.262600
H -13.185500 -3.757300 -5.968900
O -12.943700 -4.897700 -7.642300
H -12.484800 -5.417700 -5.649100
