31
Fragment
H -24.427200 -8.725200 -14.335900
O -23.968200 -8.205200 -12.342700
H -23.726500 -7.064800 -14.016200
C -23.664300 -8.086800 -13.722400
H -23.610800 -11.410900 -15.108700
H -23.534800 -7.461700 -11.877800
O -22.732500 -11.351300 -15.491700
H -22.487400 -10.292900 -12.950300
C -22.331000 -8.693400 -14.071400
H -22.206700 -8.692100 -15.108700
H -22.186000 -9.353600 -10.558700
C -21.982600 -10.091800 -13.507200
C -21.732700 -11.220400 -14.477100
H -21.625700 -12.039300 -13.929600
O -21.244200 -8.074300 -13.302700
C -21.161400 -9.478000 -10.466800
H -20.894300 -11.053700 -14.942100
C -20.716500 -9.395900 -12.972300
N -20.487900 -9.526900 -9.339000
N -20.357200 -9.499800 -11.585300
H -19.846300 -9.671100 -13.569800
C -19.155400 -9.566000 -9.740700
C -19.058700 -9.554000 -11.123000
H -18.599500 -9.472700 -7.141300
C -17.940500 -9.606300 -9.022600
N -17.937100 -9.614200 -11.856400
N -17.856200 -9.597700 -7.687600
H -17.224900 -9.915900 -7.321200
C -16.864500 -9.677700 -11.073000
N -16.793500 -9.628800 -9.727400
H -15.900000 -9.810000 -11.604600
31
Fragment
H -24.427200 -15.340200 -14.335900
O -23.968200 -14.820200 -12.342700
H -23.726500 -13.679800 -14.016200
C -23.664300 -14.701800 -13.722400
H -23.610800 -18.025900 -15.108700
H -23.534800 -14.076700 -11.877800
O -22.732500 -17.966300 -15.491700
H -22.487400 -16.907900 -12.950300
C -22.331000 -15.308400 -14.071400
H -22.206700 -15.307100 -15.108700
H -22.186000 -15.968600 -10.558700
C -21.982600 -16.706800 -13.507200
C -21.732700 -17.835400 -14.477100
H -21.625700 -18.654300 -13.929600
O -21.244200 -14.689300 -13.302700
C -21.161400 -16.093000 -10.466800
H -20.894300 -17.668700 -14.942100
C -20.716500 -16.010900 -12.972300
N -20.487900 -16.141900 -9.339000
N -20.357200 -16.114800 -11.585300
H -19.846300 -16.286100 -13.569800
C -19.155400 -16.181000 -9.740700
C -19.058700 -16.169000 -11.123000
H -18.599500 -16.087700 -7.141300
C -17.940500 -16.221300 -9.022600
N -17.937100 -16.229200 -11.856400
N -17.856200 -16.212700 -7.687600
H -17.224900 -16.530900 -7.321200
C -16.864500 -16.292700 -11.073000
N -16.793500 -16.243800 -9.727400
H -15.900000 -16.425000 -11.604600
62
Fragment
H -24.427200 -8.725200 -14.335900
O -23.968200 -8.205200 -12.342700
H -23.726500 -7.064800 -14.016200
C -23.664300 -8.086800 -13.722400
H -23.610800 -11.410900 -15.108700
H -23.534800 -7.461700 -11.877800
O -22.732500 -11.351300 -15.491700
H -22.487400 -10.292900 -12.950300
C -22.331000 -8.693400 -14.071400
H -22.206700 -8.692100 -15.108700
H -22.186000 -9.353600 -10.558700
C -21.982600 -10.091800 -13.507200
C -21.732700 -11.220400 -14.477100
H -21.625700 -12.039300 -13.929600
O -21.244200 -8.074300 -13.302700
C -21.161400 -9.478000 -10.466800
H -20.894300 -11.053700 -14.942100
C -20.716500 -9.395900 -12.972300
N -20.487900 -9.526900 -9.339000
N -20.357200 -9.499800 -11.585300
H -19.846300 -9.671100 -13.569800
C -19.155400 -9.566000 -9.740700
C -19.058700 -9.554000 -11.123000
H -18.599500 -9.472700 -7.141300
C -17.940500 -9.606300 -9.022600
N -17.937100 -9.614200 -11.856400
N -17.856200 -9.597700 -7.687600
H -17.224900 -9.915900 -7.321200
C -16.864500 -9.677700 -11.073000
N -16.793500 -9.628800 -9.727400
H -15.900000 -9.810000 -11.604600
H -24.427200 -15.340200 -14.335900
O -23.968200 -14.820200 -12.342700
H -23.726500 -13.679800 -14.016200
C -23.664300 -14.701800 -13.722400
H -23.610800 -18.025900 -15.108700
H -23.534800 -14.076700 -11.877800
O -22.732500 -17.966300 -15.491700
H -22.487400 -16.907900 -12.950300
C -22.331000 -15.308400 -14.071400
H -22.206700 -15.307100 -15.108700
H -22.186000 -15.968600 -10.558700
C -21.982600 -16.706800 -13.507200
C -21.732700 -17.835400 -14.477100
H -21.625700 -18.654300 -13.929600
O -21.244200 -14.689300 -13.302700
C -21.161400 -16.093000 -10.466800
H -20.894300 -17.668700 -14.942100
C -20.716500 -16.010900 -12.972300
N -20.487900 -16.141900 -9.339000
N -20.357200 -16.114800 -11.585300
H -19.846300 -16.286100 -13.569800
C -19.155400 -16.181000 -9.740700
C -19.058700 -16.169000 -11.123000
H -18.599500 -16.087700 -7.141300
C -17.940500 -16.221300 -9.022600
N -17.937100 -16.229200 -11.856400
N -17.856200 -16.212700 -7.687600
H -17.224900 -16.530900 -7.321200
C -16.864500 -16.292700 -11.073000
N -16.793500 -16.243800 -9.727400
H -15.900000 -16.425000 -11.604600
