31
Fragment
H -24.427200 -8.725200 -14.335900
O -23.968200 -8.205200 -12.342700
H -23.726500 -7.064800 -14.016200
C -23.664300 -8.086800 -13.722400
H -23.610800 -11.410900 -15.108700
H -23.534800 -7.461700 -11.877800
O -22.732500 -11.351300 -15.491700
H -22.487400 -10.292900 -12.950300
C -22.331000 -8.693400 -14.071400
H -22.206700 -8.692100 -15.108700
H -22.186000 -9.353600 -10.558700
C -21.982600 -10.091800 -13.507200
C -21.732700 -11.220400 -14.477100
H -21.625700 -12.039300 -13.929600
O -21.244200 -8.074300 -13.302700
C -21.161400 -9.478000 -10.466800
H -20.894300 -11.053700 -14.942100
C -20.716500 -9.395900 -12.972300
N -20.487900 -9.526900 -9.339000
N -20.357200 -9.499800 -11.585300
H -19.846300 -9.671100 -13.569800
C -19.155400 -9.566000 -9.740700
C -19.058700 -9.554000 -11.123000
H -18.599500 -9.472700 -7.141300
C -17.940500 -9.606300 -9.022600
N -17.937100 -9.614200 -11.856400
N -17.856200 -9.597700 -7.687600
H -17.224900 -9.915900 -7.321200
C -16.864500 -9.677700 -11.073000
N -16.793500 -9.628800 -9.727400
H -15.900000 -9.810000 -11.604600
3
Fragment
H -27.289700 -9.519000 -15.908100
O -26.349200 -9.456800 -15.652300
H -25.931800 -9.016200 -16.387700
34
Fragment
H -24.427200 -8.725200 -14.335900
O -23.968200 -8.205200 -12.342700
H -23.726500 -7.064800 -14.016200
C -23.664300 -8.086800 -13.722400
H -23.610800 -11.410900 -15.108700
H -23.534800 -7.461700 -11.877800
O -22.732500 -11.351300 -15.491700
H -22.487400 -10.292900 -12.950300
C -22.331000 -8.693400 -14.071400
H -22.206700 -8.692100 -15.108700
H -22.186000 -9.353600 -10.558700
C -21.982600 -10.091800 -13.507200
C -21.732700 -11.220400 -14.477100
H -21.625700 -12.039300 -13.929600
O -21.244200 -8.074300 -13.302700
C -21.161400 -9.478000 -10.466800
H -20.894300 -11.053700 -14.942100
C -20.716500 -9.395900 -12.972300
N -20.487900 -9.526900 -9.339000
N -20.357200 -9.499800 -11.585300
H -19.846300 -9.671100 -13.569800
C -19.155400 -9.566000 -9.740700
C -19.058700 -9.554000 -11.123000
H -18.599500 -9.472700 -7.141300
C -17.940500 -9.606300 -9.022600
N -17.937100 -9.614200 -11.856400
N -17.856200 -9.597700 -7.687600
H -17.224900 -9.915900 -7.321200
C -16.864500 -9.677700 -11.073000
N -16.793500 -9.628800 -9.727400
H -15.900000 -9.810000 -11.604600
H -27.289700 -9.519000 -15.908100
O -26.349200 -9.456800 -15.652300
H -25.931800 -9.016200 -16.387700
