29
Fragment
H -10.901000 -16.141400 -37.995200
O -10.521300 -16.720900 -38.435400
H -9.929900 -17.414200 -36.701900
C -9.604000 -17.407300 -37.615200
H -9.527900 -18.326500 -37.915200
H -9.289900 -12.934800 -36.761900
O -8.733100 -15.658700 -30.954100
N -8.684600 -14.639500 -31.761500
H -8.629500 -12.017800 -35.675200
O -8.594800 -12.588900 -33.497000
C -8.565900 -14.909300 -33.046600
H -8.564000 -17.264300 -32.113000
C -8.533800 -13.731000 -33.910800
C -8.532500 -12.827200 -36.182100
N -8.487200 -17.306600 -32.967900
C -8.458400 -16.212100 -33.675200
N -8.451200 -13.970800 -35.266500
H -8.429500 -18.072100 -33.357400
C -8.354800 -15.265900 -35.746300
N -8.337700 -16.341200 -34.997000
N -8.278700 -15.417300 -37.066100
H -8.255800 -14.722500 -37.573000
C -8.234100 -16.743200 -37.661000
C -7.801300 -16.696300 -39.110700
H -7.730500 -12.781000 -36.708500
H -7.709500 -15.563400 -40.419600
O -7.674800 -15.524200 -39.600300
O -7.634100 -17.717000 -39.718500
H -7.598100 -17.294300 -37.159600
3
Fragment
H -11.954100 -14.600300 -36.368500
H -11.619100 -14.752500 -35.081900
O -11.602000 -15.306700 -35.820300
32
Fragment
H -10.901000 -16.141400 -37.995200
O -10.521300 -16.720900 -38.435400
H -9.929900 -17.414200 -36.701900
C -9.604000 -17.407300 -37.615200
H -9.527900 -18.326500 -37.915200
H -9.289900 -12.934800 -36.761900
O -8.733100 -15.658700 -30.954100
N -8.684600 -14.639500 -31.761500
H -8.629500 -12.017800 -35.675200
O -8.594800 -12.588900 -33.497000
C -8.565900 -14.909300 -33.046600
H -8.564000 -17.264300 -32.113000
C -8.533800 -13.731000 -33.910800
C -8.532500 -12.827200 -36.182100
N -8.487200 -17.306600 -32.967900
C -8.458400 -16.212100 -33.675200
N -8.451200 -13.970800 -35.266500
H -8.429500 -18.072100 -33.357400
C -8.354800 -15.265900 -35.746300
N -8.337700 -16.341200 -34.997000
N -8.278700 -15.417300 -37.066100
H -8.255800 -14.722500 -37.573000
C -8.234100 -16.743200 -37.661000
C -7.801300 -16.696300 -39.110700
H -7.730500 -12.781000 -36.708500
H -7.709500 -15.563400 -40.419600
O -7.674800 -15.524200 -39.600300
O -7.634100 -17.717000 -39.718500
H -7.598100 -17.294300 -37.159600
H -11.954100 -14.600300 -36.368500
H -11.619100 -14.752500 -35.081900
O -11.602000 -15.306700 -35.820300
