29
Fragment
H -10.901000 -16.141400 -37.995200
O -10.521300 -16.720900 -38.435400
H -9.929900 -17.414200 -36.701900
C -9.604000 -17.407300 -37.615200
H -9.527900 -18.326500 -37.915200
H -9.289900 -12.934800 -36.761900
O -8.733100 -15.658700 -30.954100
N -8.684600 -14.639500 -31.761500
H -8.629500 -12.017800 -35.675200
O -8.594800 -12.588900 -33.497000
C -8.565900 -14.909300 -33.046600
H -8.564000 -17.264300 -32.113000
C -8.533800 -13.731000 -33.910800
C -8.532500 -12.827200 -36.182100
N -8.487200 -17.306600 -32.967900
C -8.458400 -16.212100 -33.675200
N -8.451200 -13.970800 -35.266500
H -8.429500 -18.072100 -33.357400
C -8.354800 -15.265900 -35.746300
N -8.337700 -16.341200 -34.997000
N -8.278700 -15.417300 -37.066100
H -8.255800 -14.722500 -37.573000
C -8.234100 -16.743200 -37.661000
C -7.801300 -16.696300 -39.110700
H -7.730500 -12.781000 -36.708500
H -7.709500 -15.563400 -40.419600
O -7.674800 -15.524200 -39.600300
O -7.634100 -17.717000 -39.718500
H -7.598100 -17.294300 -37.159600
29
Fragment
H -8.795400 -13.449700 -48.270600
O -8.759400 -13.027000 -50.829500
O -8.718700 -15.219800 -50.711300
H -8.684000 -15.180600 -51.530600
H -8.663000 -17.963000 -47.819500
C -8.592200 -14.047700 -50.221700
C -8.159400 -14.000800 -48.772000
H -8.137700 -16.021500 -48.684000
N -8.114800 -15.326700 -48.177100
N -8.055800 -14.402800 -46.108000
C -8.038700 -15.478100 -46.857300
H -7.964000 -12.671900 -44.468400
N -7.942300 -16.773200 -46.377500
C -7.935100 -14.531900 -44.786200
N -7.906300 -13.437400 -44.078900
C -7.861000 -17.916800 -47.293100
C -7.859700 -17.013000 -45.021800
H -7.829500 -13.479700 -43.224000
C -7.827600 -15.834700 -44.157600
O -7.798700 -18.155100 -44.608000
H -7.764000 -18.726200 -46.786200
N -7.708900 -16.104500 -42.872500
O -7.660400 -15.085300 -42.065100
H -7.103600 -17.809200 -47.872900
H -6.865600 -12.417500 -49.026200
C -6.789500 -13.336700 -48.726200
H -6.463600 -13.329800 -47.812900
O -5.872200 -14.023100 -49.546400
H -5.492500 -14.602600 -49.106200
58
Fragment
H -10.901000 -16.141400 -37.995200
O -10.521300 -16.720900 -38.435400
H -9.929900 -17.414200 -36.701900
C -9.604000 -17.407300 -37.615200
H -9.527900 -18.326500 -37.915200
H -9.289900 -12.934800 -36.761900
O -8.733100 -15.658700 -30.954100
N -8.684600 -14.639500 -31.761500
H -8.629500 -12.017800 -35.675200
O -8.594800 -12.588900 -33.497000
C -8.565900 -14.909300 -33.046600
H -8.564000 -17.264300 -32.113000
C -8.533800 -13.731000 -33.910800
C -8.532500 -12.827200 -36.182100
N -8.487200 -17.306600 -32.967900
C -8.458400 -16.212100 -33.675200
N -8.451200 -13.970800 -35.266500
H -8.429500 -18.072100 -33.357400
C -8.354800 -15.265900 -35.746300
N -8.337700 -16.341200 -34.997000
N -8.278700 -15.417300 -37.066100
H -8.255800 -14.722500 -37.573000
C -8.234100 -16.743200 -37.661000
C -7.801300 -16.696300 -39.110700
H -7.730500 -12.781000 -36.708500
H -7.709500 -15.563400 -40.419600
O -7.674800 -15.524200 -39.600300
O -7.634100 -17.717000 -39.718500
H -7.598100 -17.294300 -37.159600
H -8.795400 -13.449700 -48.270600
O -8.759400 -13.027000 -50.829500
O -8.718700 -15.219800 -50.711300
H -8.684000 -15.180600 -51.530600
H -8.663000 -17.963000 -47.819500
C -8.592200 -14.047700 -50.221700
C -8.159400 -14.000800 -48.772000
H -8.137700 -16.021500 -48.684000
N -8.114800 -15.326700 -48.177100
N -8.055800 -14.402800 -46.108000
C -8.038700 -15.478100 -46.857300
H -7.964000 -12.671900 -44.468400
N -7.942300 -16.773200 -46.377500
C -7.935100 -14.531900 -44.786200
N -7.906300 -13.437400 -44.078900
C -7.861000 -17.916800 -47.293100
C -7.859700 -17.013000 -45.021800
H -7.829500 -13.479700 -43.224000
C -7.827600 -15.834700 -44.157600
O -7.798700 -18.155100 -44.608000
H -7.764000 -18.726200 -46.786200
N -7.708900 -16.104500 -42.872500
O -7.660400 -15.085300 -42.065100
H -7.103600 -17.809200 -47.872900
H -6.865600 -12.417500 -49.026200
C -6.789500 -13.336700 -48.726200
H -6.463600 -13.329800 -47.812900
O -5.872200 -14.023100 -49.546400
H -5.492500 -14.602600 -49.106200
