29
Fragment
H -10.901000 -16.141400 -37.995200
O -10.521300 -16.720900 -38.435400
H -9.929900 -17.414200 -36.701900
C -9.604000 -17.407300 -37.615200
H -9.527900 -18.326500 -37.915200
H -9.289900 -12.934800 -36.761900
O -8.733100 -15.658700 -30.954100
N -8.684600 -14.639500 -31.761500
H -8.629500 -12.017800 -35.675200
O -8.594800 -12.588900 -33.497000
C -8.565900 -14.909300 -33.046600
H -8.564000 -17.264300 -32.113000
C -8.533800 -13.731000 -33.910800
C -8.532500 -12.827200 -36.182100
N -8.487200 -17.306600 -32.967900
C -8.458400 -16.212100 -33.675200
N -8.451200 -13.970800 -35.266500
H -8.429500 -18.072100 -33.357400
C -8.354800 -15.265900 -35.746300
N -8.337700 -16.341200 -34.997000
N -8.278700 -15.417300 -37.066100
H -8.255800 -14.722500 -37.573000
C -8.234100 -16.743200 -37.661000
C -7.801300 -16.696300 -39.110700
H -7.730500 -12.781000 -36.708500
H -7.709500 -15.563400 -40.419600
O -7.674800 -15.524200 -39.600300
O -7.634100 -17.717000 -39.718500
H -7.598100 -17.294300 -37.159600
29
Fragment
H -7.622300 -18.445600 -28.670800
O -7.242600 -17.866100 -28.230600
H -6.651200 -17.172800 -29.964100
C -6.325300 -17.179700 -29.050800
H -6.249200 -16.260500 -28.750800
H -6.011200 -21.652200 -29.904100
O -5.454400 -18.928300 -35.711900
N -5.405900 -19.947500 -34.904500
H -5.350800 -22.569200 -30.990800
O -5.316100 -21.998100 -33.169000
C -5.287200 -19.677700 -33.619400
H -5.285300 -17.322700 -34.553000
C -5.255100 -20.856000 -32.755200
C -5.253800 -21.759800 -30.483900
N -5.208500 -17.280400 -33.698100
C -5.179700 -18.374900 -32.990800
N -5.172500 -20.616200 -31.399500
H -5.150800 -16.514900 -33.308600
C -5.076100 -19.321100 -30.919700
N -5.059000 -18.245800 -31.669000
N -5.000000 -19.169700 -29.599900
H -4.977100 -19.864500 -29.093000
C -4.955400 -17.843800 -29.005000
C -4.522600 -17.890700 -27.555300
H -4.451800 -21.806000 -29.957500
H -4.430800 -19.023600 -26.246400
O -4.396100 -19.062800 -27.065700
O -4.355400 -16.870000 -26.947500
H -4.319400 -17.292700 -29.506400
58
Fragment
H -10.901000 -16.141400 -37.995200
O -10.521300 -16.720900 -38.435400
H -9.929900 -17.414200 -36.701900
C -9.604000 -17.407300 -37.615200
H -9.527900 -18.326500 -37.915200
H -9.289900 -12.934800 -36.761900
O -8.733100 -15.658700 -30.954100
N -8.684600 -14.639500 -31.761500
H -8.629500 -12.017800 -35.675200
O -8.594800 -12.588900 -33.497000
C -8.565900 -14.909300 -33.046600
H -8.564000 -17.264300 -32.113000
C -8.533800 -13.731000 -33.910800
C -8.532500 -12.827200 -36.182100
N -8.487200 -17.306600 -32.967900
C -8.458400 -16.212100 -33.675200
N -8.451200 -13.970800 -35.266500
H -8.429500 -18.072100 -33.357400
C -8.354800 -15.265900 -35.746300
N -8.337700 -16.341200 -34.997000
N -8.278700 -15.417300 -37.066100
H -8.255800 -14.722500 -37.573000
C -8.234100 -16.743200 -37.661000
C -7.801300 -16.696300 -39.110700
H -7.730500 -12.781000 -36.708500
H -7.709500 -15.563400 -40.419600
O -7.674800 -15.524200 -39.600300
O -7.634100 -17.717000 -39.718500
H -7.598100 -17.294300 -37.159600
H -7.622300 -18.445600 -28.670800
O -7.242600 -17.866100 -28.230600
H -6.651200 -17.172800 -29.964100
C -6.325300 -17.179700 -29.050800
H -6.249200 -16.260500 -28.750800
H -6.011200 -21.652200 -29.904100
O -5.454400 -18.928300 -35.711900
N -5.405900 -19.947500 -34.904500
H -5.350800 -22.569200 -30.990800
O -5.316100 -21.998100 -33.169000
C -5.287200 -19.677700 -33.619400
H -5.285300 -17.322700 -34.553000
C -5.255100 -20.856000 -32.755200
C -5.253800 -21.759800 -30.483900
N -5.208500 -17.280400 -33.698100
C -5.179700 -18.374900 -32.990800
N -5.172500 -20.616200 -31.399500
H -5.150800 -16.514900 -33.308600
C -5.076100 -19.321100 -30.919700
N -5.059000 -18.245800 -31.669000
N -5.000000 -19.169700 -29.599900
H -4.977100 -19.864500 -29.093000
C -4.955400 -17.843800 -29.005000
C -4.522600 -17.890700 -27.555300
H -4.451800 -21.806000 -29.957500
H -4.430800 -19.023600 -26.246400
O -4.396100 -19.062800 -27.065700
O -4.355400 -16.870000 -26.947500
H -4.319400 -17.292700 -29.506400
