15
Fragment
O -11.929100 -30.627300 -9.217900
H -11.693800 -33.030000 -9.598200
N -11.037300 -32.668300 -9.660900
C -10.992300 -31.297800 -9.614100
H -10.572200 -28.882400 -10.643600
O -10.196600 -34.717700 -10.130400
C -10.043200 -33.507900 -10.119000
H -9.859500 -28.768200 -9.298100
N -9.844700 -30.724600 -10.080500
C -9.747500 -29.250400 -10.103100
H -9.051200 -29.087600 -10.468300
C -8.889100 -32.803600 -10.570300
C -8.814800 -31.494500 -10.543900
H -8.114100 -31.082000 -10.972500
F -7.877800 -33.560800 -11.035200
15
Fragment
F -14.695600 -29.889200 -11.643000
H -14.459400 -32.368000 -11.705700
C -13.758600 -31.955500 -12.134400
C -13.684400 -30.646300 -12.107900
H -13.522300 -34.362400 -12.210000
C -12.826000 -34.199500 -12.575100
N -12.728700 -32.725400 -12.597800
H -12.714000 -34.681800 -13.380100
C -12.530300 -29.942100 -12.559200
O -12.376900 -28.732300 -12.547900
H -12.001200 -34.567600 -12.034600
C -11.581200 -32.152200 -13.064200
N -11.536200 -30.781700 -13.017300
H -10.879600 -30.420000 -13.080000
O -10.644400 -32.822700 -13.460300
30
Fragment
O -11.929100 -30.627300 -9.217900
H -11.693800 -33.030000 -9.598200
N -11.037300 -32.668300 -9.660900
C -10.992300 -31.297800 -9.614100
H -10.572200 -28.882400 -10.643600
O -10.196600 -34.717700 -10.130400
C -10.043200 -33.507900 -10.119000
H -9.859500 -28.768200 -9.298100
N -9.844700 -30.724600 -10.080500
C -9.747500 -29.250400 -10.103100
H -9.051200 -29.087600 -10.468300
C -8.889100 -32.803600 -10.570300
C -8.814800 -31.494500 -10.543900
H -8.114100 -31.082000 -10.972500
F -7.877800 -33.560800 -11.035200
F -14.695600 -29.889200 -11.643000
H -14.459400 -32.368000 -11.705700
C -13.758600 -31.955500 -12.134400
C -13.684400 -30.646300 -12.107900
H -13.522300 -34.362400 -12.210000
C -12.826000 -34.199500 -12.575100
N -12.728700 -32.725400 -12.597800
H -12.714000 -34.681800 -13.380100
C -12.530300 -29.942100 -12.559200
O -12.376900 -28.732300 -12.547900
H -12.001200 -34.567600 -12.034600
C -11.581200 -32.152200 -13.064200
N -11.536200 -30.781700 -13.017300
H -10.879600 -30.420000 -13.080000
O -10.644400 -32.822700 -13.460300
