15
Fragment
O -11.929100 -30.627300 -9.217900
H -11.693800 -33.030000 -9.598200
N -11.037300 -32.668300 -9.660900
C -10.992300 -31.297800 -9.614100
H -10.572200 -28.882400 -10.643600
O -10.196600 -34.717700 -10.130400
C -10.043200 -33.507900 -10.119000
H -9.859500 -28.768200 -9.298100
N -9.844700 -30.724600 -10.080500
C -9.747500 -29.250400 -10.103100
H -9.051200 -29.087600 -10.468300
C -8.889100 -32.803600 -10.570300
C -8.814800 -31.494500 -10.543900
H -8.114100 -31.082000 -10.972500
F -7.877800 -33.560800 -11.035200
21
Fragment
H -19.038200 -27.676900 -5.631000
N -18.564300 -29.544400 -6.191200
C -18.427700 -28.216200 -6.232000
H -18.388900 -31.921700 -6.377900
N -17.717000 -31.636200 -6.627300
C -17.545900 -30.305800 -6.695400
C -17.295500 -27.645200 -6.761100
H -17.262500 -32.219900 -7.327300
N -16.869000 -26.325400 -6.987900
N -16.409300 -29.857500 -7.238100
C -16.327300 -28.533500 -7.255500
C -15.738800 -26.446000 -7.526900
N -15.305600 -27.772100 -7.740100
H -15.263100 -25.610500 -8.025100
H -14.249400 -28.702700 -9.214200
C -14.091500 -28.283900 -8.404500
H -13.842400 -29.047400 -7.773300
H -13.053500 -26.572900 -9.152200
C -12.934600 -27.349100 -8.282800
H -12.822400 -26.547500 -7.746100
H -12.388600 -27.856700 -8.913300
36
Fragment
O -11.929100 -30.627300 -9.217900
H -11.693800 -33.030000 -9.598200
N -11.037300 -32.668300 -9.660900
C -10.992300 -31.297800 -9.614100
H -10.572200 -28.882400 -10.643600
O -10.196600 -34.717700 -10.130400
C -10.043200 -33.507900 -10.119000
H -9.859500 -28.768200 -9.298100
N -9.844700 -30.724600 -10.080500
C -9.747500 -29.250400 -10.103100
H -9.051200 -29.087600 -10.468300
C -8.889100 -32.803600 -10.570300
C -8.814800 -31.494500 -10.543900
H -8.114100 -31.082000 -10.972500
F -7.877800 -33.560800 -11.035200
H -19.038200 -27.676900 -5.631000
N -18.564300 -29.544400 -6.191200
C -18.427700 -28.216200 -6.232000
H -18.388900 -31.921700 -6.377900
N -17.717000 -31.636200 -6.627300
C -17.545900 -30.305800 -6.695400
C -17.295500 -27.645200 -6.761100
H -17.262500 -32.219900 -7.327300
N -16.869000 -26.325400 -6.987900
N -16.409300 -29.857500 -7.238100
C -16.327300 -28.533500 -7.255500
C -15.738800 -26.446000 -7.526900
N -15.305600 -27.772100 -7.740100
H -15.263100 -25.610500 -8.025100
H -14.249400 -28.702700 -9.214200
C -14.091500 -28.283900 -8.404500
H -13.842400 -29.047400 -7.773300
H -13.053500 -26.572900 -9.152200
C -12.934600 -27.349100 -8.282800
H -12.822400 -26.547500 -7.746100
H -12.388600 -27.856700 -8.913300
