15
Fragment
O -11.929100 -30.627300 -9.217900
H -11.693800 -33.030000 -9.598200
N -11.037300 -32.668300 -9.660900
C -10.992300 -31.297800 -9.614100
H -10.572200 -28.882400 -10.643600
O -10.196600 -34.717700 -10.130400
C -10.043200 -33.507900 -10.119000
H -9.859500 -28.768200 -9.298100
N -9.844700 -30.724600 -10.080500
C -9.747500 -29.250400 -10.103100
H -9.051200 -29.087600 -10.468300
C -8.889100 -32.803600 -10.570300
C -8.814800 -31.494500 -10.543900
H -8.114100 -31.082000 -10.972500
F -7.877800 -33.560800 -11.035200
21
Fragment
H -10.184900 -35.593300 -13.764900
H -9.751100 -36.902500 -14.932100
C -9.638900 -36.100900 -14.395400
H -9.520000 -36.877100 -13.526000
H -8.731000 -34.402600 -14.904900
C -8.482000 -35.166100 -14.273700
H -8.324100 -34.747300 -13.464100
H -7.310300 -37.839500 -14.653200
N -7.267900 -35.677900 -14.938100
C -6.834600 -37.004000 -15.151300
C -6.246200 -34.916500 -15.422700
N -6.164200 -33.592500 -15.440100
N -5.704500 -37.124600 -15.690300
H -5.311000 -31.230100 -15.350900
C -5.278000 -35.804800 -15.917100
C -5.027600 -33.144200 -15.982900
N -4.856500 -31.813800 -16.050900
H -4.184600 -31.528300 -16.300300
C -4.145700 -35.233800 -16.446200
N -4.009200 -33.905600 -16.487100
H -3.535300 -35.773100 -17.047200
36
Fragment
O -11.929100 -30.627300 -9.217900
H -11.693800 -33.030000 -9.598200
N -11.037300 -32.668300 -9.660900
C -10.992300 -31.297800 -9.614100
H -10.572200 -28.882400 -10.643600
O -10.196600 -34.717700 -10.130400
C -10.043200 -33.507900 -10.119000
H -9.859500 -28.768200 -9.298100
N -9.844700 -30.724600 -10.080500
C -9.747500 -29.250400 -10.103100
H -9.051200 -29.087600 -10.468300
C -8.889100 -32.803600 -10.570300
C -8.814800 -31.494500 -10.543900
H -8.114100 -31.082000 -10.972500
F -7.877800 -33.560800 -11.035200
H -10.184900 -35.593300 -13.764900
H -9.751100 -36.902500 -14.932100
C -9.638900 -36.100900 -14.395400
H -9.520000 -36.877100 -13.526000
H -8.731000 -34.402600 -14.904900
C -8.482000 -35.166100 -14.273700
H -8.324100 -34.747300 -13.464100
H -7.310300 -37.839500 -14.653200
N -7.267900 -35.677900 -14.938100
C -6.834600 -37.004000 -15.151300
C -6.246200 -34.916500 -15.422700
N -6.164200 -33.592500 -15.440100
N -5.704500 -37.124600 -15.690300
H -5.311000 -31.230100 -15.350900
C -5.278000 -35.804800 -15.917100
C -5.027600 -33.144200 -15.982900
N -4.856500 -31.813800 -16.050900
H -4.184600 -31.528300 -16.300300
C -4.145700 -35.233800 -16.446200
N -4.009200 -33.905600 -16.487100
H -3.535300 -35.773100 -17.047200
