15
Fragment
O -11.929100 -30.627300 -9.217900
H -11.693800 -33.030000 -9.598200
N -11.037300 -32.668300 -9.660900
C -10.992300 -31.297800 -9.614100
H -10.572200 -28.882400 -10.643600
O -10.196600 -34.717700 -10.130400
C -10.043200 -33.507900 -10.119000
H -9.859500 -28.768200 -9.298100
N -9.844700 -30.724600 -10.080500
C -9.747500 -29.250400 -10.103100
H -9.051200 -29.087600 -10.468300
C -8.889100 -32.803600 -10.570300
C -8.814800 -31.494500 -10.543900
H -8.114100 -31.082000 -10.972500
F -7.877800 -33.560800 -11.035200
21
Fragment
H -9.960400 -25.198100 -9.410700
N -9.486500 -23.330600 -9.970900
C -9.350000 -24.658800 -10.011700
H -9.311200 -20.953300 -10.157600
N -8.639300 -21.238800 -10.407000
C -8.468200 -22.569200 -10.475100
C -8.217800 -25.229800 -10.540800
H -8.184700 -20.655100 -11.107000
N -7.791200 -26.549600 -10.767600
N -7.331500 -23.017500 -11.017800
C -7.249500 -24.341500 -11.035200
C -6.661100 -26.429000 -11.306600
N -6.227900 -25.102900 -11.519800
H -6.185400 -27.264500 -11.804800
H -5.171600 -24.172300 -12.993900
C -5.013800 -24.591100 -12.184300
H -4.764700 -23.827600 -11.553000
H -3.975700 -26.302100 -12.931900
C -3.856900 -25.525900 -12.062500
H -3.744600 -26.327500 -11.525800
H -3.310800 -25.018300 -12.693000
36
Fragment
O -11.929100 -30.627300 -9.217900
H -11.693800 -33.030000 -9.598200
N -11.037300 -32.668300 -9.660900
C -10.992300 -31.297800 -9.614100
H -10.572200 -28.882400 -10.643600
O -10.196600 -34.717700 -10.130400
C -10.043200 -33.507900 -10.119000
H -9.859500 -28.768200 -9.298100
N -9.844700 -30.724600 -10.080500
C -9.747500 -29.250400 -10.103100
H -9.051200 -29.087600 -10.468300
C -8.889100 -32.803600 -10.570300
C -8.814800 -31.494500 -10.543900
H -8.114100 -31.082000 -10.972500
F -7.877800 -33.560800 -11.035200
H -9.960400 -25.198100 -9.410700
N -9.486500 -23.330600 -9.970900
C -9.350000 -24.658800 -10.011700
H -9.311200 -20.953300 -10.157600
N -8.639300 -21.238800 -10.407000
C -8.468200 -22.569200 -10.475100
C -8.217800 -25.229800 -10.540800
H -8.184700 -20.655100 -11.107000
N -7.791200 -26.549600 -10.767600
N -7.331500 -23.017500 -11.017800
C -7.249500 -24.341500 -11.035200
C -6.661100 -26.429000 -11.306600
N -6.227900 -25.102900 -11.519800
H -6.185400 -27.264500 -11.804800
H -5.171600 -24.172300 -12.993900
C -5.013800 -24.591100 -12.184300
H -4.764700 -23.827600 -11.553000
H -3.975700 -26.302100 -12.931900
C -3.856900 -25.525900 -12.062500
H -3.744600 -26.327500 -11.525800
H -3.310800 -25.018300 -12.693000
