15
Fragment
O -11.929100 -30.627300 -9.217900
H -11.693800 -33.030000 -9.598200
N -11.037300 -32.668300 -9.660900
C -10.992300 -31.297800 -9.614100
H -10.572200 -28.882400 -10.643600
O -10.196600 -34.717700 -10.130400
C -10.043200 -33.507900 -10.119000
H -9.859500 -28.768200 -9.298100
N -9.844700 -30.724600 -10.080500
C -9.747500 -29.250400 -10.103100
H -9.051200 -29.087600 -10.468300
C -8.889100 -32.803600 -10.570300
C -8.814800 -31.494500 -10.543900
H -8.114100 -31.082000 -10.972500
F -7.877800 -33.560800 -11.035200
21
Fragment
H -10.702700 -38.431700 -9.985200
H -10.268800 -37.122500 -11.152400
C -10.156600 -37.924100 -10.615700
H -10.037700 -37.147900 -9.746300
H -9.248800 -39.622400 -11.125200
C -8.999700 -38.858900 -10.494000
H -8.841800 -39.277700 -9.684400
H -7.828100 -36.185500 -10.873400
N -7.785600 -38.347100 -11.158400
C -7.352400 -37.021000 -11.371600
C -6.763900 -39.108500 -11.643000
N -6.682000 -40.432500 -11.660400
N -6.222300 -36.900400 -11.910600
H -5.828800 -42.794900 -11.571200
C -5.795700 -38.220200 -12.137400
C -5.545300 -40.880800 -12.203100
N -5.374200 -42.211200 -12.271200
H -4.702300 -42.496700 -12.520600
C -4.663500 -38.791200 -12.666500
N -4.526900 -40.119400 -12.707400
H -4.053000 -38.251900 -13.267500
36
Fragment
O -11.929100 -30.627300 -9.217900
H -11.693800 -33.030000 -9.598200
N -11.037300 -32.668300 -9.660900
C -10.992300 -31.297800 -9.614100
H -10.572200 -28.882400 -10.643600
O -10.196600 -34.717700 -10.130400
C -10.043200 -33.507900 -10.119000
H -9.859500 -28.768200 -9.298100
N -9.844700 -30.724600 -10.080500
C -9.747500 -29.250400 -10.103100
H -9.051200 -29.087600 -10.468300
C -8.889100 -32.803600 -10.570300
C -8.814800 -31.494500 -10.543900
H -8.114100 -31.082000 -10.972500
F -7.877800 -33.560800 -11.035200
H -10.702700 -38.431700 -9.985200
H -10.268800 -37.122500 -11.152400
C -10.156600 -37.924100 -10.615700
H -10.037700 -37.147900 -9.746300
H -9.248800 -39.622400 -11.125200
C -8.999700 -38.858900 -10.494000
H -8.841800 -39.277700 -9.684400
H -7.828100 -36.185500 -10.873400
N -7.785600 -38.347100 -11.158400
C -7.352400 -37.021000 -11.371600
C -6.763900 -39.108500 -11.643000
N -6.682000 -40.432500 -11.660400
N -6.222300 -36.900400 -11.910600
H -5.828800 -42.794900 -11.571200
C -5.795700 -38.220200 -12.137400
C -5.545300 -40.880800 -12.203100
N -5.374200 -42.211200 -12.271200
H -4.702300 -42.496700 -12.520600
C -4.663500 -38.791200 -12.666500
N -4.526900 -40.119400 -12.707400
H -4.053000 -38.251900 -13.267500
