15
Fragment
O -11.929100 -30.627300 -9.217900
H -11.693800 -33.030000 -9.598200
N -11.037300 -32.668300 -9.660900
C -10.992300 -31.297800 -9.614100
H -10.572200 -28.882400 -10.643600
O -10.196600 -34.717700 -10.130400
C -10.043200 -33.507900 -10.119000
H -9.859500 -28.768200 -9.298100
N -9.844700 -30.724600 -10.080500
C -9.747500 -29.250400 -10.103100
H -9.051200 -29.087600 -10.468300
C -8.889100 -32.803600 -10.570300
C -8.814800 -31.494500 -10.543900
H -8.114100 -31.082000 -10.972500
F -7.877800 -33.560800 -11.035200
21
Fragment
H -9.442700 -27.676900 -13.190400
N -8.968800 -29.544400 -13.750600
C -8.832200 -28.216200 -13.791400
H -8.793400 -31.921700 -13.937300
N -8.121500 -31.636200 -14.186700
C -7.950400 -30.305800 -14.254800
C -7.700000 -27.645200 -14.320500
H -7.667000 -32.219900 -14.886700
N -7.273500 -26.325400 -14.547300
N -6.813800 -29.857500 -14.797500
C -6.731800 -28.533500 -14.814900
C -6.143300 -26.446000 -15.086300
N -5.710100 -27.772100 -15.299500
H -5.667600 -25.610500 -15.584500
H -4.653900 -28.702700 -16.773600
C -4.496000 -28.283900 -15.964000
H -4.246900 -29.047400 -15.332700
H -3.458000 -26.572900 -16.711600
C -3.339100 -27.349100 -15.842200
H -3.226900 -26.547500 -15.305500
H -2.793100 -27.856700 -16.472700
36
Fragment
O -11.929100 -30.627300 -9.217900
H -11.693800 -33.030000 -9.598200
N -11.037300 -32.668300 -9.660900
C -10.992300 -31.297800 -9.614100
H -10.572200 -28.882400 -10.643600
O -10.196600 -34.717700 -10.130400
C -10.043200 -33.507900 -10.119000
H -9.859500 -28.768200 -9.298100
N -9.844700 -30.724600 -10.080500
C -9.747500 -29.250400 -10.103100
H -9.051200 -29.087600 -10.468300
C -8.889100 -32.803600 -10.570300
C -8.814800 -31.494500 -10.543900
H -8.114100 -31.082000 -10.972500
F -7.877800 -33.560800 -11.035200
H -9.442700 -27.676900 -13.190400
N -8.968800 -29.544400 -13.750600
C -8.832200 -28.216200 -13.791400
H -8.793400 -31.921700 -13.937300
N -8.121500 -31.636200 -14.186700
C -7.950400 -30.305800 -14.254800
C -7.700000 -27.645200 -14.320500
H -7.667000 -32.219900 -14.886700
N -7.273500 -26.325400 -14.547300
N -6.813800 -29.857500 -14.797500
C -6.731800 -28.533500 -14.814900
C -6.143300 -26.446000 -15.086300
N -5.710100 -27.772100 -15.299500
H -5.667600 -25.610500 -15.584500
H -4.653900 -28.702700 -16.773600
C -4.496000 -28.283900 -15.964000
H -4.246900 -29.047400 -15.332700
H -3.458000 -26.572900 -16.711600
C -3.339100 -27.349100 -15.842200
H -3.226900 -26.547500 -15.305500
H -2.793100 -27.856700 -16.472700
