31
Fragment
H -18.986000 -34.380300 -9.482900
H -18.899600 -37.192700 -8.693200
H -18.458900 -36.269100 -7.515200
H -18.346500 -33.671400 -7.366300
C -18.175400 -36.742300 -8.251100
C -18.068000 -34.378800 -9.211100
N -17.863200 -33.611400 -8.015500
N -17.580800 -35.750800 -9.117200
H -17.534200 -37.367800 -7.987700
H -17.491000 -33.214900 -10.887600
C -17.063700 -33.749800 -10.217000
C -16.788800 -32.795200 -8.098400
C -16.750400 -36.055600 -10.144500
N -16.423000 -34.906300 -10.803400
O -16.398900 -32.040100 -7.195400
O -16.345700 -37.186400 -10.435100
N -16.222000 -32.939100 -9.334100
H -15.918200 -35.418500 -12.680600
C -15.538800 -34.885800 -11.948500
H -15.460200 -34.036300 -12.292200
H -15.347800 -31.830600 -10.784000
H -15.252800 -31.190500 -9.347000
C -15.185400 -32.032200 -9.817000
H -14.639200 -35.228800 -11.748500
C -13.790800 -32.624300 -9.627900
H -13.705900 -32.958400 -8.764400
H -13.593600 -33.346200 -10.207900
O -12.847400 -30.402900 -9.681700
C -12.692100 -31.607300 -9.792400
O -11.516300 -32.146000 -10.035700
H -10.957800 -31.532400 -10.143200
31
Fragment
H -23.306900 -38.587400 -9.482900
H -23.220500 -35.775000 -8.693200
H -22.779800 -36.698600 -7.515200
H -22.667400 -39.296200 -7.366300
C -22.496300 -36.225300 -8.251100
C -22.388900 -38.588800 -9.211100
N -22.184100 -39.356200 -8.015500
N -21.901700 -37.216800 -9.117200
H -21.855100 -35.599900 -7.987700
H -21.811900 -39.752800 -10.887600
C -21.384600 -39.217800 -10.217000
C -21.109700 -40.172400 -8.098400
C -21.071300 -36.912000 -10.144500
N -20.743900 -38.061400 -10.803400
O -20.719800 -40.927600 -7.195400
O -20.666600 -35.781300 -10.435100
N -20.542900 -40.028600 -9.334100
H -20.239100 -37.549200 -12.680600
C -19.859700 -38.081800 -11.948500
H -19.781100 -38.931400 -12.292200
H -19.668700 -41.137100 -10.784000
H -19.573700 -41.777100 -9.347000
C -19.506300 -40.935500 -9.817000
H -18.960100 -37.738900 -11.748500
C -18.111700 -40.343400 -9.627900
H -18.026800 -40.009200 -8.764400
H -17.914500 -39.621400 -10.207900
O -17.168300 -42.564700 -9.681700
C -17.013000 -41.360400 -9.792400
O -15.837200 -40.821600 -10.035700
H -15.278700 -41.435200 -10.143200
62
Fragment
H -18.986000 -34.380300 -9.482900
H -18.899600 -37.192700 -8.693200
H -18.458900 -36.269100 -7.515200
H -18.346500 -33.671400 -7.366300
C -18.175400 -36.742300 -8.251100
C -18.068000 -34.378800 -9.211100
N -17.863200 -33.611400 -8.015500
N -17.580800 -35.750800 -9.117200
H -17.534200 -37.367800 -7.987700
H -17.491000 -33.214900 -10.887600
C -17.063700 -33.749800 -10.217000
C -16.788800 -32.795200 -8.098400
C -16.750400 -36.055600 -10.144500
N -16.423000 -34.906300 -10.803400
O -16.398900 -32.040100 -7.195400
O -16.345700 -37.186400 -10.435100
N -16.222000 -32.939100 -9.334100
H -15.918200 -35.418500 -12.680600
C -15.538800 -34.885800 -11.948500
H -15.460200 -34.036300 -12.292200
H -15.347800 -31.830600 -10.784000
H -15.252800 -31.190500 -9.347000
C -15.185400 -32.032200 -9.817000
H -14.639200 -35.228800 -11.748500
C -13.790800 -32.624300 -9.627900
H -13.705900 -32.958400 -8.764400
H -13.593600 -33.346200 -10.207900
O -12.847400 -30.402900 -9.681700
C -12.692100 -31.607300 -9.792400
O -11.516300 -32.146000 -10.035700
H -10.957800 -31.532400 -10.143200
H -23.306900 -38.587400 -9.482900
H -23.220500 -35.775000 -8.693200
H -22.779800 -36.698600 -7.515200
H -22.667400 -39.296200 -7.366300
C -22.496300 -36.225300 -8.251100
C -22.388900 -38.588800 -9.211100
N -22.184100 -39.356200 -8.015500
N -21.901700 -37.216800 -9.117200
H -21.855100 -35.599900 -7.987700
H -21.811900 -39.752800 -10.887600
C -21.384600 -39.217800 -10.217000
C -21.109700 -40.172400 -8.098400
C -21.071300 -36.912000 -10.144500
N -20.743900 -38.061400 -10.803400
O -20.719800 -40.927600 -7.195400
O -20.666600 -35.781300 -10.435100
N -20.542900 -40.028600 -9.334100
H -20.239100 -37.549200 -12.680600
C -19.859700 -38.081800 -11.948500
H -19.781100 -38.931400 -12.292200
H -19.668700 -41.137100 -10.784000
H -19.573700 -41.777100 -9.347000
C -19.506300 -40.935500 -9.817000
H -18.960100 -37.738900 -11.748500
C -18.111700 -40.343400 -9.627900
H -18.026800 -40.009200 -8.764400
H -17.914500 -39.621400 -10.207900
O -17.168300 -42.564700 -9.681700
C -17.013000 -41.360400 -9.792400
O -15.837200 -40.821600 -10.035700
H -15.278700 -41.435200 -10.143200
