28
Fragment
H -10.020300 -16.501400 -10.711600
H -9.958900 -16.565700 -9.113000
H -9.938200 -14.009100 -10.620500
H -9.896300 -14.086000 -9.022800
C -9.424700 -16.552100 -9.934600
C -9.352000 -14.063600 -9.837400
H -8.886900 -17.369600 -9.988100
H -8.762500 -13.281200 -9.814600
C -8.504700 -15.340000 -9.921500
H -8.452600 -13.904800 -12.390700
O -8.003300 -15.788200 -7.605600
N -7.681000 -15.315700 -11.139000
C -7.621500 -15.350700 -8.667200
C -7.561100 -14.204900 -12.050800
H -7.188300 -14.937600 -14.029500
H -6.946100 -12.419900 -11.035700
C -6.773800 -16.301700 -11.424600
N -6.752000 -13.081500 -11.580500
C -6.670600 -14.776800 -13.189500
O -6.576600 -17.301400 -10.724700
O -6.446800 -14.784600 -8.849400
N -6.178900 -16.015200 -12.601800
H -6.037200 -14.693000 -8.111000
C -5.723900 -12.814500 -12.421400
N -5.665000 -13.767400 -13.356000
H -5.475200 -16.509200 -12.844400
H -5.167700 -13.844400 -14.000600
O -4.953500 -11.837300 -12.344300
28
Fragment
O -9.730500 -16.709000 -13.933200
H -9.516300 -18.716100 -12.276800
H -9.208800 -21.380900 -13.433000
N -9.019000 -18.639100 -12.921500
C -8.960100 -17.686200 -13.856100
H -8.646800 -19.564700 -18.166500
N -8.505100 -20.886900 -13.675700
O -8.237200 -19.656300 -17.428100
O -8.107400 -22.173100 -15.552700
C -8.013400 -19.648500 -13.087900
N -7.932000 -17.953200 -14.697000
C -7.910200 -21.173400 -14.852900
H -7.737900 -17.291600 -15.241800
H -7.495700 -19.809300 -12.247900
C -7.122900 -19.076600 -14.226600
C -7.062500 -20.222400 -17.610300
N -7.003000 -20.187400 -15.138400
O -6.680700 -20.659900 -18.671900
H -6.231400 -18.776500 -13.886800
C -6.179300 -20.211700 -16.356000
H -5.921500 -18.152900 -16.462800
H -5.797100 -22.241300 -16.289400
C -5.332000 -18.935300 -16.440100
C -5.259300 -21.423800 -16.342800
H -4.787700 -18.957700 -17.254700
H -4.745800 -18.880800 -15.657000
H -4.725100 -21.437400 -17.164400
H -4.663700 -21.373100 -15.565900
56
Fragment
H -10.020300 -16.501400 -10.711600
H -9.958900 -16.565700 -9.113000
H -9.938200 -14.009100 -10.620500
H -9.896300 -14.086000 -9.022800
C -9.424700 -16.552100 -9.934600
C -9.352000 -14.063600 -9.837400
H -8.886900 -17.369600 -9.988100
H -8.762500 -13.281200 -9.814600
C -8.504700 -15.340000 -9.921500
H -8.452600 -13.904800 -12.390700
O -8.003300 -15.788200 -7.605600
N -7.681000 -15.315700 -11.139000
C -7.621500 -15.350700 -8.667200
C -7.561100 -14.204900 -12.050800
H -7.188300 -14.937600 -14.029500
H -6.946100 -12.419900 -11.035700
C -6.773800 -16.301700 -11.424600
N -6.752000 -13.081500 -11.580500
C -6.670600 -14.776800 -13.189500
O -6.576600 -17.301400 -10.724700
O -6.446800 -14.784600 -8.849400
N -6.178900 -16.015200 -12.601800
H -6.037200 -14.693000 -8.111000
C -5.723900 -12.814500 -12.421400
N -5.665000 -13.767400 -13.356000
H -5.475200 -16.509200 -12.844400
H -5.167700 -13.844400 -14.000600
O -4.953500 -11.837300 -12.344300
O -9.730500 -16.709000 -13.933200
H -9.516300 -18.716100 -12.276800
H -9.208800 -21.380900 -13.433000
N -9.019000 -18.639100 -12.921500
C -8.960100 -17.686200 -13.856100
H -8.646800 -19.564700 -18.166500
N -8.505100 -20.886900 -13.675700
O -8.237200 -19.656300 -17.428100
O -8.107400 -22.173100 -15.552700
C -8.013400 -19.648500 -13.087900
N -7.932000 -17.953200 -14.697000
C -7.910200 -21.173400 -14.852900
H -7.737900 -17.291600 -15.241800
H -7.495700 -19.809300 -12.247900
C -7.122900 -19.076600 -14.226600
C -7.062500 -20.222400 -17.610300
N -7.003000 -20.187400 -15.138400
O -6.680700 -20.659900 -18.671900
H -6.231400 -18.776500 -13.886800
C -6.179300 -20.211700 -16.356000
H -5.921500 -18.152900 -16.462800
H -5.797100 -22.241300 -16.289400
C -5.332000 -18.935300 -16.440100
C -5.259300 -21.423800 -16.342800
H -4.787700 -18.957700 -17.254700
H -4.745800 -18.880800 -15.657000
H -4.725100 -21.437400 -17.164400
H -4.663700 -21.373100 -15.565900
