28
Fragment
H -10.020300 -16.501400 -10.711600
H -9.958900 -16.565700 -9.113000
H -9.938200 -14.009100 -10.620500
H -9.896300 -14.086000 -9.022800
C -9.424700 -16.552100 -9.934600
C -9.352000 -14.063600 -9.837400
H -8.886900 -17.369600 -9.988100
H -8.762500 -13.281200 -9.814600
C -8.504700 -15.340000 -9.921500
H -8.452600 -13.904800 -12.390700
O -8.003300 -15.788200 -7.605600
N -7.681000 -15.315700 -11.139000
C -7.621500 -15.350700 -8.667200
C -7.561100 -14.204900 -12.050800
H -7.188300 -14.937600 -14.029500
H -6.946100 -12.419900 -11.035700
C -6.773800 -16.301700 -11.424600
N -6.752000 -13.081500 -11.580500
C -6.670600 -14.776800 -13.189500
O -6.576600 -17.301400 -10.724700
O -6.446800 -14.784600 -8.849400
N -6.178900 -16.015200 -12.601800
H -6.037200 -14.693000 -8.111000
C -5.723900 -12.814500 -12.421400
N -5.665000 -13.767400 -13.356000
H -5.475200 -16.509200 -12.844400
H -5.167700 -13.844400 -14.000600
O -4.953500 -11.837300 -12.344300
28
Fragment
H -16.137100 -16.501400 -10.711600
H -16.075700 -16.565700 -9.113000
H -16.055000 -14.009100 -10.620500
H -16.013100 -14.086000 -9.022800
C -15.541500 -16.552100 -9.934600
C -15.468800 -14.063600 -9.837400
H -15.003700 -17.369600 -9.988100
H -14.879300 -13.281200 -9.814600
C -14.621500 -15.340000 -9.921500
H -14.569400 -13.904800 -12.390700
O -14.120100 -15.788200 -7.605600
N -13.797800 -15.315700 -11.139000
C -13.738300 -15.350700 -8.667200
C -13.677900 -14.204900 -12.050800
H -13.305100 -14.937600 -14.029500
H -13.062900 -12.419900 -11.035700
C -12.890600 -16.301700 -11.424600
N -12.868800 -13.081500 -11.580500
C -12.787400 -14.776800 -13.189500
O -12.693400 -17.301400 -10.724700
O -12.563600 -14.784600 -8.849400
N -12.295700 -16.015200 -12.601800
H -12.154000 -14.693000 -8.111000
C -11.840700 -12.814500 -12.421400
N -11.781800 -13.767400 -13.356000
H -11.592000 -16.509200 -12.844400
H -11.284500 -13.844400 -14.000600
O -11.070300 -11.837300 -12.344300
56
Fragment
H -10.020300 -16.501400 -10.711600
H -9.958900 -16.565700 -9.113000
H -9.938200 -14.009100 -10.620500
H -9.896300 -14.086000 -9.022800
C -9.424700 -16.552100 -9.934600
C -9.352000 -14.063600 -9.837400
H -8.886900 -17.369600 -9.988100
H -8.762500 -13.281200 -9.814600
C -8.504700 -15.340000 -9.921500
H -8.452600 -13.904800 -12.390700
O -8.003300 -15.788200 -7.605600
N -7.681000 -15.315700 -11.139000
C -7.621500 -15.350700 -8.667200
C -7.561100 -14.204900 -12.050800
H -7.188300 -14.937600 -14.029500
H -6.946100 -12.419900 -11.035700
C -6.773800 -16.301700 -11.424600
N -6.752000 -13.081500 -11.580500
C -6.670600 -14.776800 -13.189500
O -6.576600 -17.301400 -10.724700
O -6.446800 -14.784600 -8.849400
N -6.178900 -16.015200 -12.601800
H -6.037200 -14.693000 -8.111000
C -5.723900 -12.814500 -12.421400
N -5.665000 -13.767400 -13.356000
H -5.475200 -16.509200 -12.844400
H -5.167700 -13.844400 -14.000600
O -4.953500 -11.837300 -12.344300
H -16.137100 -16.501400 -10.711600
H -16.075700 -16.565700 -9.113000
H -16.055000 -14.009100 -10.620500
H -16.013100 -14.086000 -9.022800
C -15.541500 -16.552100 -9.934600
C -15.468800 -14.063600 -9.837400
H -15.003700 -17.369600 -9.988100
H -14.879300 -13.281200 -9.814600
C -14.621500 -15.340000 -9.921500
H -14.569400 -13.904800 -12.390700
O -14.120100 -15.788200 -7.605600
N -13.797800 -15.315700 -11.139000
C -13.738300 -15.350700 -8.667200
C -13.677900 -14.204900 -12.050800
H -13.305100 -14.937600 -14.029500
H -13.062900 -12.419900 -11.035700
C -12.890600 -16.301700 -11.424600
N -12.868800 -13.081500 -11.580500
C -12.787400 -14.776800 -13.189500
O -12.693400 -17.301400 -10.724700
O -12.563600 -14.784600 -8.849400
N -12.295700 -16.015200 -12.601800
H -12.154000 -14.693000 -8.111000
C -11.840700 -12.814500 -12.421400
N -11.781800 -13.767400 -13.356000
H -11.592000 -16.509200 -12.844400
H -11.284500 -13.844400 -14.000600
O -11.070300 -11.837300 -12.344300
