31
Fragment
H -18.986000 -34.380300 -9.482900
H -18.899600 -37.192700 -8.693200
H -18.458900 -36.269100 -7.515200
H -18.346500 -33.671400 -7.366300
C -18.175400 -36.742300 -8.251100
C -18.068000 -34.378800 -9.211100
N -17.863200 -33.611400 -8.015500
N -17.580800 -35.750800 -9.117200
H -17.534200 -37.367800 -7.987700
H -17.491000 -33.214900 -10.887600
C -17.063700 -33.749800 -10.217000
C -16.788800 -32.795200 -8.098400
C -16.750400 -36.055600 -10.144500
N -16.423000 -34.906300 -10.803400
O -16.398900 -32.040100 -7.195400
O -16.345700 -37.186400 -10.435100
N -16.222000 -32.939100 -9.334100
H -15.918200 -35.418500 -12.680600
C -15.538800 -34.885800 -11.948500
H -15.460200 -34.036300 -12.292200
H -15.347800 -31.830600 -10.784000
H -15.252800 -31.190500 -9.347000
C -15.185400 -32.032200 -9.817000
H -14.639200 -35.228800 -11.748500
C -13.790800 -32.624300 -9.627900
H -13.705900 -32.958400 -8.764400
H -13.593600 -33.346200 -10.207900
O -12.847400 -30.402900 -9.681700
C -12.692100 -31.607300 -9.792400
O -11.516300 -32.146000 -10.035700
H -10.957800 -31.532400 -10.143200
31
Fragment
H -23.609400 -31.011300 -6.906700
O -23.050900 -30.397700 -6.799200
C -21.875100 -30.936400 -6.555900
O -21.719800 -32.140800 -6.445200
H -20.973600 -29.197500 -6.971400
H -20.861300 -29.585300 -5.527900
C -20.776400 -29.919400 -6.391400
H -19.928000 -27.314900 -8.512000
C -19.381800 -30.511500 -6.580500
H -19.314400 -31.353200 -6.110500
H -19.219400 -30.713100 -7.547500
H -19.107000 -28.507400 -9.055700
C -19.028400 -27.657900 -8.712000
H -18.649000 -27.125200 -9.444100
N -18.345200 -29.604600 -6.097600
O -18.221500 -25.357300 -7.198600
O -18.168300 -30.503600 -3.958900
N -18.144200 -27.637400 -7.566900
C -17.816800 -26.488100 -6.908000
C -17.778400 -29.748500 -4.861900
C -17.503500 -28.793900 -6.980500
H -17.076200 -29.328800 -7.651100
H -17.033000 -25.175900 -4.751200
N -16.986400 -26.792900 -5.880700
N -16.704000 -28.932300 -4.779000
C -16.499200 -28.164900 -5.974600
C -16.391800 -25.801400 -5.014600
H -16.220700 -28.872300 -4.129800
H -16.108300 -26.274600 -4.278700
H -15.667600 -25.351000 -5.456700
H -15.581200 -28.163400 -6.246400
62
Fragment
H -18.986000 -34.380300 -9.482900
H -18.899600 -37.192700 -8.693200
H -18.458900 -36.269100 -7.515200
H -18.346500 -33.671400 -7.366300
C -18.175400 -36.742300 -8.251100
C -18.068000 -34.378800 -9.211100
N -17.863200 -33.611400 -8.015500
N -17.580800 -35.750800 -9.117200
H -17.534200 -37.367800 -7.987700
H -17.491000 -33.214900 -10.887600
C -17.063700 -33.749800 -10.217000
C -16.788800 -32.795200 -8.098400
C -16.750400 -36.055600 -10.144500
N -16.423000 -34.906300 -10.803400
O -16.398900 -32.040100 -7.195400
O -16.345700 -37.186400 -10.435100
N -16.222000 -32.939100 -9.334100
H -15.918200 -35.418500 -12.680600
C -15.538800 -34.885800 -11.948500
H -15.460200 -34.036300 -12.292200
H -15.347800 -31.830600 -10.784000
H -15.252800 -31.190500 -9.347000
C -15.185400 -32.032200 -9.817000
H -14.639200 -35.228800 -11.748500
C -13.790800 -32.624300 -9.627900
H -13.705900 -32.958400 -8.764400
H -13.593600 -33.346200 -10.207900
O -12.847400 -30.402900 -9.681700
C -12.692100 -31.607300 -9.792400
O -11.516300 -32.146000 -10.035700
H -10.957800 -31.532400 -10.143200
H -23.609400 -31.011300 -6.906700
O -23.050900 -30.397700 -6.799200
C -21.875100 -30.936400 -6.555900
O -21.719800 -32.140800 -6.445200
H -20.973600 -29.197500 -6.971400
H -20.861300 -29.585300 -5.527900
C -20.776400 -29.919400 -6.391400
H -19.928000 -27.314900 -8.512000
C -19.381800 -30.511500 -6.580500
H -19.314400 -31.353200 -6.110500
H -19.219400 -30.713100 -7.547500
H -19.107000 -28.507400 -9.055700
C -19.028400 -27.657900 -8.712000
H -18.649000 -27.125200 -9.444100
N -18.345200 -29.604600 -6.097600
O -18.221500 -25.357300 -7.198600
O -18.168300 -30.503600 -3.958900
N -18.144200 -27.637400 -7.566900
C -17.816800 -26.488100 -6.908000
C -17.778400 -29.748500 -4.861900
C -17.503500 -28.793900 -6.980500
H -17.076200 -29.328800 -7.651100
H -17.033000 -25.175900 -4.751200
N -16.986400 -26.792900 -5.880700
N -16.704000 -28.932300 -4.779000
C -16.499200 -28.164900 -5.974600
C -16.391800 -25.801400 -5.014600
H -16.220700 -28.872300 -4.129800
H -16.108300 -26.274600 -4.278700
H -15.667600 -25.351000 -5.456700
H -15.581200 -28.163400 -6.246400
