31
Fragment
H -18.986000 -34.380300 -9.482900
H -18.899600 -37.192700 -8.693200
H -18.458900 -36.269100 -7.515200
H -18.346500 -33.671400 -7.366300
C -18.175400 -36.742300 -8.251100
C -18.068000 -34.378800 -9.211100
N -17.863200 -33.611400 -8.015500
N -17.580800 -35.750800 -9.117200
H -17.534200 -37.367800 -7.987700
H -17.491000 -33.214900 -10.887600
C -17.063700 -33.749800 -10.217000
C -16.788800 -32.795200 -8.098400
C -16.750400 -36.055600 -10.144500
N -16.423000 -34.906300 -10.803400
O -16.398900 -32.040100 -7.195400
O -16.345700 -37.186400 -10.435100
N -16.222000 -32.939100 -9.334100
H -15.918200 -35.418500 -12.680600
C -15.538800 -34.885800 -11.948500
H -15.460200 -34.036300 -12.292200
H -15.347800 -31.830600 -10.784000
H -15.252800 -31.190500 -9.347000
C -15.185400 -32.032200 -9.817000
H -14.639200 -35.228800 -11.748500
C -13.790800 -32.624300 -9.627900
H -13.705900 -32.958400 -8.764400
H -13.593600 -33.346200 -10.207900
O -12.847400 -30.402900 -9.681700
C -12.692100 -31.607300 -9.792400
O -11.516300 -32.146000 -10.035700
H -10.957800 -31.532400 -10.143200
31
Fragment
H -14.967600 -31.011300 -13.379700
O -14.409100 -30.397700 -13.272200
C -13.233300 -30.936400 -13.028900
O -13.078000 -32.140800 -12.918200
H -12.331800 -29.197500 -13.444400
H -12.219500 -29.585300 -12.000900
C -12.134600 -29.919400 -12.864400
H -11.286200 -27.314900 -14.985000
C -10.740000 -30.511500 -13.053500
H -10.672600 -31.353200 -12.583500
H -10.577600 -30.713100 -14.020500
H -10.465200 -28.507400 -15.528700
C -10.386600 -27.657900 -15.185000
H -10.007200 -27.125200 -15.917100
N -9.703400 -29.604600 -12.570600
O -9.579700 -25.357300 -13.671600
O -9.526500 -30.503600 -10.431900
N -9.502400 -27.637400 -14.039900
C -9.175000 -26.488100 -13.381000
C -9.136600 -29.748500 -11.334900
C -8.861700 -28.793900 -13.453500
H -8.434400 -29.328800 -14.124100
H -8.391200 -25.175900 -11.224200
N -8.344600 -26.792900 -12.353700
N -8.062200 -28.932300 -11.252000
C -7.857400 -28.164900 -12.447600
C -7.750000 -25.801400 -11.487600
H -7.578900 -28.872300 -10.602800
H -7.466500 -26.274600 -10.751700
H -7.025800 -25.351000 -11.929700
H -6.939400 -28.163400 -12.719400
62
Fragment
H -18.986000 -34.380300 -9.482900
H -18.899600 -37.192700 -8.693200
H -18.458900 -36.269100 -7.515200
H -18.346500 -33.671400 -7.366300
C -18.175400 -36.742300 -8.251100
C -18.068000 -34.378800 -9.211100
N -17.863200 -33.611400 -8.015500
N -17.580800 -35.750800 -9.117200
H -17.534200 -37.367800 -7.987700
H -17.491000 -33.214900 -10.887600
C -17.063700 -33.749800 -10.217000
C -16.788800 -32.795200 -8.098400
C -16.750400 -36.055600 -10.144500
N -16.423000 -34.906300 -10.803400
O -16.398900 -32.040100 -7.195400
O -16.345700 -37.186400 -10.435100
N -16.222000 -32.939100 -9.334100
H -15.918200 -35.418500 -12.680600
C -15.538800 -34.885800 -11.948500
H -15.460200 -34.036300 -12.292200
H -15.347800 -31.830600 -10.784000
H -15.252800 -31.190500 -9.347000
C -15.185400 -32.032200 -9.817000
H -14.639200 -35.228800 -11.748500
C -13.790800 -32.624300 -9.627900
H -13.705900 -32.958400 -8.764400
H -13.593600 -33.346200 -10.207900
O -12.847400 -30.402900 -9.681700
C -12.692100 -31.607300 -9.792400
O -11.516300 -32.146000 -10.035700
H -10.957800 -31.532400 -10.143200
H -14.967600 -31.011300 -13.379700
O -14.409100 -30.397700 -13.272200
C -13.233300 -30.936400 -13.028900
O -13.078000 -32.140800 -12.918200
H -12.331800 -29.197500 -13.444400
H -12.219500 -29.585300 -12.000900
C -12.134600 -29.919400 -12.864400
H -11.286200 -27.314900 -14.985000
C -10.740000 -30.511500 -13.053500
H -10.672600 -31.353200 -12.583500
H -10.577600 -30.713100 -14.020500
H -10.465200 -28.507400 -15.528700
C -10.386600 -27.657900 -15.185000
H -10.007200 -27.125200 -15.917100
N -9.703400 -29.604600 -12.570600
O -9.579700 -25.357300 -13.671600
O -9.526500 -30.503600 -10.431900
N -9.502400 -27.637400 -14.039900
C -9.175000 -26.488100 -13.381000
C -9.136600 -29.748500 -11.334900
C -8.861700 -28.793900 -13.453500
H -8.434400 -29.328800 -14.124100
H -8.391200 -25.175900 -11.224200
N -8.344600 -26.792900 -12.353700
N -8.062200 -28.932300 -11.252000
C -7.857400 -28.164900 -12.447600
C -7.750000 -25.801400 -11.487600
H -7.578900 -28.872300 -10.602800
H -7.466500 -26.274600 -10.751700
H -7.025800 -25.351000 -11.929700
H -6.939400 -28.163400 -12.719400
