28
Fragment
H -10.020300 -16.501400 -10.711600
H -9.958900 -16.565700 -9.113000
H -9.938200 -14.009100 -10.620500
H -9.896300 -14.086000 -9.022800
C -9.424700 -16.552100 -9.934600
C -9.352000 -14.063600 -9.837400
H -8.886900 -17.369600 -9.988100
H -8.762500 -13.281200 -9.814600
C -8.504700 -15.340000 -9.921500
H -8.452600 -13.904800 -12.390700
O -8.003300 -15.788200 -7.605600
N -7.681000 -15.315700 -11.139000
C -7.621500 -15.350700 -8.667200
C -7.561100 -14.204900 -12.050800
H -7.188300 -14.937600 -14.029500
H -6.946100 -12.419900 -11.035700
C -6.773800 -16.301700 -11.424600
N -6.752000 -13.081500 -11.580500
C -6.670600 -14.776800 -13.189500
O -6.576600 -17.301400 -10.724700
O -6.446800 -14.784600 -8.849400
N -6.178900 -16.015200 -12.601800
H -6.037200 -14.693000 -8.111000
C -5.723900 -12.814500 -12.421400
N -5.665000 -13.767400 -13.356000
H -5.475200 -16.509200 -12.844400
H -5.167700 -13.844400 -14.000600
O -4.953500 -11.837300 -12.344300
28
Fragment
O -3.613700 -6.965600 -13.933200
H -3.399500 -8.972700 -12.276800
H -3.092000 -11.637500 -13.433000
N -2.902200 -8.895700 -12.921500
C -2.843300 -7.942800 -13.856100
H -2.530000 -9.821300 -18.166500
N -2.388300 -11.143500 -13.675700
O -2.120400 -9.912900 -17.428100
O -1.990600 -12.429700 -15.552700
C -1.896600 -9.905100 -13.087900
N -1.815200 -8.209800 -14.697000
C -1.793400 -11.430000 -14.852900
H -1.621100 -7.548200 -15.241800
H -1.378900 -10.065900 -12.247900
C -1.006100 -9.333200 -14.226600
C -0.945700 -10.479000 -17.610300
N -0.886200 -10.444000 -15.138400
O -0.563900 -10.916500 -18.671900
H -0.114600 -9.033100 -13.886800
C -0.062500 -10.468300 -16.356000
H 0.195300 -8.409500 -16.462800
H 0.319700 -12.497900 -16.289400
C 0.784800 -9.191900 -16.440100
C 0.857500 -11.680400 -16.342800
H 1.329100 -9.214300 -17.254700
H 1.371000 -9.137400 -15.657000
H 1.391700 -11.694000 -17.164400
H 1.453100 -11.629700 -15.565900
56
Fragment
H -10.020300 -16.501400 -10.711600
H -9.958900 -16.565700 -9.113000
H -9.938200 -14.009100 -10.620500
H -9.896300 -14.086000 -9.022800
C -9.424700 -16.552100 -9.934600
C -9.352000 -14.063600 -9.837400
H -8.886900 -17.369600 -9.988100
H -8.762500 -13.281200 -9.814600
C -8.504700 -15.340000 -9.921500
H -8.452600 -13.904800 -12.390700
O -8.003300 -15.788200 -7.605600
N -7.681000 -15.315700 -11.139000
C -7.621500 -15.350700 -8.667200
C -7.561100 -14.204900 -12.050800
H -7.188300 -14.937600 -14.029500
H -6.946100 -12.419900 -11.035700
C -6.773800 -16.301700 -11.424600
N -6.752000 -13.081500 -11.580500
C -6.670600 -14.776800 -13.189500
O -6.576600 -17.301400 -10.724700
O -6.446800 -14.784600 -8.849400
N -6.178900 -16.015200 -12.601800
H -6.037200 -14.693000 -8.111000
C -5.723900 -12.814500 -12.421400
N -5.665000 -13.767400 -13.356000
H -5.475200 -16.509200 -12.844400
H -5.167700 -13.844400 -14.000600
O -4.953500 -11.837300 -12.344300
O -3.613700 -6.965600 -13.933200
H -3.399500 -8.972700 -12.276800
H -3.092000 -11.637500 -13.433000
N -2.902200 -8.895700 -12.921500
C -2.843300 -7.942800 -13.856100
H -2.530000 -9.821300 -18.166500
N -2.388300 -11.143500 -13.675700
O -2.120400 -9.912900 -17.428100
O -1.990600 -12.429700 -15.552700
C -1.896600 -9.905100 -13.087900
N -1.815200 -8.209800 -14.697000
C -1.793400 -11.430000 -14.852900
H -1.621100 -7.548200 -15.241800
H -1.378900 -10.065900 -12.247900
C -1.006100 -9.333200 -14.226600
C -0.945700 -10.479000 -17.610300
N -0.886200 -10.444000 -15.138400
O -0.563900 -10.916500 -18.671900
H -0.114600 -9.033100 -13.886800
C -0.062500 -10.468300 -16.356000
H 0.195300 -8.409500 -16.462800
H 0.319700 -12.497900 -16.289400
C 0.784800 -9.191900 -16.440100
C 0.857500 -11.680400 -16.342800
H 1.329100 -9.214300 -17.254700
H 1.371000 -9.137400 -15.657000
H 1.391700 -11.694000 -17.164400
H 1.453100 -11.629700 -15.565900
