28
Fragment
H -10.020300 -16.501400 -10.711600
H -9.958900 -16.565700 -9.113000
H -9.938200 -14.009100 -10.620500
H -9.896300 -14.086000 -9.022800
C -9.424700 -16.552100 -9.934600
C -9.352000 -14.063600 -9.837400
H -8.886900 -17.369600 -9.988100
H -8.762500 -13.281200 -9.814600
C -8.504700 -15.340000 -9.921500
H -8.452600 -13.904800 -12.390700
O -8.003300 -15.788200 -7.605600
N -7.681000 -15.315700 -11.139000
C -7.621500 -15.350700 -8.667200
C -7.561100 -14.204900 -12.050800
H -7.188300 -14.937600 -14.029500
H -6.946100 -12.419900 -11.035700
C -6.773800 -16.301700 -11.424600
N -6.752000 -13.081500 -11.580500
C -6.670600 -14.776800 -13.189500
O -6.576600 -17.301400 -10.724700
O -6.446800 -14.784600 -8.849400
N -6.178900 -16.015200 -12.601800
H -6.037200 -14.693000 -8.111000
C -5.723900 -12.814500 -12.421400
N -5.665000 -13.767400 -13.356000
H -5.475200 -16.509200 -12.844400
H -5.167700 -13.844400 -14.000600
O -4.953500 -11.837300 -12.344300
28
Fragment
H -8.798200 -16.501400 -19.470700
H -8.736800 -16.565700 -17.872200
H -8.716100 -14.009100 -19.379600
H -8.674200 -14.086000 -17.782000
C -8.202600 -16.552100 -18.693800
C -8.129900 -14.063600 -18.596600
H -7.664800 -17.369600 -18.747200
H -7.540300 -13.281200 -18.573800
C -7.282600 -15.340000 -18.680600
H -7.230400 -13.904800 -21.149800
O -6.781200 -15.788200 -16.364700
N -6.458800 -15.315700 -19.898200
C -6.399400 -15.350700 -17.426300
C -6.338900 -14.204900 -20.810000
H -5.966200 -14.937600 -22.788700
H -5.723900 -12.419900 -19.794800
C -5.551600 -16.301700 -20.183700
N -5.529900 -13.081500 -20.339600
C -5.448500 -14.776800 -21.948700
O -5.354400 -17.301400 -19.483900
O -5.224600 -14.784600 -17.608500
N -4.956700 -16.015200 -21.360900
H -4.815100 -14.693000 -16.870100
C -4.501700 -12.814500 -21.180500
N -4.442900 -13.767400 -22.115100
H -4.253100 -16.509200 -21.603600
H -3.945600 -13.844400 -22.759800
O -3.731400 -11.837300 -21.103400
56
Fragment
H -10.020300 -16.501400 -10.711600
H -9.958900 -16.565700 -9.113000
H -9.938200 -14.009100 -10.620500
H -9.896300 -14.086000 -9.022800
C -9.424700 -16.552100 -9.934600
C -9.352000 -14.063600 -9.837400
H -8.886900 -17.369600 -9.988100
H -8.762500 -13.281200 -9.814600
C -8.504700 -15.340000 -9.921500
H -8.452600 -13.904800 -12.390700
O -8.003300 -15.788200 -7.605600
N -7.681000 -15.315700 -11.139000
C -7.621500 -15.350700 -8.667200
C -7.561100 -14.204900 -12.050800
H -7.188300 -14.937600 -14.029500
H -6.946100 -12.419900 -11.035700
C -6.773800 -16.301700 -11.424600
N -6.752000 -13.081500 -11.580500
C -6.670600 -14.776800 -13.189500
O -6.576600 -17.301400 -10.724700
O -6.446800 -14.784600 -8.849400
N -6.178900 -16.015200 -12.601800
H -6.037200 -14.693000 -8.111000
C -5.723900 -12.814500 -12.421400
N -5.665000 -13.767400 -13.356000
H -5.475200 -16.509200 -12.844400
H -5.167700 -13.844400 -14.000600
O -4.953500 -11.837300 -12.344300
H -8.798200 -16.501400 -19.470700
H -8.736800 -16.565700 -17.872200
H -8.716100 -14.009100 -19.379600
H -8.674200 -14.086000 -17.782000
C -8.202600 -16.552100 -18.693800
C -8.129900 -14.063600 -18.596600
H -7.664800 -17.369600 -18.747200
H -7.540300 -13.281200 -18.573800
C -7.282600 -15.340000 -18.680600
H -7.230400 -13.904800 -21.149800
O -6.781200 -15.788200 -16.364700
N -6.458800 -15.315700 -19.898200
C -6.399400 -15.350700 -17.426300
C -6.338900 -14.204900 -20.810000
H -5.966200 -14.937600 -22.788700
H -5.723900 -12.419900 -19.794800
C -5.551600 -16.301700 -20.183700
N -5.529900 -13.081500 -20.339600
C -5.448500 -14.776800 -21.948700
O -5.354400 -17.301400 -19.483900
O -5.224600 -14.784600 -17.608500
N -4.956700 -16.015200 -21.360900
H -4.815100 -14.693000 -16.870100
C -4.501700 -12.814500 -21.180500
N -4.442900 -13.767400 -22.115100
H -4.253100 -16.509200 -21.603600
H -3.945600 -13.844400 -22.759800
O -3.731400 -11.837300 -21.103400
