28
Fragment
H -10.020300 -16.501400 -10.711600
H -9.958900 -16.565700 -9.113000
H -9.938200 -14.009100 -10.620500
H -9.896300 -14.086000 -9.022800
C -9.424700 -16.552100 -9.934600
C -9.352000 -14.063600 -9.837400
H -8.886900 -17.369600 -9.988100
H -8.762500 -13.281200 -9.814600
C -8.504700 -15.340000 -9.921500
H -8.452600 -13.904800 -12.390700
O -8.003300 -15.788200 -7.605600
N -7.681000 -15.315700 -11.139000
C -7.621500 -15.350700 -8.667200
C -7.561100 -14.204900 -12.050800
H -7.188300 -14.937600 -14.029500
H -6.946100 -12.419900 -11.035700
C -6.773800 -16.301700 -11.424600
N -6.752000 -13.081500 -11.580500
C -6.670600 -14.776800 -13.189500
O -6.576600 -17.301400 -10.724700
O -6.446800 -14.784600 -8.849400
N -6.178900 -16.015200 -12.601800
H -6.037200 -14.693000 -8.111000
C -5.723900 -12.814500 -12.421400
N -5.665000 -13.767400 -13.356000
H -5.475200 -16.509200 -12.844400
H -5.167700 -13.844400 -14.000600
O -4.953500 -11.837300 -12.344300
28
Fragment
O -10.952600 -6.965600 -5.174000
H -10.738400 -8.972700 -3.517700
H -10.430900 -11.637500 -4.673900
N -10.241100 -8.895700 -4.162300
C -10.182200 -7.942800 -5.096900
H -9.868900 -9.821300 -9.407300
N -9.727300 -11.143500 -4.916500
O -9.459400 -9.912900 -8.668900
O -9.329600 -12.429700 -6.793600
C -9.235500 -9.905100 -4.328800
N -9.154100 -8.209800 -5.937800
C -9.132400 -11.430000 -6.093700
H -8.960100 -7.548200 -6.482600
H -8.717800 -10.065900 -3.488800
C -8.345100 -9.333200 -5.467500
C -8.284600 -10.479000 -8.851100
N -8.225200 -10.444000 -6.379300
O -7.902800 -10.916500 -9.912700
H -7.453500 -9.033100 -5.127600
C -7.401400 -10.468300 -7.596800
H -7.143700 -8.409500 -7.703700
H -7.019200 -12.497900 -7.530200
C -6.554100 -9.191900 -7.680900
C -6.481400 -11.680400 -7.583700
H -6.009800 -9.214300 -8.495500
H -5.967900 -9.137400 -6.897800
H -5.947200 -11.694000 -8.405300
H -5.885800 -11.629700 -6.806700
56
Fragment
H -10.020300 -16.501400 -10.711600
H -9.958900 -16.565700 -9.113000
H -9.938200 -14.009100 -10.620500
H -9.896300 -14.086000 -9.022800
C -9.424700 -16.552100 -9.934600
C -9.352000 -14.063600 -9.837400
H -8.886900 -17.369600 -9.988100
H -8.762500 -13.281200 -9.814600
C -8.504700 -15.340000 -9.921500
H -8.452600 -13.904800 -12.390700
O -8.003300 -15.788200 -7.605600
N -7.681000 -15.315700 -11.139000
C -7.621500 -15.350700 -8.667200
C -7.561100 -14.204900 -12.050800
H -7.188300 -14.937600 -14.029500
H -6.946100 -12.419900 -11.035700
C -6.773800 -16.301700 -11.424600
N -6.752000 -13.081500 -11.580500
C -6.670600 -14.776800 -13.189500
O -6.576600 -17.301400 -10.724700
O -6.446800 -14.784600 -8.849400
N -6.178900 -16.015200 -12.601800
H -6.037200 -14.693000 -8.111000
C -5.723900 -12.814500 -12.421400
N -5.665000 -13.767400 -13.356000
H -5.475200 -16.509200 -12.844400
H -5.167700 -13.844400 -14.000600
O -4.953500 -11.837300 -12.344300
O -10.952600 -6.965600 -5.174000
H -10.738400 -8.972700 -3.517700
H -10.430900 -11.637500 -4.673900
N -10.241100 -8.895700 -4.162300
C -10.182200 -7.942800 -5.096900
H -9.868900 -9.821300 -9.407300
N -9.727300 -11.143500 -4.916500
O -9.459400 -9.912900 -8.668900
O -9.329600 -12.429700 -6.793600
C -9.235500 -9.905100 -4.328800
N -9.154100 -8.209800 -5.937800
C -9.132400 -11.430000 -6.093700
H -8.960100 -7.548200 -6.482600
H -8.717800 -10.065900 -3.488800
C -8.345100 -9.333200 -5.467500
C -8.284600 -10.479000 -8.851100
N -8.225200 -10.444000 -6.379300
O -7.902800 -10.916500 -9.912700
H -7.453500 -9.033100 -5.127600
C -7.401400 -10.468300 -7.596800
H -7.143700 -8.409500 -7.703700
H -7.019200 -12.497900 -7.530200
C -6.554100 -9.191900 -7.680900
C -6.481400 -11.680400 -7.583700
H -6.009800 -9.214300 -8.495500
H -5.967900 -9.137400 -6.897800
H -5.947200 -11.694000 -8.405300
H -5.885800 -11.629700 -6.806700
