31
Fragment
H -18.986000 -34.380300 -9.482900
H -18.899600 -37.192700 -8.693200
H -18.458900 -36.269100 -7.515200
H -18.346500 -33.671400 -7.366300
C -18.175400 -36.742300 -8.251100
C -18.068000 -34.378800 -9.211100
N -17.863200 -33.611400 -8.015500
N -17.580800 -35.750800 -9.117200
H -17.534200 -37.367800 -7.987700
H -17.491000 -33.214900 -10.887600
C -17.063700 -33.749800 -10.217000
C -16.788800 -32.795200 -8.098400
C -16.750400 -36.055600 -10.144500
N -16.423000 -34.906300 -10.803400
O -16.398900 -32.040100 -7.195400
O -16.345700 -37.186400 -10.435100
N -16.222000 -32.939100 -9.334100
H -15.918200 -35.418500 -12.680600
C -15.538800 -34.885800 -11.948500
H -15.460200 -34.036300 -12.292200
H -15.347800 -31.830600 -10.784000
H -15.252800 -31.190500 -9.347000
C -15.185400 -32.032200 -9.817000
H -14.639200 -35.228800 -11.748500
C -13.790800 -32.624300 -9.627900
H -13.705900 -32.958400 -8.764400
H -13.593600 -33.346200 -10.207900
O -12.847400 -30.402900 -9.681700
C -12.692100 -31.607300 -9.792400
O -11.516300 -32.146000 -10.035700
H -10.957800 -31.532400 -10.143200
31
Fragment
H -14.665100 -38.587400 -15.955900
H -14.578700 -35.775000 -15.166200
H -14.138000 -36.698600 -13.988200
H -14.025600 -39.296200 -13.839300
C -13.854500 -36.225300 -14.724100
C -13.747100 -38.588800 -15.684100
N -13.542300 -39.356200 -14.488500
N -13.259900 -37.216800 -15.590200
H -13.213300 -35.599900 -14.460700
H -13.170100 -39.752800 -17.360600
C -12.742800 -39.217800 -16.690000
C -12.467900 -40.172400 -14.571400
C -12.429500 -36.912000 -16.617500
N -12.102100 -38.061400 -17.276400
O -12.078000 -40.927600 -13.668400
O -12.024800 -35.781300 -16.908100
N -11.901100 -40.028600 -15.807100
H -11.597300 -37.549200 -19.153600
C -11.217900 -38.081800 -18.421500
H -11.139300 -38.931400 -18.765200
H -11.026900 -41.137100 -17.257000
H -10.931900 -41.777100 -15.820000
C -10.864500 -40.935500 -16.290000
H -10.318300 -37.738900 -18.221500
C -9.469900 -40.343400 -16.100900
H -9.385000 -40.009200 -15.237400
H -9.272700 -39.621400 -16.680900
O -8.526500 -42.564700 -16.154700
C -8.371200 -41.360400 -16.265400
O -7.195400 -40.821600 -16.508700
H -6.636900 -41.435200 -16.616200
62
Fragment
H -18.986000 -34.380300 -9.482900
H -18.899600 -37.192700 -8.693200
H -18.458900 -36.269100 -7.515200
H -18.346500 -33.671400 -7.366300
C -18.175400 -36.742300 -8.251100
C -18.068000 -34.378800 -9.211100
N -17.863200 -33.611400 -8.015500
N -17.580800 -35.750800 -9.117200
H -17.534200 -37.367800 -7.987700
H -17.491000 -33.214900 -10.887600
C -17.063700 -33.749800 -10.217000
C -16.788800 -32.795200 -8.098400
C -16.750400 -36.055600 -10.144500
N -16.423000 -34.906300 -10.803400
O -16.398900 -32.040100 -7.195400
O -16.345700 -37.186400 -10.435100
N -16.222000 -32.939100 -9.334100
H -15.918200 -35.418500 -12.680600
C -15.538800 -34.885800 -11.948500
H -15.460200 -34.036300 -12.292200
H -15.347800 -31.830600 -10.784000
H -15.252800 -31.190500 -9.347000
C -15.185400 -32.032200 -9.817000
H -14.639200 -35.228800 -11.748500
C -13.790800 -32.624300 -9.627900
H -13.705900 -32.958400 -8.764400
H -13.593600 -33.346200 -10.207900
O -12.847400 -30.402900 -9.681700
C -12.692100 -31.607300 -9.792400
O -11.516300 -32.146000 -10.035700
H -10.957800 -31.532400 -10.143200
H -14.665100 -38.587400 -15.955900
H -14.578700 -35.775000 -15.166200
H -14.138000 -36.698600 -13.988200
H -14.025600 -39.296200 -13.839300
C -13.854500 -36.225300 -14.724100
C -13.747100 -38.588800 -15.684100
N -13.542300 -39.356200 -14.488500
N -13.259900 -37.216800 -15.590200
H -13.213300 -35.599900 -14.460700
H -13.170100 -39.752800 -17.360600
C -12.742800 -39.217800 -16.690000
C -12.467900 -40.172400 -14.571400
C -12.429500 -36.912000 -16.617500
N -12.102100 -38.061400 -17.276400
O -12.078000 -40.927600 -13.668400
O -12.024800 -35.781300 -16.908100
N -11.901100 -40.028600 -15.807100
H -11.597300 -37.549200 -19.153600
C -11.217900 -38.081800 -18.421500
H -11.139300 -38.931400 -18.765200
H -11.026900 -41.137100 -17.257000
H -10.931900 -41.777100 -15.820000
C -10.864500 -40.935500 -16.290000
H -10.318300 -37.738900 -18.221500
C -9.469900 -40.343400 -16.100900
H -9.385000 -40.009200 -15.237400
H -9.272700 -39.621400 -16.680900
O -8.526500 -42.564700 -16.154700
C -8.371200 -41.360400 -16.265400
O -7.195400 -40.821600 -16.508700
H -6.636900 -41.435200 -16.616200
