28
Fragment
H -10.020300 -16.501400 -10.711600
H -9.958900 -16.565700 -9.113000
H -9.938200 -14.009100 -10.620500
H -9.896300 -14.086000 -9.022800
C -9.424700 -16.552100 -9.934600
C -9.352000 -14.063600 -9.837400
H -8.886900 -17.369600 -9.988100
H -8.762500 -13.281200 -9.814600
C -8.504700 -15.340000 -9.921500
H -8.452600 -13.904800 -12.390700
O -8.003300 -15.788200 -7.605600
N -7.681000 -15.315700 -11.139000
C -7.621500 -15.350700 -8.667200
C -7.561100 -14.204900 -12.050800
H -7.188300 -14.937600 -14.029500
H -6.946100 -12.419900 -11.035700
C -6.773800 -16.301700 -11.424600
N -6.752000 -13.081500 -11.580500
C -6.670600 -14.776800 -13.189500
O -6.576600 -17.301400 -10.724700
O -6.446800 -14.784600 -8.849400
N -6.178900 -16.015200 -12.601800
H -6.037200 -14.693000 -8.111000
C -5.723900 -12.814500 -12.421400
N -5.665000 -13.767400 -13.356000
H -5.475200 -16.509200 -12.844400
H -5.167700 -13.844400 -14.000600
O -4.953500 -11.837300 -12.344300
3
Fragment
O -5.020500 -14.458200 -6.651700
H -4.868100 -15.183100 -6.113000
H -4.299800 -13.895100 -6.678900
31
Fragment
H -10.020300 -16.501400 -10.711600
H -9.958900 -16.565700 -9.113000
H -9.938200 -14.009100 -10.620500
H -9.896300 -14.086000 -9.022800
C -9.424700 -16.552100 -9.934600
C -9.352000 -14.063600 -9.837400
H -8.886900 -17.369600 -9.988100
H -8.762500 -13.281200 -9.814600
C -8.504700 -15.340000 -9.921500
H -8.452600 -13.904800 -12.390700
O -8.003300 -15.788200 -7.605600
N -7.681000 -15.315700 -11.139000
C -7.621500 -15.350700 -8.667200
C -7.561100 -14.204900 -12.050800
H -7.188300 -14.937600 -14.029500
H -6.946100 -12.419900 -11.035700
C -6.773800 -16.301700 -11.424600
N -6.752000 -13.081500 -11.580500
C -6.670600 -14.776800 -13.189500
O -6.576600 -17.301400 -10.724700
O -6.446800 -14.784600 -8.849400
N -6.178900 -16.015200 -12.601800
H -6.037200 -14.693000 -8.111000
C -5.723900 -12.814500 -12.421400
N -5.665000 -13.767400 -13.356000
H -5.475200 -16.509200 -12.844400
H -5.167700 -13.844400 -14.000600
O -4.953500 -11.837300 -12.344300
O -5.020500 -14.458200 -6.651700
H -4.868100 -15.183100 -6.113000
H -4.299800 -13.895100 -6.678900
