21
Fragment
O -14.590500 -21.777900 -24.105600
H -14.580100 -23.969000 -23.454200
H -14.570900 -21.020700 -24.468600
O -14.473000 -24.061100 -22.626000
C -14.178700 -21.672700 -22.806800
C -14.123500 -22.870500 -22.080100
H -13.898300 -19.666000 -22.707400
C -13.836400 -20.477000 -22.214900
C -13.700700 -22.839100 -20.759200
O -13.670000 -24.035600 -20.106200
C -13.402000 -20.459800 -20.895600
H -13.354000 -16.644800 -19.695100
C -13.334900 -21.640300 -20.166800
H -13.266100 -23.945700 -19.376100
O -13.130300 -18.139300 -21.003000
H -13.040000 -21.627200 -19.264400
C -13.032900 -19.208400 -20.205900
H -12.766800 -16.177100 -21.107900
C -12.738300 -16.875700 -20.421400
O -12.693900 -19.125500 -19.052800
H -11.827800 -16.947600 -20.067100
21
Fragment
H -17.041800 -26.107300 -21.175600
H -16.881900 -31.329600 -20.896200
O -16.803700 -28.411500 -21.755200
N -16.623300 -31.010600 -20.116800
H -16.591400 -25.371200 -19.827500
C -16.525600 -28.502800 -20.559000
C -16.423300 -29.689400 -19.792200
H -16.406900 -32.662000 -18.974800
C -16.351700 -26.060700 -20.481400
C -16.349300 -31.715300 -19.014500
N -16.246300 -27.360700 -19.806700
C -16.043700 -29.698500 -18.477300
N -15.986700 -30.958000 -17.973500
H -15.904500 -28.105900 -15.852300
C -15.850000 -27.333400 -18.467600
N -15.746800 -28.534200 -17.811800
O -15.588400 -26.279200 -17.898400
H -15.490400 -25.834900 -20.891800
C -15.249000 -28.537200 -16.438700
H -15.105700 -29.461600 -16.144800
H -14.401500 -28.047200 -16.397700
42
Fragment
O -14.590500 -21.777900 -24.105600
H -14.580100 -23.969000 -23.454200
H -14.570900 -21.020700 -24.468600
O -14.473000 -24.061100 -22.626000
C -14.178700 -21.672700 -22.806800
C -14.123500 -22.870500 -22.080100
H -13.898300 -19.666000 -22.707400
C -13.836400 -20.477000 -22.214900
C -13.700700 -22.839100 -20.759200
O -13.670000 -24.035600 -20.106200
C -13.402000 -20.459800 -20.895600
H -13.354000 -16.644800 -19.695100
C -13.334900 -21.640300 -20.166800
H -13.266100 -23.945700 -19.376100
O -13.130300 -18.139300 -21.003000
H -13.040000 -21.627200 -19.264400
C -13.032900 -19.208400 -20.205900
H -12.766800 -16.177100 -21.107900
C -12.738300 -16.875700 -20.421400
O -12.693900 -19.125500 -19.052800
H -11.827800 -16.947600 -20.067100
H -17.041800 -26.107300 -21.175600
H -16.881900 -31.329600 -20.896200
O -16.803700 -28.411500 -21.755200
N -16.623300 -31.010600 -20.116800
H -16.591400 -25.371200 -19.827500
C -16.525600 -28.502800 -20.559000
C -16.423300 -29.689400 -19.792200
H -16.406900 -32.662000 -18.974800
C -16.351700 -26.060700 -20.481400
C -16.349300 -31.715300 -19.014500
N -16.246300 -27.360700 -19.806700
C -16.043700 -29.698500 -18.477300
N -15.986700 -30.958000 -17.973500
H -15.904500 -28.105900 -15.852300
C -15.850000 -27.333400 -18.467600
N -15.746800 -28.534200 -17.811800
O -15.588400 -26.279200 -17.898400
H -15.490400 -25.834900 -20.891800
C -15.249000 -28.537200 -16.438700
H -15.105700 -29.461600 -16.144800
H -14.401500 -28.047200 -16.397700
