21
Fragment
O -14.590500 -21.777900 -24.105600
H -14.580100 -23.969000 -23.454200
H -14.570900 -21.020700 -24.468600
O -14.473000 -24.061100 -22.626000
C -14.178700 -21.672700 -22.806800
C -14.123500 -22.870500 -22.080100
H -13.898300 -19.666000 -22.707400
C -13.836400 -20.477000 -22.214900
C -13.700700 -22.839100 -20.759200
O -13.670000 -24.035600 -20.106200
C -13.402000 -20.459800 -20.895600
H -13.354000 -16.644800 -19.695100
C -13.334900 -21.640300 -20.166800
H -13.266100 -23.945700 -19.376100
O -13.130300 -18.139300 -21.003000
H -13.040000 -21.627200 -19.264400
C -13.032900 -19.208400 -20.205900
H -12.766800 -16.177100 -21.107900
C -12.738300 -16.875700 -20.421400
O -12.693900 -19.125500 -19.052800
H -11.827800 -16.947600 -20.067100
21
Fragment
H -12.116900 -23.550800 -24.036400
O -11.250800 -21.372900 -25.050600
C -11.206400 -23.622700 -23.682100
H -11.177800 -24.321300 -22.995600
C -10.911800 -21.290000 -23.897600
H -10.904700 -18.871200 -24.839100
O -10.814400 -22.359100 -23.100500
H -10.678600 -16.552700 -24.727400
C -10.609800 -18.858100 -23.936700
H -10.590700 -23.853600 -24.408300
C -10.542600 -20.038600 -23.207800
O -10.274600 -16.462800 -23.997300
C -10.244000 -17.659300 -23.344300
C -10.108300 -20.021400 -21.888600
H -10.046400 -20.832400 -21.396100
C -9.821200 -17.627900 -22.023400
C -9.766000 -18.825700 -21.296700
O -9.471700 -16.437300 -21.477500
H -9.373800 -19.477700 -19.634900
H -9.364600 -16.529400 -20.649200
O -9.354200 -18.720500 -19.997800
42
Fragment
O -14.590500 -21.777900 -24.105600
H -14.580100 -23.969000 -23.454200
H -14.570900 -21.020700 -24.468600
O -14.473000 -24.061100 -22.626000
C -14.178700 -21.672700 -22.806800
C -14.123500 -22.870500 -22.080100
H -13.898300 -19.666000 -22.707400
C -13.836400 -20.477000 -22.214900
C -13.700700 -22.839100 -20.759200
O -13.670000 -24.035600 -20.106200
C -13.402000 -20.459800 -20.895600
H -13.354000 -16.644800 -19.695100
C -13.334900 -21.640300 -20.166800
H -13.266100 -23.945700 -19.376100
O -13.130300 -18.139300 -21.003000
H -13.040000 -21.627200 -19.264400
C -13.032900 -19.208400 -20.205900
H -12.766800 -16.177100 -21.107900
C -12.738300 -16.875700 -20.421400
O -12.693900 -19.125500 -19.052800
H -11.827800 -16.947600 -20.067100
H -12.116900 -23.550800 -24.036400
O -11.250800 -21.372900 -25.050600
C -11.206400 -23.622700 -23.682100
H -11.177800 -24.321300 -22.995600
C -10.911800 -21.290000 -23.897600
H -10.904700 -18.871200 -24.839100
O -10.814400 -22.359100 -23.100500
H -10.678600 -16.552700 -24.727400
C -10.609800 -18.858100 -23.936700
H -10.590700 -23.853600 -24.408300
C -10.542600 -20.038600 -23.207800
O -10.274600 -16.462800 -23.997300
C -10.244000 -17.659300 -23.344300
C -10.108300 -20.021400 -21.888600
H -10.046400 -20.832400 -21.396100
C -9.821200 -17.627900 -22.023400
C -9.766000 -18.825700 -21.296700
O -9.471700 -16.437300 -21.477500
H -9.373800 -19.477700 -19.634900
H -9.364600 -16.529400 -20.649200
O -9.354200 -18.720500 -19.997800
