25
Fragment
O -23.394300 -3.998500 -42.046200
H -23.002600 -6.033800 -40.793300
N -22.534000 -3.552700 -41.309400
C -22.283900 -5.745500 -40.279100
O -22.190500 -2.379000 -41.290700
H -21.987400 -7.535800 -39.333300
C -21.862100 -4.465400 -40.401000
H -21.786300 -8.067000 -37.168300
C -21.662800 -6.665800 -39.388000
H -21.030100 -9.343700 -35.485900
C -20.889500 -8.014500 -36.928300
C -20.740500 -4.036700 -39.638100
C -20.604700 -6.301900 -38.612400
C -20.442400 -8.762700 -35.912500
C -20.112500 -4.962700 -38.754300
N -20.100400 -2.886500 -39.581300
N -20.056900 -7.167200 -37.629700
N -19.104700 -4.373300 -38.158100
O -19.089200 -3.103900 -38.669200
C -19.079900 -8.692100 -35.464800
C -18.724500 -7.132700 -37.299600
O -18.671800 -9.298000 -34.446200
C -18.235800 -7.857100 -36.268600
H -18.145900 -6.599400 -37.795300
H -17.327700 -7.813000 -36.075100
25
Fragment
H -30.881300 -4.313500 -36.075100
H -30.063100 -3.099900 -37.795300
C -29.973200 -4.357600 -36.268600
O -29.537200 -5.798500 -34.446200
C -29.484500 -3.633200 -37.299600
C -29.129100 -5.192600 -35.464800
O -29.119800 0.395600 -38.669200
N -29.104300 -0.873800 -38.158100
N -28.152100 -3.667700 -37.629700
N -28.108600 0.613000 -39.581300
C -28.096500 -1.463200 -38.754300
C -27.766600 -5.263200 -35.912500
C -27.604300 -2.802400 -38.612400
C -27.468500 -0.537200 -39.638100
C -27.319500 -4.515000 -36.928300
H -27.178900 -5.844200 -35.485900
C -26.546200 -3.166300 -39.388000
H -26.422700 -4.567500 -37.168300
C -26.346900 -0.965900 -40.401000
H -26.221600 -4.036300 -39.333300
O -26.018500 1.120500 -41.290700
C -25.925100 -2.246000 -40.279100
N -25.675000 -0.053200 -41.309400
H -25.206400 -2.534300 -40.793300
O -24.814700 -0.499000 -42.046200
50
Fragment
O -23.394300 -3.998500 -42.046200
H -23.002600 -6.033800 -40.793300
N -22.534000 -3.552700 -41.309400
C -22.283900 -5.745500 -40.279100
O -22.190500 -2.379000 -41.290700
H -21.987400 -7.535800 -39.333300
C -21.862100 -4.465400 -40.401000
H -21.786300 -8.067000 -37.168300
C -21.662800 -6.665800 -39.388000
H -21.030100 -9.343700 -35.485900
C -20.889500 -8.014500 -36.928300
C -20.740500 -4.036700 -39.638100
C -20.604700 -6.301900 -38.612400
C -20.442400 -8.762700 -35.912500
C -20.112500 -4.962700 -38.754300
N -20.100400 -2.886500 -39.581300
N -20.056900 -7.167200 -37.629700
N -19.104700 -4.373300 -38.158100
O -19.089200 -3.103900 -38.669200
C -19.079900 -8.692100 -35.464800
C -18.724500 -7.132700 -37.299600
O -18.671800 -9.298000 -34.446200
C -18.235800 -7.857100 -36.268600
H -18.145900 -6.599400 -37.795300
H -17.327700 -7.813000 -36.075100
H -30.881300 -4.313500 -36.075100
H -30.063100 -3.099900 -37.795300
C -29.973200 -4.357600 -36.268600
O -29.537200 -5.798500 -34.446200
C -29.484500 -3.633200 -37.299600
C -29.129100 -5.192600 -35.464800
O -29.119800 0.395600 -38.669200
N -29.104300 -0.873800 -38.158100
N -28.152100 -3.667700 -37.629700
N -28.108600 0.613000 -39.581300
C -28.096500 -1.463200 -38.754300
C -27.766600 -5.263200 -35.912500
C -27.604300 -2.802400 -38.612400
C -27.468500 -0.537200 -39.638100
C -27.319500 -4.515000 -36.928300
H -27.178900 -5.844200 -35.485900
C -26.546200 -3.166300 -39.388000
H -26.422700 -4.567500 -37.168300
C -26.346900 -0.965900 -40.401000
H -26.221600 -4.036300 -39.333300
O -26.018500 1.120500 -41.290700
C -25.925100 -2.246000 -40.279100
N -25.675000 -0.053200 -41.309400
H -25.206400 -2.534300 -40.793300
O -24.814700 -0.499000 -42.046200
