25
Fragment
O -23.394300 -3.998500 -42.046200
H -23.002600 -6.033800 -40.793300
N -22.534000 -3.552700 -41.309400
C -22.283900 -5.745500 -40.279100
O -22.190500 -2.379000 -41.290700
H -21.987400 -7.535800 -39.333300
C -21.862100 -4.465400 -40.401000
H -21.786300 -8.067000 -37.168300
C -21.662800 -6.665800 -39.388000
H -21.030100 -9.343700 -35.485900
C -20.889500 -8.014500 -36.928300
C -20.740500 -4.036700 -39.638100
C -20.604700 -6.301900 -38.612400
C -20.442400 -8.762700 -35.912500
C -20.112500 -4.962700 -38.754300
N -20.100400 -2.886500 -39.581300
N -20.056900 -7.167200 -37.629700
N -19.104700 -4.373300 -38.158100
O -19.089200 -3.103900 -38.669200
C -19.079900 -8.692100 -35.464800
C -18.724500 -7.132700 -37.299600
O -18.671800 -9.298000 -34.446200
C -18.235800 -7.857100 -36.268600
H -18.145900 -6.599400 -37.795300
H -17.327700 -7.813000 -36.075100
25
Fragment
O -30.281300 -3.998500 -40.770800
H -29.889600 -6.033800 -42.023700
N -29.421000 -3.552700 -41.507600
C -29.170900 -5.745500 -42.537900
O -29.077500 -2.379000 -41.526300
H -28.874400 -7.535800 -43.483700
C -28.749100 -4.465400 -42.416000
H -28.673300 -8.067000 -45.648700
C -28.549800 -6.665800 -43.429000
H -27.917100 -9.343700 -47.331100
C -27.776500 -8.014500 -45.888700
C -27.627500 -4.036700 -43.178900
C -27.491700 -6.301900 -44.204600
C -27.329400 -8.762700 -46.904500
C -26.999500 -4.962700 -44.062700
N -26.987400 -2.886500 -43.235700
N -26.943900 -7.167200 -45.187300
N -25.991700 -4.373300 -44.658900
O -25.976200 -3.103900 -44.147800
C -25.966900 -8.692100 -47.352200
C -25.611500 -7.132700 -45.517400
O -25.558800 -9.298000 -48.370800
C -25.122800 -7.857100 -46.548400
H -25.032900 -6.599400 -45.021700
H -24.214700 -7.813000 -46.741900
50
Fragment
O -23.394300 -3.998500 -42.046200
H -23.002600 -6.033800 -40.793300
N -22.534000 -3.552700 -41.309400
C -22.283900 -5.745500 -40.279100
O -22.190500 -2.379000 -41.290700
H -21.987400 -7.535800 -39.333300
C -21.862100 -4.465400 -40.401000
H -21.786300 -8.067000 -37.168300
C -21.662800 -6.665800 -39.388000
H -21.030100 -9.343700 -35.485900
C -20.889500 -8.014500 -36.928300
C -20.740500 -4.036700 -39.638100
C -20.604700 -6.301900 -38.612400
C -20.442400 -8.762700 -35.912500
C -20.112500 -4.962700 -38.754300
N -20.100400 -2.886500 -39.581300
N -20.056900 -7.167200 -37.629700
N -19.104700 -4.373300 -38.158100
O -19.089200 -3.103900 -38.669200
C -19.079900 -8.692100 -35.464800
C -18.724500 -7.132700 -37.299600
O -18.671800 -9.298000 -34.446200
C -18.235800 -7.857100 -36.268600
H -18.145900 -6.599400 -37.795300
H -17.327700 -7.813000 -36.075100
O -30.281300 -3.998500 -40.770800
H -29.889600 -6.033800 -42.023700
N -29.421000 -3.552700 -41.507600
C -29.170900 -5.745500 -42.537900
O -29.077500 -2.379000 -41.526300
H -28.874400 -7.535800 -43.483700
C -28.749100 -4.465400 -42.416000
H -28.673300 -8.067000 -45.648700
C -28.549800 -6.665800 -43.429000
H -27.917100 -9.343700 -47.331100
C -27.776500 -8.014500 -45.888700
C -27.627500 -4.036700 -43.178900
C -27.491700 -6.301900 -44.204600
C -27.329400 -8.762700 -46.904500
C -26.999500 -4.962700 -44.062700
N -26.987400 -2.886500 -43.235700
N -26.943900 -7.167200 -45.187300
N -25.991700 -4.373300 -44.658900
O -25.976200 -3.103900 -44.147800
C -25.966900 -8.692100 -47.352200
C -25.611500 -7.132700 -45.517400
O -25.558800 -9.298000 -48.370800
C -25.122800 -7.857100 -46.548400
H -25.032900 -6.599400 -45.021700
H -24.214700 -7.813000 -46.741900
