25
Fragment
O -23.394300 -3.998500 -42.046200
H -23.002600 -6.033800 -40.793300
N -22.534000 -3.552700 -41.309400
C -22.283900 -5.745500 -40.279100
O -22.190500 -2.379000 -41.290700
H -21.987400 -7.535800 -39.333300
C -21.862100 -4.465400 -40.401000
H -21.786300 -8.067000 -37.168300
C -21.662800 -6.665800 -39.388000
H -21.030100 -9.343700 -35.485900
C -20.889500 -8.014500 -36.928300
C -20.740500 -4.036700 -39.638100
C -20.604700 -6.301900 -38.612400
C -20.442400 -8.762700 -35.912500
C -20.112500 -4.962700 -38.754300
N -20.100400 -2.886500 -39.581300
N -20.056900 -7.167200 -37.629700
N -19.104700 -4.373300 -38.158100
O -19.089200 -3.103900 -38.669200
C -19.079900 -8.692100 -35.464800
C -18.724500 -7.132700 -37.299600
O -18.671800 -9.298000 -34.446200
C -18.235800 -7.857100 -36.268600
H -18.145900 -6.599400 -37.795300
H -17.327700 -7.813000 -36.075100
25
Fragment
H -23.994300 -4.313500 -46.741900
H -23.176100 -3.099900 -45.021700
C -23.086200 -4.357600 -46.548400
O -22.650200 -5.798500 -48.370800
C -22.597500 -3.633200 -45.517400
C -22.242100 -5.192600 -47.352200
O -22.232800 0.395600 -44.147800
N -22.217300 -0.873800 -44.658900
N -21.265100 -3.667700 -45.187300
N -21.221600 0.613000 -43.235700
C -21.209500 -1.463200 -44.062700
C -20.879600 -5.263200 -46.904500
C -20.717300 -2.802400 -44.204600
C -20.581500 -0.537200 -43.178900
C -20.432500 -4.515000 -45.888700
H -20.291900 -5.844200 -47.331100
C -19.659200 -3.166300 -43.429000
H -19.535700 -4.567500 -45.648700
C -19.459900 -0.965900 -42.416000
H -19.334600 -4.036300 -43.483700
O -19.131500 1.120500 -41.526300
C -19.038100 -2.246000 -42.537900
N -18.788000 -0.053200 -41.507600
H -18.319400 -2.534300 -42.023700
O -17.927700 -0.499000 -40.770800
50
Fragment
O -23.394300 -3.998500 -42.046200
H -23.002600 -6.033800 -40.793300
N -22.534000 -3.552700 -41.309400
C -22.283900 -5.745500 -40.279100
O -22.190500 -2.379000 -41.290700
H -21.987400 -7.535800 -39.333300
C -21.862100 -4.465400 -40.401000
H -21.786300 -8.067000 -37.168300
C -21.662800 -6.665800 -39.388000
H -21.030100 -9.343700 -35.485900
C -20.889500 -8.014500 -36.928300
C -20.740500 -4.036700 -39.638100
C -20.604700 -6.301900 -38.612400
C -20.442400 -8.762700 -35.912500
C -20.112500 -4.962700 -38.754300
N -20.100400 -2.886500 -39.581300
N -20.056900 -7.167200 -37.629700
N -19.104700 -4.373300 -38.158100
O -19.089200 -3.103900 -38.669200
C -19.079900 -8.692100 -35.464800
C -18.724500 -7.132700 -37.299600
O -18.671800 -9.298000 -34.446200
C -18.235800 -7.857100 -36.268600
H -18.145900 -6.599400 -37.795300
H -17.327700 -7.813000 -36.075100
H -23.994300 -4.313500 -46.741900
H -23.176100 -3.099900 -45.021700
C -23.086200 -4.357600 -46.548400
O -22.650200 -5.798500 -48.370800
C -22.597500 -3.633200 -45.517400
C -22.242100 -5.192600 -47.352200
O -22.232800 0.395600 -44.147800
N -22.217300 -0.873800 -44.658900
N -21.265100 -3.667700 -45.187300
N -21.221600 0.613000 -43.235700
C -21.209500 -1.463200 -44.062700
C -20.879600 -5.263200 -46.904500
C -20.717300 -2.802400 -44.204600
C -20.581500 -0.537200 -43.178900
C -20.432500 -4.515000 -45.888700
H -20.291900 -5.844200 -47.331100
C -19.659200 -3.166300 -43.429000
H -19.535700 -4.567500 -45.648700
C -19.459900 -0.965900 -42.416000
H -19.334600 -4.036300 -43.483700
O -19.131500 1.120500 -41.526300
C -19.038100 -2.246000 -42.537900
N -18.788000 -0.053200 -41.507600
H -18.319400 -2.534300 -42.023700
O -17.927700 -0.499000 -40.770800
