25
Fragment
O -23.394300 -3.998500 -42.046200
H -23.002600 -6.033800 -40.793300
N -22.534000 -3.552700 -41.309400
C -22.283900 -5.745500 -40.279100
O -22.190500 -2.379000 -41.290700
H -21.987400 -7.535800 -39.333300
C -21.862100 -4.465400 -40.401000
H -21.786300 -8.067000 -37.168300
C -21.662800 -6.665800 -39.388000
H -21.030100 -9.343700 -35.485900
C -20.889500 -8.014500 -36.928300
C -20.740500 -4.036700 -39.638100
C -20.604700 -6.301900 -38.612400
C -20.442400 -8.762700 -35.912500
C -20.112500 -4.962700 -38.754300
N -20.100400 -2.886500 -39.581300
N -20.056900 -7.167200 -37.629700
N -19.104700 -4.373300 -38.158100
O -19.089200 -3.103900 -38.669200
C -19.079900 -8.692100 -35.464800
C -18.724500 -7.132700 -37.299600
O -18.671800 -9.298000 -34.446200
C -18.235800 -7.857100 -36.268600
H -18.145900 -6.599400 -37.795300
H -17.327700 -7.813000 -36.075100
25
Fragment
O -23.394300 3.000500 -42.046200
H -23.002600 0.965200 -40.793300
N -22.534000 3.446300 -41.309400
C -22.283900 1.253500 -40.279100
O -22.190500 4.620000 -41.290700
H -21.987400 -0.536800 -39.333300
C -21.862100 2.533600 -40.401000
H -21.786300 -1.068000 -37.168300
C -21.662800 0.333200 -39.388000
H -21.030100 -2.344700 -35.485900
C -20.889500 -1.015500 -36.928300
C -20.740500 2.962300 -39.638100
C -20.604700 0.697100 -38.612400
C -20.442400 -1.763700 -35.912500
C -20.112500 2.036300 -38.754300
N -20.100400 4.112500 -39.581300
N -20.056900 -0.168200 -37.629700
N -19.104700 2.625700 -38.158100
O -19.089200 3.895100 -38.669200
C -19.079900 -1.693100 -35.464800
C -18.724500 -0.133700 -37.299600
O -18.671800 -2.299000 -34.446200
C -18.235800 -0.858100 -36.268600
H -18.145900 0.399600 -37.795300
H -17.327700 -0.814000 -36.075100
50
Fragment
O -23.394300 -3.998500 -42.046200
H -23.002600 -6.033800 -40.793300
N -22.534000 -3.552700 -41.309400
C -22.283900 -5.745500 -40.279100
O -22.190500 -2.379000 -41.290700
H -21.987400 -7.535800 -39.333300
C -21.862100 -4.465400 -40.401000
H -21.786300 -8.067000 -37.168300
C -21.662800 -6.665800 -39.388000
H -21.030100 -9.343700 -35.485900
C -20.889500 -8.014500 -36.928300
C -20.740500 -4.036700 -39.638100
C -20.604700 -6.301900 -38.612400
C -20.442400 -8.762700 -35.912500
C -20.112500 -4.962700 -38.754300
N -20.100400 -2.886500 -39.581300
N -20.056900 -7.167200 -37.629700
N -19.104700 -4.373300 -38.158100
O -19.089200 -3.103900 -38.669200
C -19.079900 -8.692100 -35.464800
C -18.724500 -7.132700 -37.299600
O -18.671800 -9.298000 -34.446200
C -18.235800 -7.857100 -36.268600
H -18.145900 -6.599400 -37.795300
H -17.327700 -7.813000 -36.075100
O -23.394300 3.000500 -42.046200
H -23.002600 0.965200 -40.793300
N -22.534000 3.446300 -41.309400
C -22.283900 1.253500 -40.279100
O -22.190500 4.620000 -41.290700
H -21.987400 -0.536800 -39.333300
C -21.862100 2.533600 -40.401000
H -21.786300 -1.068000 -37.168300
C -21.662800 0.333200 -39.388000
H -21.030100 -2.344700 -35.485900
C -20.889500 -1.015500 -36.928300
C -20.740500 2.962300 -39.638100
C -20.604700 0.697100 -38.612400
C -20.442400 -1.763700 -35.912500
C -20.112500 2.036300 -38.754300
N -20.100400 4.112500 -39.581300
N -20.056900 -0.168200 -37.629700
N -19.104700 2.625700 -38.158100
O -19.089200 3.895100 -38.669200
C -19.079900 -1.693100 -35.464800
C -18.724500 -0.133700 -37.299600
O -18.671800 -2.299000 -34.446200
C -18.235800 -0.858100 -36.268600
H -18.145900 0.399600 -37.795300
H -17.327700 -0.814000 -36.075100
