25
Fragment
O -23.394300 -3.998500 -42.046200
H -23.002600 -6.033800 -40.793300
N -22.534000 -3.552700 -41.309400
C -22.283900 -5.745500 -40.279100
O -22.190500 -2.379000 -41.290700
H -21.987400 -7.535800 -39.333300
C -21.862100 -4.465400 -40.401000
H -21.786300 -8.067000 -37.168300
C -21.662800 -6.665800 -39.388000
H -21.030100 -9.343700 -35.485900
C -20.889500 -8.014500 -36.928300
C -20.740500 -4.036700 -39.638100
C -20.604700 -6.301900 -38.612400
C -20.442400 -8.762700 -35.912500
C -20.112500 -4.962700 -38.754300
N -20.100400 -2.886500 -39.581300
N -20.056900 -7.167200 -37.629700
N -19.104700 -4.373300 -38.158100
O -19.089200 -3.103900 -38.669200
C -19.079900 -8.692100 -35.464800
C -18.724500 -7.132700 -37.299600
O -18.671800 -9.298000 -34.446200
C -18.235800 -7.857100 -36.268600
H -18.145900 -6.599400 -37.795300
H -17.327700 -7.813000 -36.075100
25
Fragment
H -23.994300 -13.184000 -34.910900
H -23.176100 -14.397600 -33.190700
C -23.086200 -13.139900 -34.717400
O -22.650200 -11.699000 -36.539800
C -22.597500 -13.864300 -33.686400
C -22.242100 -12.304900 -35.521200
O -22.232800 -17.893100 -32.316800
N -22.217300 -16.623700 -32.827900
N -21.265100 -13.829800 -33.356300
N -21.221600 -18.110500 -31.404700
C -21.209500 -16.034300 -32.231700
C -20.879600 -12.234300 -35.073500
C -20.717300 -14.695100 -32.373600
C -20.581500 -16.960300 -31.347900
C -20.432500 -12.982500 -34.057700
H -20.291900 -11.653300 -35.500100
C -19.659200 -14.331200 -31.598000
H -19.535700 -12.930000 -33.817700
C -19.459900 -16.531600 -30.585000
H -19.334600 -13.461200 -31.652700
O -19.131500 -18.618000 -29.695300
C -19.038100 -15.251500 -30.706900
N -18.788000 -17.444300 -29.676600
H -18.319400 -14.963200 -30.192700
O -17.927700 -16.998500 -28.939800
50
Fragment
O -23.394300 -3.998500 -42.046200
H -23.002600 -6.033800 -40.793300
N -22.534000 -3.552700 -41.309400
C -22.283900 -5.745500 -40.279100
O -22.190500 -2.379000 -41.290700
H -21.987400 -7.535800 -39.333300
C -21.862100 -4.465400 -40.401000
H -21.786300 -8.067000 -37.168300
C -21.662800 -6.665800 -39.388000
H -21.030100 -9.343700 -35.485900
C -20.889500 -8.014500 -36.928300
C -20.740500 -4.036700 -39.638100
C -20.604700 -6.301900 -38.612400
C -20.442400 -8.762700 -35.912500
C -20.112500 -4.962700 -38.754300
N -20.100400 -2.886500 -39.581300
N -20.056900 -7.167200 -37.629700
N -19.104700 -4.373300 -38.158100
O -19.089200 -3.103900 -38.669200
C -19.079900 -8.692100 -35.464800
C -18.724500 -7.132700 -37.299600
O -18.671800 -9.298000 -34.446200
C -18.235800 -7.857100 -36.268600
H -18.145900 -6.599400 -37.795300
H -17.327700 -7.813000 -36.075100
H -23.994300 -13.184000 -34.910900
H -23.176100 -14.397600 -33.190700
C -23.086200 -13.139900 -34.717400
O -22.650200 -11.699000 -36.539800
C -22.597500 -13.864300 -33.686400
C -22.242100 -12.304900 -35.521200
O -22.232800 -17.893100 -32.316800
N -22.217300 -16.623700 -32.827900
N -21.265100 -13.829800 -33.356300
N -21.221600 -18.110500 -31.404700
C -21.209500 -16.034300 -32.231700
C -20.879600 -12.234300 -35.073500
C -20.717300 -14.695100 -32.373600
C -20.581500 -16.960300 -31.347900
C -20.432500 -12.982500 -34.057700
H -20.291900 -11.653300 -35.500100
C -19.659200 -14.331200 -31.598000
H -19.535700 -12.930000 -33.817700
C -19.459900 -16.531600 -30.585000
H -19.334600 -13.461200 -31.652700
O -19.131500 -18.618000 -29.695300
C -19.038100 -15.251500 -30.706900
N -18.788000 -17.444300 -29.676600
H -18.319400 -14.963200 -30.192700
O -17.927700 -16.998500 -28.939800
