8
Fragment
H -5.624700 -20.791900 -24.885100
O -5.051400 -21.566900 -24.915100
O -4.496300 -20.714000 -22.913200
C -4.399100 -21.551200 -23.776200
C -3.452400 -22.759100 -23.654100
O -3.355200 -23.596300 -24.517000
O -2.800100 -22.743400 -22.515100
H -2.226800 -23.518400 -22.545200
24
Fragment
H -5.313100 -26.076600 -32.053400
H -4.790500 -28.114900 -27.470000
C -4.764800 -25.969200 -31.285000
N -4.692100 -26.869800 -30.292900
H -4.455800 -23.834500 -32.714200
H -4.152900 -22.930600 -31.428900
N -3.983800 -24.904600 -31.076100
C -3.876000 -23.725500 -31.931000
C -3.868900 -28.188900 -27.795400
H -3.838600 -28.810600 -28.551400
C -3.807100 -26.324300 -29.418800
N -3.394300 -26.868700 -28.227500
C -3.350200 -25.111700 -29.862100
H -3.294400 -28.522500 -27.074800
H -2.947500 -23.618900 -32.224100
C -2.536400 -26.147400 -27.421300
C -2.422900 -24.311300 -29.130600
O -2.185700 -26.565200 -26.327700
N -2.069000 -24.923100 -27.910200
O -1.962600 -23.227800 -29.467300
H -1.662500 -23.775400 -26.293800
C -1.151900 -24.184900 -27.022900
H -0.695100 -23.484500 -27.534800
H -0.489200 -24.803400 -26.651100
32
Fragment
H -5.624700 -20.791900 -24.885100
O -5.051400 -21.566900 -24.915100
O -4.496300 -20.714000 -22.913200
C -4.399100 -21.551200 -23.776200
C -3.452400 -22.759100 -23.654100
O -3.355200 -23.596300 -24.517000
O -2.800100 -22.743400 -22.515100
H -2.226800 -23.518400 -22.545200
H -5.313100 -26.076600 -32.053400
H -4.790500 -28.114900 -27.470000
C -4.764800 -25.969200 -31.285000
N -4.692100 -26.869800 -30.292900
H -4.455800 -23.834500 -32.714200
H -4.152900 -22.930600 -31.428900
N -3.983800 -24.904600 -31.076100
C -3.876000 -23.725500 -31.931000
C -3.868900 -28.188900 -27.795400
H -3.838600 -28.810600 -28.551400
C -3.807100 -26.324300 -29.418800
N -3.394300 -26.868700 -28.227500
C -3.350200 -25.111700 -29.862100
H -3.294400 -28.522500 -27.074800
H -2.947500 -23.618900 -32.224100
C -2.536400 -26.147400 -27.421300
C -2.422900 -24.311300 -29.130600
O -2.185700 -26.565200 -26.327700
N -2.069000 -24.923100 -27.910200
O -1.962600 -23.227800 -29.467300
H -1.662500 -23.775400 -26.293800
C -1.151900 -24.184900 -27.022900
H -0.695100 -23.484500 -27.534800
H -0.489200 -24.803400 -26.651100
