8
Fragment
H -5.624700 -20.791900 -24.885100
O -5.051400 -21.566900 -24.915100
O -4.496300 -20.714000 -22.913200
C -4.399100 -21.551200 -23.776200
C -3.452400 -22.759100 -23.654100
O -3.355200 -23.596300 -24.517000
O -2.800100 -22.743400 -22.515100
H -2.226800 -23.518400 -22.545200
24
Fragment
H -9.727400 -26.076600 -32.053400
H -9.204800 -28.114900 -27.470000
C -9.179100 -25.969200 -31.285000
N -9.106400 -26.869800 -30.292900
H -8.870100 -23.834500 -32.714200
H -8.567200 -22.930600 -31.428900
N -8.398100 -24.904600 -31.076100
C -8.290300 -23.725500 -31.931000
C -8.283200 -28.188900 -27.795400
H -8.252900 -28.810600 -28.551400
C -8.221400 -26.324300 -29.418800
N -7.808600 -26.868700 -28.227500
C -7.764500 -25.111700 -29.862100
H -7.708700 -28.522500 -27.074800
H -7.361800 -23.618900 -32.224100
C -6.950700 -26.147400 -27.421300
C -6.837200 -24.311300 -29.130600
O -6.600000 -26.565200 -26.327700
N -6.483300 -24.923100 -27.910200
O -6.376900 -23.227800 -29.467300
H -6.076800 -23.775400 -26.293800
C -5.566200 -24.184900 -27.022900
H -5.109400 -23.484500 -27.534800
H -4.903500 -24.803400 -26.651100
32
Fragment
H -5.624700 -20.791900 -24.885100
O -5.051400 -21.566900 -24.915100
O -4.496300 -20.714000 -22.913200
C -4.399100 -21.551200 -23.776200
C -3.452400 -22.759100 -23.654100
O -3.355200 -23.596300 -24.517000
O -2.800100 -22.743400 -22.515100
H -2.226800 -23.518400 -22.545200
H -9.727400 -26.076600 -32.053400
H -9.204800 -28.114900 -27.470000
C -9.179100 -25.969200 -31.285000
N -9.106400 -26.869800 -30.292900
H -8.870100 -23.834500 -32.714200
H -8.567200 -22.930600 -31.428900
N -8.398100 -24.904600 -31.076100
C -8.290300 -23.725500 -31.931000
C -8.283200 -28.188900 -27.795400
H -8.252900 -28.810600 -28.551400
C -8.221400 -26.324300 -29.418800
N -7.808600 -26.868700 -28.227500
C -7.764500 -25.111700 -29.862100
H -7.708700 -28.522500 -27.074800
H -7.361800 -23.618900 -32.224100
C -6.950700 -26.147400 -27.421300
C -6.837200 -24.311300 -29.130600
O -6.600000 -26.565200 -26.327700
N -6.483300 -24.923100 -27.910200
O -6.376900 -23.227800 -29.467300
H -6.076800 -23.775400 -26.293800
C -5.566200 -24.184900 -27.022900
H -5.109400 -23.484500 -27.534800
H -4.903500 -24.803400 -26.651100
