8
Fragment
H -5.624700 -20.791900 -24.885100
O -5.051400 -21.566900 -24.915100
O -4.496300 -20.714000 -22.913200
C -4.399100 -21.551200 -23.776200
C -3.452400 -22.759100 -23.654100
O -3.355200 -23.596300 -24.517000
O -2.800100 -22.743400 -22.515100
H -2.226800 -23.518400 -22.545200
24
Fragment
H -2.948000 -19.506900 -20.779200
H -2.742100 -20.825800 -19.895400
C -2.285300 -20.125400 -20.407300
H -1.774700 -20.534900 -21.136500
O -1.474600 -21.082500 -17.962900
N -1.368200 -19.387200 -19.520100
O -1.251500 -17.745100 -21.102500
C -1.014300 -19.999000 -18.299700
C -0.900800 -18.162900 -20.008900
H -0.489700 -20.691400 -15.206100
H -0.142700 -15.787800 -20.355500
C -0.087000 -19.198600 -17.568200
N -0.042900 -17.441600 -19.202800
C 0.369900 -17.986000 -18.011500
H 0.401400 -15.499700 -18.878800
C 0.431800 -16.121400 -19.634900
C 0.438800 -20.584800 -15.499300
N 0.546600 -19.405700 -16.354100
H 0.715800 -21.379700 -16.001400
H 1.018600 -20.475800 -14.716000
N 1.255000 -17.440500 -17.137300
C 1.327600 -18.341100 -16.145300
H 1.353400 -16.195400 -19.960200
H 1.875900 -18.233700 -15.376900
32
Fragment
H -5.624700 -20.791900 -24.885100
O -5.051400 -21.566900 -24.915100
O -4.496300 -20.714000 -22.913200
C -4.399100 -21.551200 -23.776200
C -3.452400 -22.759100 -23.654100
O -3.355200 -23.596300 -24.517000
O -2.800100 -22.743400 -22.515100
H -2.226800 -23.518400 -22.545200
H -2.948000 -19.506900 -20.779200
H -2.742100 -20.825800 -19.895400
C -2.285300 -20.125400 -20.407300
H -1.774700 -20.534900 -21.136500
O -1.474600 -21.082500 -17.962900
N -1.368200 -19.387200 -19.520100
O -1.251500 -17.745100 -21.102500
C -1.014300 -19.999000 -18.299700
C -0.900800 -18.162900 -20.008900
H -0.489700 -20.691400 -15.206100
H -0.142700 -15.787800 -20.355500
C -0.087000 -19.198600 -17.568200
N -0.042900 -17.441600 -19.202800
C 0.369900 -17.986000 -18.011500
H 0.401400 -15.499700 -18.878800
C 0.431800 -16.121400 -19.634900
C 0.438800 -20.584800 -15.499300
N 0.546600 -19.405700 -16.354100
H 0.715800 -21.379700 -16.001400
H 1.018600 -20.475800 -14.716000
N 1.255000 -17.440500 -17.137300
C 1.327600 -18.341100 -16.145300
H 1.353400 -16.195400 -19.960200
H 1.875900 -18.233700 -15.376900
