8
Fragment
H -5.624700 -20.791900 -24.885100
O -5.051400 -21.566900 -24.915100
O -4.496300 -20.714000 -22.913200
C -4.399100 -21.551200 -23.776200
C -3.452400 -22.759100 -23.654100
O -3.355200 -23.596300 -24.517000
O -2.800100 -22.743400 -22.515100
H -2.226800 -23.518400 -22.545200
24
Fragment
H -6.211700 -25.618700 -24.148300
H -5.689100 -23.580500 -19.565000
C -5.663300 -25.726100 -23.380000
N -5.590700 -24.825600 -22.387900
H -5.354300 -27.860800 -24.809200
H -5.051500 -28.764800 -23.523800
N -4.882400 -26.790700 -23.171100
C -4.774600 -27.969800 -24.026000
C -4.767500 -23.506500 -19.890400
H -4.737200 -22.884800 -20.646400
C -4.705700 -25.371000 -21.513700
N -4.292800 -24.826600 -20.322400
C -4.248700 -26.583700 -21.957000
H -4.193000 -23.172800 -19.169700
H -3.846100 -28.076500 -24.319100
C -3.435000 -25.548000 -19.516300
C -3.321500 -27.384100 -21.225500
O -3.084300 -25.130100 -18.422700
N -2.967500 -26.772300 -20.005100
O -2.861200 -28.467600 -21.562300
H -2.561100 -27.919900 -18.388700
C -2.050500 -27.510500 -19.117900
H -1.593700 -28.210900 -19.629800
H -1.387800 -26.891900 -18.746000
32
Fragment
H -5.624700 -20.791900 -24.885100
O -5.051400 -21.566900 -24.915100
O -4.496300 -20.714000 -22.913200
C -4.399100 -21.551200 -23.776200
C -3.452400 -22.759100 -23.654100
O -3.355200 -23.596300 -24.517000
O -2.800100 -22.743400 -22.515100
H -2.226800 -23.518400 -22.545200
H -6.211700 -25.618700 -24.148300
H -5.689100 -23.580500 -19.565000
C -5.663300 -25.726100 -23.380000
N -5.590700 -24.825600 -22.387900
H -5.354300 -27.860800 -24.809200
H -5.051500 -28.764800 -23.523800
N -4.882400 -26.790700 -23.171100
C -4.774600 -27.969800 -24.026000
C -4.767500 -23.506500 -19.890400
H -4.737200 -22.884800 -20.646400
C -4.705700 -25.371000 -21.513700
N -4.292800 -24.826600 -20.322400
C -4.248700 -26.583700 -21.957000
H -4.193000 -23.172800 -19.169700
H -3.846100 -28.076500 -24.319100
C -3.435000 -25.548000 -19.516300
C -3.321500 -27.384100 -21.225500
O -3.084300 -25.130100 -18.422700
N -2.967500 -26.772300 -20.005100
O -2.861200 -28.467600 -21.562300
H -2.561100 -27.919900 -18.388700
C -2.050500 -27.510500 -19.117900
H -1.593700 -28.210900 -19.629800
H -1.387800 -26.891900 -18.746000
