11
Fragment
O -47.789400 -46.651800 -6.347200
H -47.380200 -48.553500 -7.534300
C -46.776800 -47.294700 -6.262600
O -46.539000 -48.406500 -6.947300
H -45.905800 -46.129000 -4.842200
C -45.598800 -46.926800 -5.381500
H -45.291800 -47.724500 -4.842200
O -44.658600 -45.447000 -6.947300
C -44.420800 -46.558800 -6.262600
H -43.817400 -45.300000 -7.534300
O -43.408200 -47.201700 -6.347200
11
Fragment
O -47.789400 -46.651800 -11.021100
H -47.380200 -48.553500 -12.208200
C -46.776800 -47.294700 -10.936500
O -46.539000 -48.406500 -11.621200
H -45.905800 -46.129000 -9.516100
C -45.598800 -46.926800 -10.055400
H -45.291800 -47.724500 -9.516100
O -44.658600 -45.447000 -11.621200
C -44.420800 -46.558800 -10.936500
H -43.817400 -45.300000 -12.208200
O -43.408200 -47.201700 -11.021100
22
Fragment
O -47.789400 -46.651800 -6.347200
H -47.380200 -48.553500 -7.534300
C -46.776800 -47.294700 -6.262600
O -46.539000 -48.406500 -6.947300
H -45.905800 -46.129000 -4.842200
C -45.598800 -46.926800 -5.381500
H -45.291800 -47.724500 -4.842200
O -44.658600 -45.447000 -6.947300
C -44.420800 -46.558800 -6.262600
H -43.817400 -45.300000 -7.534300
O -43.408200 -47.201700 -6.347200
O -47.789400 -46.651800 -11.021100
H -47.380200 -48.553500 -12.208200
C -46.776800 -47.294700 -10.936500
O -46.539000 -48.406500 -11.621200
H -45.905800 -46.129000 -9.516100
C -45.598800 -46.926800 -10.055400
H -45.291800 -47.724500 -9.516100
O -44.658600 -45.447000 -11.621200
C -44.420800 -46.558800 -10.936500
H -43.817400 -45.300000 -12.208200
O -43.408200 -47.201700 -11.021100
