11
Fragment
O -47.789400 -46.651800 -6.347200
H -47.380200 -48.553500 -7.534300
C -46.776800 -47.294700 -6.262600
O -46.539000 -48.406500 -6.947300
H -45.905800 -46.129000 -4.842200
C -45.598800 -46.926800 -5.381500
H -45.291800 -47.724500 -4.842200
O -44.658600 -45.447000 -6.947300
C -44.420800 -46.558800 -6.262600
H -43.817400 -45.300000 -7.534300
O -43.408200 -47.201700 -6.347200
24
Fragment
H -44.905700 -53.740500 -1.412000
O -44.253600 -51.818700 -3.508200
H -44.130500 -55.063800 -0.951600
H -44.115300 -54.622700 -2.489800
C -44.114100 -54.299900 -1.564800
H -43.762700 -49.926900 -4.731400
H -43.449600 -48.700600 -3.751700
C -43.186000 -51.561200 -2.953900
C -43.060200 -49.465200 -4.227500
N -42.913300 -53.516500 -1.328800
C -42.534900 -52.339300 -1.957900
N -42.461300 -50.394900 -3.256800
H -42.370400 -49.147900 -4.845400
H -41.950900 -54.553900 0.121100
C -41.943000 -53.793400 -0.447800
C -41.342900 -51.985800 -1.405400
C -41.227100 -50.012700 -2.714100
N -40.959300 -52.882400 -0.454800
O -40.687200 -48.974300 -3.050700
N -40.666800 -50.854800 -1.778400
H -39.412600 -49.789300 -0.619300
C -39.343300 -50.540400 -1.245100
H -38.983900 -51.322200 -0.777300
H -38.743800 -50.296100 -1.981300
35
Fragment
O -47.789400 -46.651800 -6.347200
H -47.380200 -48.553500 -7.534300
C -46.776800 -47.294700 -6.262600
O -46.539000 -48.406500 -6.947300
H -45.905800 -46.129000 -4.842200
C -45.598800 -46.926800 -5.381500
H -45.291800 -47.724500 -4.842200
O -44.658600 -45.447000 -6.947300
C -44.420800 -46.558800 -6.262600
H -43.817400 -45.300000 -7.534300
O -43.408200 -47.201700 -6.347200
H -44.905700 -53.740500 -1.412000
O -44.253600 -51.818700 -3.508200
H -44.130500 -55.063800 -0.951600
H -44.115300 -54.622700 -2.489800
C -44.114100 -54.299900 -1.564800
H -43.762700 -49.926900 -4.731400
H -43.449600 -48.700600 -3.751700
C -43.186000 -51.561200 -2.953900
C -43.060200 -49.465200 -4.227500
N -42.913300 -53.516500 -1.328800
C -42.534900 -52.339300 -1.957900
N -42.461300 -50.394900 -3.256800
H -42.370400 -49.147900 -4.845400
H -41.950900 -54.553900 0.121100
C -41.943000 -53.793400 -0.447800
C -41.342900 -51.985800 -1.405400
C -41.227100 -50.012700 -2.714100
N -40.959300 -52.882400 -0.454800
O -40.687200 -48.974300 -3.050700
N -40.666800 -50.854800 -1.778400
H -39.412600 -49.789300 -0.619300
C -39.343300 -50.540400 -1.245100
H -38.983900 -51.322200 -0.777300
H -38.743800 -50.296100 -1.981300
