11
Fragment
O -47.789400 -46.651800 -6.347200
H -47.380200 -48.553500 -7.534300
C -46.776800 -47.294700 -6.262600
O -46.539000 -48.406500 -6.947300
H -45.905800 -46.129000 -4.842200
C -45.598800 -46.926800 -5.381500
H -45.291800 -47.724500 -4.842200
O -44.658600 -45.447000 -6.947300
C -44.420800 -46.558800 -6.262600
H -43.817400 -45.300000 -7.534300
O -43.408200 -47.201700 -6.347200
24
Fragment
H -52.505500 -47.934100 -9.591300
O -51.853400 -49.855900 -11.687600
H -51.730300 -46.610800 -9.130900
H -51.715100 -47.051900 -10.669100
C -51.713900 -47.374700 -9.744100
H -51.362500 -51.747700 -12.910700
H -51.049400 -52.974000 -11.931100
C -50.785800 -50.113400 -11.133200
C -50.660000 -52.209500 -12.406900
N -50.513100 -48.158100 -9.508100
C -50.134700 -49.335300 -10.137200
N -50.061100 -51.279700 -11.436100
H -49.970200 -52.526700 -13.024800
H -49.550700 -47.120700 -8.058300
C -49.542800 -47.881200 -8.627100
C -48.942700 -49.688900 -9.584800
C -48.826900 -51.662000 -10.893500
N -48.559100 -48.792200 -8.634100
O -48.287000 -52.700300 -11.230000
N -48.266600 -50.819800 -9.957700
H -47.012400 -51.885300 -8.798600
C -46.943100 -51.134200 -9.424500
H -46.583700 -50.352400 -8.956600
H -46.343600 -51.378500 -10.160600
35
Fragment
O -47.789400 -46.651800 -6.347200
H -47.380200 -48.553500 -7.534300
C -46.776800 -47.294700 -6.262600
O -46.539000 -48.406500 -6.947300
H -45.905800 -46.129000 -4.842200
C -45.598800 -46.926800 -5.381500
H -45.291800 -47.724500 -4.842200
O -44.658600 -45.447000 -6.947300
C -44.420800 -46.558800 -6.262600
H -43.817400 -45.300000 -7.534300
O -43.408200 -47.201700 -6.347200
H -52.505500 -47.934100 -9.591300
O -51.853400 -49.855900 -11.687600
H -51.730300 -46.610800 -9.130900
H -51.715100 -47.051900 -10.669100
C -51.713900 -47.374700 -9.744100
H -51.362500 -51.747700 -12.910700
H -51.049400 -52.974000 -11.931100
C -50.785800 -50.113400 -11.133200
C -50.660000 -52.209500 -12.406900
N -50.513100 -48.158100 -9.508100
C -50.134700 -49.335300 -10.137200
N -50.061100 -51.279700 -11.436100
H -49.970200 -52.526700 -13.024800
H -49.550700 -47.120700 -8.058300
C -49.542800 -47.881200 -8.627100
C -48.942700 -49.688900 -9.584800
C -48.826900 -51.662000 -10.893500
N -48.559100 -48.792200 -8.634100
O -48.287000 -52.700300 -11.230000
N -48.266600 -50.819800 -9.957700
H -47.012400 -51.885300 -8.798600
C -46.943100 -51.134200 -9.424500
H -46.583700 -50.352400 -8.956600
H -46.343600 -51.378500 -10.160600
