21
Fragment
H -11.131300 -16.882900 -14.659600
O -10.459200 -14.908100 -13.392000
N -10.364500 -16.993000 -14.287100
H -10.138400 -18.799600 -15.028200
C -9.862600 -15.968800 -13.527700
C -9.720600 -18.170000 -14.486300
N -8.580100 -18.487000 -13.985900
C -8.568200 -16.277000 -12.918500
H -8.288100 -14.515500 -11.960000
C -8.004000 -17.531300 -13.173600
C -7.913900 -15.352900 -12.112000
C -6.767200 -17.815000 -12.573000
C -6.716100 -15.687000 -11.543200
O -6.481300 -20.048800 -12.137100
N -6.163600 -19.126800 -12.846400
C -6.115400 -16.935600 -11.753000
N -6.058300 -14.690600 -10.683800
O -5.971000 -14.938800 -9.519300
O -5.660900 -13.695000 -11.190000
O -5.384300 -19.206700 -13.769300
Cl -4.611800 -17.349100 -11.053000
21
Fragment
Cl -18.703000 -13.948700 -17.819600
O -17.930500 -12.091100 -15.103200
O -17.653900 -17.602800 -17.682500
O -17.343800 -16.359000 -19.353300
N -17.256500 -16.607200 -18.188700
C -17.199400 -14.362200 -17.119500
N -17.151200 -12.171000 -16.026200
O -16.833600 -11.248900 -16.735500
C -16.598700 -15.610700 -17.329300
C -16.547600 -13.482700 -16.299500
C -15.400900 -15.944800 -16.760500
C -15.310800 -13.766400 -15.699000
H -15.026700 -16.782300 -16.912600
C -14.746600 -15.020800 -15.954000
N -14.734700 -12.810800 -14.886700
C -13.594200 -13.127800 -14.386200
C -13.452200 -15.328900 -15.344800
H -13.176400 -12.498200 -13.844400
N -12.950300 -14.304700 -14.585400
O -12.855600 -16.389700 -15.480500
H -12.183500 -14.414800 -14.213000
42
Fragment
H -11.131300 -16.882900 -14.659600
O -10.459200 -14.908100 -13.392000
N -10.364500 -16.993000 -14.287100
H -10.138400 -18.799600 -15.028200
C -9.862600 -15.968800 -13.527700
C -9.720600 -18.170000 -14.486300
N -8.580100 -18.487000 -13.985900
C -8.568200 -16.277000 -12.918500
H -8.288100 -14.515500 -11.960000
C -8.004000 -17.531300 -13.173600
C -7.913900 -15.352900 -12.112000
C -6.767200 -17.815000 -12.573000
C -6.716100 -15.687000 -11.543200
O -6.481300 -20.048800 -12.137100
N -6.163600 -19.126800 -12.846400
C -6.115400 -16.935600 -11.753000
N -6.058300 -14.690600 -10.683800
O -5.971000 -14.938800 -9.519300
O -5.660900 -13.695000 -11.190000
O -5.384300 -19.206700 -13.769300
Cl -4.611800 -17.349100 -11.053000
Cl -18.703000 -13.948700 -17.819600
O -17.930500 -12.091100 -15.103200
O -17.653900 -17.602800 -17.682500
O -17.343800 -16.359000 -19.353300
N -17.256500 -16.607200 -18.188700
C -17.199400 -14.362200 -17.119500
N -17.151200 -12.171000 -16.026200
O -16.833600 -11.248900 -16.735500
C -16.598700 -15.610700 -17.329300
C -16.547600 -13.482700 -16.299500
C -15.400900 -15.944800 -16.760500
C -15.310800 -13.766400 -15.699000
H -15.026700 -16.782300 -16.912600
C -14.746600 -15.020800 -15.954000
N -14.734700 -12.810800 -14.886700
C -13.594200 -13.127800 -14.386200
C -13.452200 -15.328900 -15.344800
H -13.176400 -12.498200 -13.844400
N -12.950300 -14.304700 -14.585400
O -12.855600 -16.389700 -15.480500
H -12.183500 -14.414800 -14.213000
