21
Fragment
H -11.131300 -16.882900 -14.659600
O -10.459200 -14.908100 -13.392000
N -10.364500 -16.993000 -14.287100
H -10.138400 -18.799600 -15.028200
C -9.862600 -15.968800 -13.527700
C -9.720600 -18.170000 -14.486300
N -8.580100 -18.487000 -13.985900
C -8.568200 -16.277000 -12.918500
H -8.288100 -14.515500 -11.960000
C -8.004000 -17.531300 -13.173600
C -7.913900 -15.352900 -12.112000
C -6.767200 -17.815000 -12.573000
C -6.716100 -15.687000 -11.543200
O -6.481300 -20.048800 -12.137100
N -6.163600 -19.126800 -12.846400
C -6.115400 -16.935600 -11.753000
N -6.058300 -14.690600 -10.683800
O -5.971000 -14.938800 -9.519300
O -5.660900 -13.695000 -11.190000
O -5.384300 -19.206700 -13.769300
Cl -4.611800 -17.349100 -11.053000
8
Fragment
H -10.988600 -11.307400 -11.558600
H -10.201600 -12.662900 -11.610600
C -10.134300 -11.712500 -11.726100
H -9.857200 -11.517300 -12.624000
O -9.138100 -9.910100 -10.588500
C -9.135800 -11.169100 -10.773300
H -8.437200 -9.658400 -10.232400
O -8.339100 -11.949000 -10.200700
29
Fragment
H -11.131300 -16.882900 -14.659600
O -10.459200 -14.908100 -13.392000
N -10.364500 -16.993000 -14.287100
H -10.138400 -18.799600 -15.028200
C -9.862600 -15.968800 -13.527700
C -9.720600 -18.170000 -14.486300
N -8.580100 -18.487000 -13.985900
C -8.568200 -16.277000 -12.918500
H -8.288100 -14.515500 -11.960000
C -8.004000 -17.531300 -13.173600
C -7.913900 -15.352900 -12.112000
C -6.767200 -17.815000 -12.573000
C -6.716100 -15.687000 -11.543200
O -6.481300 -20.048800 -12.137100
N -6.163600 -19.126800 -12.846400
C -6.115400 -16.935600 -11.753000
N -6.058300 -14.690600 -10.683800
O -5.971000 -14.938800 -9.519300
O -5.660900 -13.695000 -11.190000
O -5.384300 -19.206700 -13.769300
Cl -4.611800 -17.349100 -11.053000
H -10.988600 -11.307400 -11.558600
H -10.201600 -12.662900 -11.610600
C -10.134300 -11.712500 -11.726100
H -9.857200 -11.517300 -12.624000
O -9.138100 -9.910100 -10.588500
C -9.135800 -11.169100 -10.773300
H -8.437200 -9.658400 -10.232400
O -8.339100 -11.949000 -10.200700
