21
Fragment
H -11.131300 -16.882900 -14.659600
O -10.459200 -14.908100 -13.392000
N -10.364500 -16.993000 -14.287100
H -10.138400 -18.799600 -15.028200
C -9.862600 -15.968800 -13.527700
C -9.720600 -18.170000 -14.486300
N -8.580100 -18.487000 -13.985900
C -8.568200 -16.277000 -12.918500
H -8.288100 -14.515500 -11.960000
C -8.004000 -17.531300 -13.173600
C -7.913900 -15.352900 -12.112000
C -6.767200 -17.815000 -12.573000
C -6.716100 -15.687000 -11.543200
O -6.481300 -20.048800 -12.137100
N -6.163600 -19.126800 -12.846400
C -6.115400 -16.935600 -11.753000
N -6.058300 -14.690600 -10.683800
O -5.971000 -14.938800 -9.519300
O -5.660900 -13.695000 -11.190000
O -5.384300 -19.206700 -13.769300
Cl -4.611800 -17.349100 -11.053000
21
Fragment
Cl -4.253300 -23.342600 -17.819600
O -3.480800 -21.484900 -15.103200
O -3.204200 -26.996600 -17.682500
O -2.894200 -25.752800 -19.353300
N -2.806900 -26.001000 -18.188700
C -2.749700 -23.756000 -17.119500
N -2.701600 -21.564800 -16.026200
O -2.383900 -20.642800 -16.735500
C -2.149000 -25.004600 -17.329300
C -2.098000 -22.876600 -16.299500
C -0.951300 -25.338700 -16.760500
C -0.861200 -23.160300 -15.699000
H -0.577000 -26.176100 -16.912600
C -0.297000 -24.414600 -15.954000
N -0.285000 -22.204600 -14.886700
C 0.855400 -22.521700 -14.386200
C 0.997400 -24.722800 -15.344800
H 1.273200 -21.892000 -13.844400
N 1.499300 -23.698600 -14.585400
O 1.594100 -25.783500 -15.480500
H 2.266200 -23.808700 -14.213000
42
Fragment
H -11.131300 -16.882900 -14.659600
O -10.459200 -14.908100 -13.392000
N -10.364500 -16.993000 -14.287100
H -10.138400 -18.799600 -15.028200
C -9.862600 -15.968800 -13.527700
C -9.720600 -18.170000 -14.486300
N -8.580100 -18.487000 -13.985900
C -8.568200 -16.277000 -12.918500
H -8.288100 -14.515500 -11.960000
C -8.004000 -17.531300 -13.173600
C -7.913900 -15.352900 -12.112000
C -6.767200 -17.815000 -12.573000
C -6.716100 -15.687000 -11.543200
O -6.481300 -20.048800 -12.137100
N -6.163600 -19.126800 -12.846400
C -6.115400 -16.935600 -11.753000
N -6.058300 -14.690600 -10.683800
O -5.971000 -14.938800 -9.519300
O -5.660900 -13.695000 -11.190000
O -5.384300 -19.206700 -13.769300
Cl -4.611800 -17.349100 -11.053000
Cl -4.253300 -23.342600 -17.819600
O -3.480800 -21.484900 -15.103200
O -3.204200 -26.996600 -17.682500
O -2.894200 -25.752800 -19.353300
N -2.806900 -26.001000 -18.188700
C -2.749700 -23.756000 -17.119500
N -2.701600 -21.564800 -16.026200
O -2.383900 -20.642800 -16.735500
C -2.149000 -25.004600 -17.329300
C -2.098000 -22.876600 -16.299500
C -0.951300 -25.338700 -16.760500
C -0.861200 -23.160300 -15.699000
H -0.577000 -26.176100 -16.912600
C -0.297000 -24.414600 -15.954000
N -0.285000 -22.204600 -14.886700
C 0.855400 -22.521700 -14.386200
C 0.997400 -24.722800 -15.344800
H 1.273200 -21.892000 -13.844400
N 1.499300 -23.698600 -14.585400
O 1.594100 -25.783500 -15.480500
H 2.266200 -23.808700 -14.213000
