13
Fragment
H -13.723700 -6.780500 -43.441700
H -13.059200 -5.955700 -44.488800
N -13.039300 -6.613100 -43.934700
C -11.954400 -7.367100 -43.840100
N -11.932600 -8.387200 -42.975000
F -10.889800 -6.057300 -45.508900
C -10.825800 -7.104600 -44.650900
C -10.823200 -9.152000 -42.870700
O -10.746900 -10.104500 -42.057700
N -9.746900 -8.893600 -43.673500
C -9.746200 -7.866800 -44.568800
H -9.058000 -9.406700 -43.598900
H -8.913400 -7.741000 -45.119600
13
Fragment
H -9.285000 -7.730600 -40.312600
H -9.140400 -6.064900 -41.833300
C -8.452200 -7.604800 -40.863400
N -8.451500 -6.578000 -41.758700
O -7.451500 -5.367100 -43.374500
C -7.375200 -6.319600 -42.561500
C -7.372600 -8.367000 -40.781400
F -7.308600 -9.414300 -39.923300
N -6.265800 -7.084400 -42.457200
C -6.244000 -8.104500 -41.592100
N -5.159100 -8.858500 -41.497600
H -5.139200 -9.515900 -40.943400
H -4.474700 -8.691100 -41.990500
26
Fragment
H -13.723700 -6.780500 -43.441700
H -13.059200 -5.955700 -44.488800
N -13.039300 -6.613100 -43.934700
C -11.954400 -7.367100 -43.840100
N -11.932600 -8.387200 -42.975000
F -10.889800 -6.057300 -45.508900
C -10.825800 -7.104600 -44.650900
C -10.823200 -9.152000 -42.870700
O -10.746900 -10.104500 -42.057700
N -9.746900 -8.893600 -43.673500
C -9.746200 -7.866800 -44.568800
H -9.058000 -9.406700 -43.598900
H -8.913400 -7.741000 -45.119600
H -9.285000 -7.730600 -40.312600
H -9.140400 -6.064900 -41.833300
C -8.452200 -7.604800 -40.863400
N -8.451500 -6.578000 -41.758700
O -7.451500 -5.367100 -43.374500
C -7.375200 -6.319600 -42.561500
C -7.372600 -8.367000 -40.781400
F -7.308600 -9.414300 -39.923300
N -6.265800 -7.084400 -42.457200
C -6.244000 -8.104500 -41.592100
N -5.159100 -8.858500 -41.497600
H -5.139200 -9.515900 -40.943400
H -4.474700 -8.691100 -41.990500
