13
Fragment
H -13.723700 -6.780500 -43.441700
H -13.059200 -5.955700 -44.488800
N -13.039300 -6.613100 -43.934700
C -11.954400 -7.367100 -43.840100
N -11.932600 -8.387200 -42.975000
F -10.889800 -6.057300 -45.508900
C -10.825800 -7.104600 -44.650900
C -10.823200 -9.152000 -42.870700
O -10.746900 -10.104500 -42.057700
N -9.746900 -8.893600 -43.673500
C -9.746200 -7.866800 -44.568800
H -9.058000 -9.406700 -43.598900
H -8.913400 -7.741000 -45.119600
21
Fragment
H -9.112900 -6.038000 -48.657100
H -8.771400 -6.042500 -47.127300
C -8.425000 -5.878700 -48.007200
H -8.129800 -4.967200 -48.070400
C -7.280100 -6.787900 -48.265500
O -7.262700 -7.728600 -48.998200
O -7.069500 -8.410900 -45.910100
H -6.269200 -9.968900 -44.404800
O -6.183200 -6.405200 -47.555300
C -5.925200 -8.769300 -45.874800
O -5.489200 -9.643400 -44.976900
C -5.035100 -7.198400 -47.640400
C -4.863700 -8.304600 -46.806600
H -4.203100 -6.039100 -49.060900
C -4.036700 -6.780700 -48.495300
C -3.645000 -8.967900 -46.888300
H -3.510600 -9.705900 -46.332700
C -2.845000 -7.463000 -48.547100
C -2.651800 -8.563500 -47.746400
H -2.150000 -7.137600 -49.217500
H -1.828700 -9.045700 -47.750900
34
Fragment
H -13.723700 -6.780500 -43.441700
H -13.059200 -5.955700 -44.488800
N -13.039300 -6.613100 -43.934700
C -11.954400 -7.367100 -43.840100
N -11.932600 -8.387200 -42.975000
F -10.889800 -6.057300 -45.508900
C -10.825800 -7.104600 -44.650900
C -10.823200 -9.152000 -42.870700
O -10.746900 -10.104500 -42.057700
N -9.746900 -8.893600 -43.673500
C -9.746200 -7.866800 -44.568800
H -9.058000 -9.406700 -43.598900
H -8.913400 -7.741000 -45.119600
H -9.112900 -6.038000 -48.657100
H -8.771400 -6.042500 -47.127300
C -8.425000 -5.878700 -48.007200
H -8.129800 -4.967200 -48.070400
C -7.280100 -6.787900 -48.265500
O -7.262700 -7.728600 -48.998200
O -7.069500 -8.410900 -45.910100
H -6.269200 -9.968900 -44.404800
O -6.183200 -6.405200 -47.555300
C -5.925200 -8.769300 -45.874800
O -5.489200 -9.643400 -44.976900
C -5.035100 -7.198400 -47.640400
C -4.863700 -8.304600 -46.806600
H -4.203100 -6.039100 -49.060900
C -4.036700 -6.780700 -48.495300
C -3.645000 -8.967900 -46.888300
H -3.510600 -9.705900 -46.332700
C -2.845000 -7.463000 -48.547100
C -2.651800 -8.563500 -47.746400
H -2.150000 -7.137600 -49.217500
H -1.828700 -9.045700 -47.750900
