13
Fragment
H -13.723700 -6.780500 -43.441700
H -13.059200 -5.955700 -44.488800
N -13.039300 -6.613100 -43.934700
C -11.954400 -7.367100 -43.840100
N -11.932600 -8.387200 -42.975000
F -10.889800 -6.057300 -45.508900
C -10.825800 -7.104600 -44.650900
C -10.823200 -9.152000 -42.870700
O -10.746900 -10.104500 -42.057700
N -9.746900 -8.893600 -43.673500
C -9.746200 -7.866800 -44.568800
H -9.058000 -9.406700 -43.598900
H -8.913400 -7.741000 -45.119600
13
Fragment
H -13.723700 -1.623300 -43.441700
H -13.059200 -0.798500 -44.488800
N -13.039300 -1.455900 -43.934700
C -11.954400 -2.209900 -43.840100
N -11.932600 -3.230000 -42.975000
F -10.889800 -0.900100 -45.508900
C -10.825800 -1.947400 -44.650900
C -10.823200 -3.994800 -42.870700
O -10.746900 -4.947300 -42.057700
N -9.746900 -3.736400 -43.673500
C -9.746200 -2.709600 -44.568800
H -9.058000 -4.249500 -43.598900
H -8.913400 -2.583800 -45.119600
26
Fragment
H -13.723700 -6.780500 -43.441700
H -13.059200 -5.955700 -44.488800
N -13.039300 -6.613100 -43.934700
C -11.954400 -7.367100 -43.840100
N -11.932600 -8.387200 -42.975000
F -10.889800 -6.057300 -45.508900
C -10.825800 -7.104600 -44.650900
C -10.823200 -9.152000 -42.870700
O -10.746900 -10.104500 -42.057700
N -9.746900 -8.893600 -43.673500
C -9.746200 -7.866800 -44.568800
H -9.058000 -9.406700 -43.598900
H -8.913400 -7.741000 -45.119600
H -13.723700 -1.623300 -43.441700
H -13.059200 -0.798500 -44.488800
N -13.039300 -1.455900 -43.934700
C -11.954400 -2.209900 -43.840100
N -11.932600 -3.230000 -42.975000
F -10.889800 -0.900100 -45.508900
C -10.825800 -1.947400 -44.650900
C -10.823200 -3.994800 -42.870700
O -10.746900 -4.947300 -42.057700
N -9.746900 -3.736400 -43.673500
C -9.746200 -2.709600 -44.568800
H -9.058000 -4.249500 -43.598900
H -8.913400 -2.583800 -45.119600
