13
Fragment
H -13.723700 -6.780500 -43.441700
H -13.059200 -5.955700 -44.488800
N -13.039300 -6.613100 -43.934700
C -11.954400 -7.367100 -43.840100
N -11.932600 -8.387200 -42.975000
F -10.889800 -6.057300 -45.508900
C -10.825800 -7.104600 -44.650900
C -10.823200 -9.152000 -42.870700
O -10.746900 -10.104500 -42.057700
N -9.746900 -8.893600 -43.673500
C -9.746200 -7.866800 -44.568800
H -9.058000 -9.406700 -43.598900
H -8.913400 -7.741000 -45.119600
13
Fragment
H -9.285000 -12.887800 -40.312600
H -9.140400 -11.222100 -41.833300
C -8.452200 -12.762000 -40.863400
N -8.451500 -11.735200 -41.758700
O -7.451500 -10.524300 -43.374500
C -7.375200 -11.476800 -42.561500
C -7.372600 -13.524200 -40.781400
F -7.308600 -14.571500 -39.923300
N -6.265800 -12.241600 -42.457200
C -6.244000 -13.261700 -41.592100
N -5.159100 -14.015700 -41.497600
H -5.139200 -14.673100 -40.943400
H -4.474700 -13.848300 -41.990500
26
Fragment
H -13.723700 -6.780500 -43.441700
H -13.059200 -5.955700 -44.488800
N -13.039300 -6.613100 -43.934700
C -11.954400 -7.367100 -43.840100
N -11.932600 -8.387200 -42.975000
F -10.889800 -6.057300 -45.508900
C -10.825800 -7.104600 -44.650900
C -10.823200 -9.152000 -42.870700
O -10.746900 -10.104500 -42.057700
N -9.746900 -8.893600 -43.673500
C -9.746200 -7.866800 -44.568800
H -9.058000 -9.406700 -43.598900
H -8.913400 -7.741000 -45.119600
H -9.285000 -12.887800 -40.312600
H -9.140400 -11.222100 -41.833300
C -8.452200 -12.762000 -40.863400
N -8.451500 -11.735200 -41.758700
O -7.451500 -10.524300 -43.374500
C -7.375200 -11.476800 -42.561500
C -7.372600 -13.524200 -40.781400
F -7.308600 -14.571500 -39.923300
N -6.265800 -12.241600 -42.457200
C -6.244000 -13.261700 -41.592100
N -5.159100 -14.015700 -41.497600
H -5.139200 -14.673100 -40.943400
H -4.474700 -13.848300 -41.990500
