15
Fragment
O -3.907600 -11.607100 -10.197600
H -3.686900 -12.689700 -12.366600
N -3.326800 -10.677200 -10.755600
C -3.279200 -11.984500 -12.815100
H -3.164800 -12.878000 -14.598600
O -3.033100 -9.646200 -10.162600
C -2.984000 -10.804300 -12.152300
C -2.960500 -12.094600 -14.141900
C -2.385700 -9.744000 -12.811600
C -2.336900 -11.053800 -14.811700
H -2.206800 -8.950800 -12.359600
C -2.061900 -9.872600 -14.130300
O -2.027400 -11.244500 -16.101600
H -1.665800 -10.571000 -16.397200
H -1.654100 -9.166500 -14.577600
8
Fragment
O -0.965600 -9.069500 -17.085600
H -0.742600 -7.217300 -18.621000
C -0.464900 -9.060300 -18.222600
N -0.422000 -7.949200 -18.940200
H -0.073200 -7.957700 -19.726500
H -0.005600 -10.915500 -18.342600
N 0.024900 -10.175000 -18.778200
H 0.367900 -10.153800 -19.566900
23
Fragment
O -3.907600 -11.607100 -10.197600
H -3.686900 -12.689700 -12.366600
N -3.326800 -10.677200 -10.755600
C -3.279200 -11.984500 -12.815100
H -3.164800 -12.878000 -14.598600
O -3.033100 -9.646200 -10.162600
C -2.984000 -10.804300 -12.152300
C -2.960500 -12.094600 -14.141900
C -2.385700 -9.744000 -12.811600
C -2.336900 -11.053800 -14.811700
H -2.206800 -8.950800 -12.359600
C -2.061900 -9.872600 -14.130300
O -2.027400 -11.244500 -16.101600
H -1.665800 -10.571000 -16.397200
H -1.654100 -9.166500 -14.577600
O -0.965600 -9.069500 -17.085600
H -0.742600 -7.217300 -18.621000
C -0.464900 -9.060300 -18.222600
N -0.422000 -7.949200 -18.940200
H -0.073200 -7.957700 -19.726500
H -0.005600 -10.915500 -18.342600
N 0.024900 -10.175000 -18.778200
H 0.367900 -10.153800 -19.566900
