15
Fragment
O -3.907600 -11.607100 -10.197600
H -3.686900 -12.689700 -12.366600
N -3.326800 -10.677200 -10.755600
C -3.279200 -11.984500 -12.815100
H -3.164800 -12.878000 -14.598600
O -3.033100 -9.646200 -10.162600
C -2.984000 -10.804300 -12.152300
C -2.960500 -12.094600 -14.141900
C -2.385700 -9.744000 -12.811600
C -2.336900 -11.053800 -14.811700
H -2.206800 -8.950800 -12.359600
C -2.061900 -9.872600 -14.130300
O -2.027400 -11.244500 -16.101600
H -1.665800 -10.571000 -16.397200
H -1.654100 -9.166500 -14.577600
8
Fragment
O -1.463300 -10.947900 -5.436600
H -1.240200 -9.095700 -6.971900
C -0.962500 -10.938700 -6.573600
N -0.919600 -9.827600 -7.291100
H -0.570800 -9.836100 -8.077400
H -0.503200 -12.793900 -6.693500
N -0.472800 -12.053400 -7.129200
H -0.129800 -12.032200 -7.917800
23
Fragment
O -3.907600 -11.607100 -10.197600
H -3.686900 -12.689700 -12.366600
N -3.326800 -10.677200 -10.755600
C -3.279200 -11.984500 -12.815100
H -3.164800 -12.878000 -14.598600
O -3.033100 -9.646200 -10.162600
C -2.984000 -10.804300 -12.152300
C -2.960500 -12.094600 -14.141900
C -2.385700 -9.744000 -12.811600
C -2.336900 -11.053800 -14.811700
H -2.206800 -8.950800 -12.359600
C -2.061900 -9.872600 -14.130300
O -2.027400 -11.244500 -16.101600
H -1.665800 -10.571000 -16.397200
H -1.654100 -9.166500 -14.577600
O -1.463300 -10.947900 -5.436600
H -1.240200 -9.095700 -6.971900
C -0.962500 -10.938700 -6.573600
N -0.919600 -9.827600 -7.291100
H -0.570800 -9.836100 -8.077400
H -0.503200 -12.793900 -6.693500
N -0.472800 -12.053400 -7.129200
H -0.129800 -12.032200 -7.917800
