15
Fragment
O -3.907600 -11.607100 -10.197600
H -3.686900 -12.689700 -12.366600
N -3.326800 -10.677200 -10.755600
C -3.279200 -11.984500 -12.815100
H -3.164800 -12.878000 -14.598600
O -3.033100 -9.646200 -10.162600
C -2.984000 -10.804300 -12.152300
C -2.960500 -12.094600 -14.141900
C -2.385700 -9.744000 -12.811600
C -2.336900 -11.053800 -14.811700
H -2.206800 -8.950800 -12.359600
C -2.061900 -9.872600 -14.130300
O -2.027400 -11.244500 -16.101600
H -1.665800 -10.571000 -16.397200
H -1.654100 -9.166500 -14.577600
15
Fragment
H -3.663000 -17.361000 -8.720500
H -3.651300 -15.956500 -6.900900
O -3.289600 -15.283100 -7.196400
C -3.255200 -16.654900 -9.167800
H -3.110300 -17.576800 -10.938400
C -2.980200 -15.473700 -8.486300
C -2.931400 -16.783500 -10.486500
C -2.356500 -14.432900 -9.156100
C -2.333100 -15.723200 -11.145800
O -2.284000 -16.881300 -13.135500
H -2.152200 -13.649500 -8.699500
C -2.037800 -14.543000 -10.483000
N -1.990200 -15.850300 -12.542500
H -1.630200 -13.837800 -10.931500
O -1.409500 -14.920500 -13.100500
30
Fragment
O -3.907600 -11.607100 -10.197600
H -3.686900 -12.689700 -12.366600
N -3.326800 -10.677200 -10.755600
C -3.279200 -11.984500 -12.815100
H -3.164800 -12.878000 -14.598600
O -3.033100 -9.646200 -10.162600
C -2.984000 -10.804300 -12.152300
C -2.960500 -12.094600 -14.141900
C -2.385700 -9.744000 -12.811600
C -2.336900 -11.053800 -14.811700
H -2.206800 -8.950800 -12.359600
C -2.061900 -9.872600 -14.130300
O -2.027400 -11.244500 -16.101600
H -1.665800 -10.571000 -16.397200
H -1.654100 -9.166500 -14.577600
H -3.663000 -17.361000 -8.720500
H -3.651300 -15.956500 -6.900900
O -3.289600 -15.283100 -7.196400
C -3.255200 -16.654900 -9.167800
H -3.110300 -17.576800 -10.938400
C -2.980200 -15.473700 -8.486300
C -2.931400 -16.783500 -10.486500
C -2.356500 -14.432900 -9.156100
C -2.333100 -15.723200 -11.145800
O -2.284000 -16.881300 -13.135500
H -2.152200 -13.649500 -8.699500
C -2.037800 -14.543000 -10.483000
N -1.990200 -15.850300 -12.542500
H -1.630200 -13.837800 -10.931500
O -1.409500 -14.920500 -13.100500
