15
Fragment
O -13.732100 -3.819900 -28.049300
H -13.384700 -4.237600 -25.622200
C -12.665100 -4.436100 -28.148400
H -12.510600 -4.544000 -30.070400
C -12.488100 -4.548500 -25.670300
H -12.203700 -4.651200 -23.676300
N -12.139700 -4.825700 -29.297800
C -11.885500 -4.757900 -26.897700
C -11.772700 -4.796100 -24.510500
H -11.363000 -5.259500 -29.316700
C -10.573700 -5.209300 -26.903700
N -10.508800 -5.228400 -24.502900
H -10.120800 -5.368500 -27.723700
C -9.935700 -5.424400 -25.690600
H -9.036400 -5.728900 -25.708000
15
Fragment
H -17.900200 -5.509400 -34.105800
C -17.000900 -5.813900 -34.123200
H -16.815800 -5.869800 -32.090100
N -16.427800 -6.009900 -35.310900
C -16.363000 -6.029000 -32.910200
H -15.573700 -5.978800 -30.497100
C -15.164000 -6.442200 -35.303300
C -15.051200 -6.480400 -32.916100
N -14.797000 -6.412600 -30.516000
H -14.732900 -6.587100 -36.137500
C -14.448500 -6.689800 -34.143500
H -14.426100 -6.694300 -29.743400
C -14.271600 -6.802200 -31.665400
H -13.551900 -7.000700 -34.191600
O -13.204500 -7.418400 -31.764500
30
Fragment
O -13.732100 -3.819900 -28.049300
H -13.384700 -4.237600 -25.622200
C -12.665100 -4.436100 -28.148400
H -12.510600 -4.544000 -30.070400
C -12.488100 -4.548500 -25.670300
H -12.203700 -4.651200 -23.676300
N -12.139700 -4.825700 -29.297800
C -11.885500 -4.757900 -26.897700
C -11.772700 -4.796100 -24.510500
H -11.363000 -5.259500 -29.316700
C -10.573700 -5.209300 -26.903700
N -10.508800 -5.228400 -24.502900
H -10.120800 -5.368500 -27.723700
C -9.935700 -5.424400 -25.690600
H -9.036400 -5.728900 -25.708000
H -17.900200 -5.509400 -34.105800
C -17.000900 -5.813900 -34.123200
H -16.815800 -5.869800 -32.090100
N -16.427800 -6.009900 -35.310900
C -16.363000 -6.029000 -32.910200
H -15.573700 -5.978800 -30.497100
C -15.164000 -6.442200 -35.303300
C -15.051200 -6.480400 -32.916100
N -14.797000 -6.412600 -30.516000
H -14.732900 -6.587100 -36.137500
C -14.448500 -6.689800 -34.143500
H -14.426100 -6.694300 -29.743400
C -14.271600 -6.802200 -31.665400
H -13.551900 -7.000700 -34.191600
O -13.204500 -7.418400 -31.764500
