15
Fragment
O -13.732100 -3.819900 -28.049300
H -13.384700 -4.237600 -25.622200
C -12.665100 -4.436100 -28.148400
H -12.510600 -4.544000 -30.070400
C -12.488100 -4.548500 -25.670300
H -12.203700 -4.651200 -23.676300
N -12.139700 -4.825700 -29.297800
C -11.885500 -4.757900 -26.897700
C -11.772700 -4.796100 -24.510500
H -11.363000 -5.259500 -29.316700
C -10.573700 -5.209300 -26.903700
N -10.508800 -5.228400 -24.502900
H -10.120800 -5.368500 -27.723700
C -9.935700 -5.424400 -25.690600
H -9.036400 -5.728900 -25.708000
15
Fragment
H -18.700000 -7.602000 -24.136900
C -17.800700 -7.297400 -24.154200
H -17.615600 -7.241600 -22.121100
N -17.227600 -7.101500 -25.341900
C -17.162800 -7.082400 -22.941200
H -16.373500 -7.132600 -20.528100
C -15.963800 -6.669200 -25.334300
C -15.851000 -6.631000 -22.947200
N -15.596800 -6.698800 -20.547000
H -15.532700 -6.524200 -26.168500
C -15.248300 -6.421600 -24.174500
H -15.225900 -6.417100 -19.774400
C -15.071400 -6.309200 -21.696500
H -14.351700 -6.110600 -24.222600
O -14.004300 -5.692900 -21.795600
30
Fragment
O -13.732100 -3.819900 -28.049300
H -13.384700 -4.237600 -25.622200
C -12.665100 -4.436100 -28.148400
H -12.510600 -4.544000 -30.070400
C -12.488100 -4.548500 -25.670300
H -12.203700 -4.651200 -23.676300
N -12.139700 -4.825700 -29.297800
C -11.885500 -4.757900 -26.897700
C -11.772700 -4.796100 -24.510500
H -11.363000 -5.259500 -29.316700
C -10.573700 -5.209300 -26.903700
N -10.508800 -5.228400 -24.502900
H -10.120800 -5.368500 -27.723700
C -9.935700 -5.424400 -25.690600
H -9.036400 -5.728900 -25.708000
H -18.700000 -7.602000 -24.136900
C -17.800700 -7.297400 -24.154200
H -17.615600 -7.241600 -22.121100
N -17.227600 -7.101500 -25.341900
C -17.162800 -7.082400 -22.941200
H -16.373500 -7.132600 -20.528100
C -15.963800 -6.669200 -25.334300
C -15.851000 -6.631000 -22.947200
N -15.596800 -6.698800 -20.547000
H -15.532700 -6.524200 -26.168500
C -15.248300 -6.421600 -24.174500
H -15.225900 -6.417100 -19.774400
C -15.071400 -6.309200 -21.696500
H -14.351700 -6.110600 -24.222600
O -14.004300 -5.692900 -21.795600
