15
Fragment
O -3.907600 -11.607100 -10.197600
H -3.686900 -12.689700 -12.366600
N -3.326800 -10.677200 -10.755600
C -3.279200 -11.984500 -12.815100
H -3.164800 -12.878000 -14.598600
O -3.033100 -9.646200 -10.162600
C -2.984000 -10.804300 -12.152300
C -2.960500 -12.094600 -14.141900
C -2.385700 -9.744000 -12.811600
C -2.336900 -11.053800 -14.811700
H -2.206800 -8.950800 -12.359600
C -2.061900 -9.872600 -14.130300
O -2.027400 -11.244500 -16.101600
H -1.665800 -10.571000 -16.397200
H -1.654100 -9.166500 -14.577600
15
Fragment
H -1.558900 -7.266200 -8.720500
H -1.547200 -5.861700 -6.900900
O -1.185500 -5.188300 -7.196400
C -1.151100 -6.560200 -9.167800
H -1.006200 -7.482000 -10.938400
C -0.876100 -5.378900 -8.486300
C -0.827300 -6.688700 -10.486500
C -0.252400 -4.338200 -9.156100
C -0.229000 -5.628500 -11.145800
O -0.179900 -6.786500 -13.135500
H -0.048100 -3.554700 -8.699500
C 0.066300 -4.448300 -10.483000
N 0.113900 -5.755500 -12.542500
H 0.473900 -3.743000 -10.931500
O 0.694600 -4.825700 -13.100500
30
Fragment
O -3.907600 -11.607100 -10.197600
H -3.686900 -12.689700 -12.366600
N -3.326800 -10.677200 -10.755600
C -3.279200 -11.984500 -12.815100
H -3.164800 -12.878000 -14.598600
O -3.033100 -9.646200 -10.162600
C -2.984000 -10.804300 -12.152300
C -2.960500 -12.094600 -14.141900
C -2.385700 -9.744000 -12.811600
C -2.336900 -11.053800 -14.811700
H -2.206800 -8.950800 -12.359600
C -2.061900 -9.872600 -14.130300
O -2.027400 -11.244500 -16.101600
H -1.665800 -10.571000 -16.397200
H -1.654100 -9.166500 -14.577600
H -1.558900 -7.266200 -8.720500
H -1.547200 -5.861700 -6.900900
O -1.185500 -5.188300 -7.196400
C -1.151100 -6.560200 -9.167800
H -1.006200 -7.482000 -10.938400
C -0.876100 -5.378900 -8.486300
C -0.827300 -6.688700 -10.486500
C -0.252400 -4.338200 -9.156100
C -0.229000 -5.628500 -11.145800
O -0.179900 -6.786500 -13.135500
H -0.048100 -3.554700 -8.699500
C 0.066300 -4.448300 -10.483000
N 0.113900 -5.755500 -12.542500
H 0.473900 -3.743000 -10.931500
O 0.694600 -4.825700 -13.100500
