15
Fragment
O -13.732100 -3.819900 -28.049300
H -13.384700 -4.237600 -25.622200
C -12.665100 -4.436100 -28.148400
H -12.510600 -4.544000 -30.070400
C -12.488100 -4.548500 -25.670300
H -12.203700 -4.651200 -23.676300
N -12.139700 -4.825700 -29.297800
C -11.885500 -4.757900 -26.897700
C -11.772700 -4.796100 -24.510500
H -11.363000 -5.259500 -29.316700
C -10.573700 -5.209300 -26.903700
N -10.508800 -5.228400 -24.502900
H -10.120800 -5.368500 -27.723700
C -9.935700 -5.424400 -25.690600
H -9.036400 -5.728900 -25.708000
6
Fragment
H -10.515000 -6.381500 -31.460100
C -9.758800 -6.694700 -30.977600
O -9.704900 -6.429800 -29.774700
H -8.977400 -7.537200 -32.548700
N -8.853500 -7.376400 -31.648100
H -8.093900 -7.720700 -31.192900
21
Fragment
O -13.732100 -3.819900 -28.049300
H -13.384700 -4.237600 -25.622200
C -12.665100 -4.436100 -28.148400
H -12.510600 -4.544000 -30.070400
C -12.488100 -4.548500 -25.670300
H -12.203700 -4.651200 -23.676300
N -12.139700 -4.825700 -29.297800
C -11.885500 -4.757900 -26.897700
C -11.772700 -4.796100 -24.510500
H -11.363000 -5.259500 -29.316700
C -10.573700 -5.209300 -26.903700
N -10.508800 -5.228400 -24.502900
H -10.120800 -5.368500 -27.723700
C -9.935700 -5.424400 -25.690600
H -9.036400 -5.728900 -25.708000
H -10.515000 -6.381500 -31.460100
C -9.758800 -6.694700 -30.977600
O -9.704900 -6.429800 -29.774700
H -8.977400 -7.537200 -32.548700
N -8.853500 -7.376400 -31.648100
H -8.093900 -7.720700 -31.192900
