17
Fragment
O -11.883200 -20.955400 -16.219800
H -11.709500 -15.201200 -14.803500
O -11.693400 -16.020900 -14.817000
N -11.351700 -18.712000 -14.764900
N -11.305800 -21.110400 -15.158300
C -11.031900 -16.457700 -13.788300
C -11.004400 -19.956300 -14.366800
O -10.960900 -22.196100 -14.726400
C -10.905700 -17.937400 -13.793100
O -10.547700 -15.773300 -12.926300
C -10.350100 -19.955100 -13.169300
H -10.309700 -17.666600 -11.064500
N -10.289900 -18.657200 -12.809700
H -10.018000 -20.688300 -12.703600
C -9.668800 -18.175300 -11.566900
H -9.374300 -18.925500 -11.045300
H -8.915100 -17.619000 -11.780900
3
Fragment
H -6.394300 -18.530300 -12.466400
O -6.035000 -18.795000 -11.735600
H -5.705200 -19.555000 -11.839700
20
Fragment
O -11.883200 -20.955400 -16.219800
H -11.709500 -15.201200 -14.803500
O -11.693400 -16.020900 -14.817000
N -11.351700 -18.712000 -14.764900
N -11.305800 -21.110400 -15.158300
C -11.031900 -16.457700 -13.788300
C -11.004400 -19.956300 -14.366800
O -10.960900 -22.196100 -14.726400
C -10.905700 -17.937400 -13.793100
O -10.547700 -15.773300 -12.926300
C -10.350100 -19.955100 -13.169300
H -10.309700 -17.666600 -11.064500
N -10.289900 -18.657200 -12.809700
H -10.018000 -20.688300 -12.703600
C -9.668800 -18.175300 -11.566900
H -9.374300 -18.925500 -11.045300
H -8.915100 -17.619000 -11.780900
H -6.394300 -18.530300 -12.466400
O -6.035000 -18.795000 -11.735600
H -5.705200 -19.555000 -11.839700
