17
Fragment
O -11.883200 -20.955400 -16.219800
H -11.709500 -15.201200 -14.803500
O -11.693400 -16.020900 -14.817000
N -11.351700 -18.712000 -14.764900
N -11.305800 -21.110400 -15.158300
C -11.031900 -16.457700 -13.788300
C -11.004400 -19.956300 -14.366800
O -10.960900 -22.196100 -14.726400
C -10.905700 -17.937400 -13.793100
O -10.547700 -15.773300 -12.926300
C -10.350100 -19.955100 -13.169300
H -10.309700 -17.666600 -11.064500
N -10.289900 -18.657200 -12.809700
H -10.018000 -20.688300 -12.703600
C -9.668800 -18.175300 -11.566900
H -9.374300 -18.925500 -11.045300
H -8.915100 -17.619000 -11.780900
17
Fragment
H -17.221300 -18.978000 -17.143500
H -16.762100 -17.671500 -17.879100
C -16.467700 -18.421700 -17.357500
H -16.118500 -15.908700 -16.220800
N -15.846500 -17.939800 -16.114800
H -15.826700 -18.930400 -17.859900
C -15.786400 -16.641900 -15.755100
O -15.588800 -20.823700 -15.998100
C -15.230700 -18.659600 -15.131300
O -15.175600 -14.400900 -14.198000
C -15.132000 -16.640700 -14.557700
C -15.104600 -20.139300 -15.136100
N -14.830700 -15.486600 -13.766100
N -14.784700 -17.885000 -14.159500
O -14.443100 -20.576100 -14.107400
H -14.426900 -21.395800 -14.120900
O -14.253300 -15.641600 -12.704600
34
Fragment
O -11.883200 -20.955400 -16.219800
H -11.709500 -15.201200 -14.803500
O -11.693400 -16.020900 -14.817000
N -11.351700 -18.712000 -14.764900
N -11.305800 -21.110400 -15.158300
C -11.031900 -16.457700 -13.788300
C -11.004400 -19.956300 -14.366800
O -10.960900 -22.196100 -14.726400
C -10.905700 -17.937400 -13.793100
O -10.547700 -15.773300 -12.926300
C -10.350100 -19.955100 -13.169300
H -10.309700 -17.666600 -11.064500
N -10.289900 -18.657200 -12.809700
H -10.018000 -20.688300 -12.703600
C -9.668800 -18.175300 -11.566900
H -9.374300 -18.925500 -11.045300
H -8.915100 -17.619000 -11.780900
H -17.221300 -18.978000 -17.143500
H -16.762100 -17.671500 -17.879100
C -16.467700 -18.421700 -17.357500
H -16.118500 -15.908700 -16.220800
N -15.846500 -17.939800 -16.114800
H -15.826700 -18.930400 -17.859900
C -15.786400 -16.641900 -15.755100
O -15.588800 -20.823700 -15.998100
C -15.230700 -18.659600 -15.131300
O -15.175600 -14.400900 -14.198000
C -15.132000 -16.640700 -14.557700
C -15.104600 -20.139300 -15.136100
N -14.830700 -15.486600 -13.766100
N -14.784700 -17.885000 -14.159500
O -14.443100 -20.576100 -14.107400
H -14.426900 -21.395800 -14.120900
O -14.253300 -15.641600 -12.704600
