17
Fragment
O -11.883200 -20.955400 -16.219800
H -11.709500 -15.201200 -14.803500
O -11.693400 -16.020900 -14.817000
N -11.351700 -18.712000 -14.764900
N -11.305800 -21.110400 -15.158300
C -11.031900 -16.457700 -13.788300
C -11.004400 -19.956300 -14.366800
O -10.960900 -22.196100 -14.726400
C -10.905700 -17.937400 -13.793100
O -10.547700 -15.773300 -12.926300
C -10.350100 -19.955100 -13.169300
H -10.309700 -17.666600 -11.064500
N -10.289900 -18.657200 -12.809700
H -10.018000 -20.688300 -12.703600
C -9.668800 -18.175300 -11.566900
H -9.374300 -18.925500 -11.045300
H -8.915100 -17.619000 -11.780900
17
Fragment
O -12.538000 -21.741100 -11.399100
H -12.364300 -27.495300 -9.982800
O -12.348200 -26.675600 -9.996300
N -12.006500 -23.984500 -9.944200
N -11.960600 -21.586100 -10.337600
C -11.686700 -26.238800 -8.967500
C -11.659200 -22.740200 -9.546000
O -11.615600 -20.500400 -9.905600
C -11.560500 -24.759100 -8.972400
O -11.202500 -26.923200 -8.105600
C -11.004900 -22.741400 -8.348500
H -10.964500 -25.029900 -6.243800
N -10.944700 -24.039300 -7.988900
H -10.672800 -22.008200 -7.882900
C -10.323600 -24.521200 -6.746100
H -10.029100 -23.771000 -6.224500
H -9.569900 -25.077500 -6.960200
34
Fragment
O -11.883200 -20.955400 -16.219800
H -11.709500 -15.201200 -14.803500
O -11.693400 -16.020900 -14.817000
N -11.351700 -18.712000 -14.764900
N -11.305800 -21.110400 -15.158300
C -11.031900 -16.457700 -13.788300
C -11.004400 -19.956300 -14.366800
O -10.960900 -22.196100 -14.726400
C -10.905700 -17.937400 -13.793100
O -10.547700 -15.773300 -12.926300
C -10.350100 -19.955100 -13.169300
H -10.309700 -17.666600 -11.064500
N -10.289900 -18.657200 -12.809700
H -10.018000 -20.688300 -12.703600
C -9.668800 -18.175300 -11.566900
H -9.374300 -18.925500 -11.045300
H -8.915100 -17.619000 -11.780900
O -12.538000 -21.741100 -11.399100
H -12.364300 -27.495300 -9.982800
O -12.348200 -26.675600 -9.996300
N -12.006500 -23.984500 -9.944200
N -11.960600 -21.586100 -10.337600
C -11.686700 -26.238800 -8.967500
C -11.659200 -22.740200 -9.546000
O -11.615600 -20.500400 -9.905600
C -11.560500 -24.759100 -8.972400
O -11.202500 -26.923200 -8.105600
C -11.004900 -22.741400 -8.348500
H -10.964500 -25.029900 -6.243800
N -10.944700 -24.039300 -7.988900
H -10.672800 -22.008200 -7.882900
C -10.323600 -24.521200 -6.746100
H -10.029100 -23.771000 -6.224500
H -9.569900 -25.077500 -6.960200
