17
Fragment
O -5.643500 -6.732000 -16.842400
H -5.381000 -6.292900 -14.483100
C -4.810300 -5.941900 -16.317600
N -4.806200 -5.843600 -14.938500
O -4.062600 -5.142000 -12.977800
C -3.921100 -5.058800 -14.292100
C -3.868200 -5.151200 -16.978000
H -3.813300 -5.164500 -17.906300
H -3.345400 -4.529000 -11.241500
H -3.247500 -3.447000 -12.371800
C -3.151100 -4.380500 -12.169900
N -3.025600 -4.304300 -14.863500
C -3.012200 -4.343200 -16.236500
H -2.250600 -4.656800 -12.356400
N -2.116300 -3.539400 -16.828000
H -2.058200 -3.517900 -17.685700
H -1.599800 -3.045500 -16.349500
17
Fragment
H -10.709300 -11.031900 -14.069100
H -10.250900 -10.559600 -12.733000
N -10.192800 -10.538000 -13.590700
H -10.058400 -9.420700 -18.062300
C -9.296900 -9.734300 -14.182200
N -9.283400 -9.773200 -15.555200
C -9.158000 -9.697000 -18.248800
H -9.061600 -10.630500 -18.046900
H -8.963700 -9.548500 -19.177100
H -8.495800 -8.913000 -12.512400
C -8.440800 -8.926300 -13.440700
C -8.388000 -9.018700 -16.126600
O -8.246400 -8.935500 -17.440800
N -7.502800 -8.233900 -15.480200
C -7.498700 -8.135500 -14.101100
H -6.928100 -7.784600 -15.935500
O -6.665500 -7.345400 -13.576300
34
Fragment
O -5.643500 -6.732000 -16.842400
H -5.381000 -6.292900 -14.483100
C -4.810300 -5.941900 -16.317600
N -4.806200 -5.843600 -14.938500
O -4.062600 -5.142000 -12.977800
C -3.921100 -5.058800 -14.292100
C -3.868200 -5.151200 -16.978000
H -3.813300 -5.164500 -17.906300
H -3.345400 -4.529000 -11.241500
H -3.247500 -3.447000 -12.371800
C -3.151100 -4.380500 -12.169900
N -3.025600 -4.304300 -14.863500
C -3.012200 -4.343200 -16.236500
H -2.250600 -4.656800 -12.356400
N -2.116300 -3.539400 -16.828000
H -2.058200 -3.517900 -17.685700
H -1.599800 -3.045500 -16.349500
H -10.709300 -11.031900 -14.069100
H -10.250900 -10.559600 -12.733000
N -10.192800 -10.538000 -13.590700
H -10.058400 -9.420700 -18.062300
C -9.296900 -9.734300 -14.182200
N -9.283400 -9.773200 -15.555200
C -9.158000 -9.697000 -18.248800
H -9.061600 -10.630500 -18.046900
H -8.963700 -9.548500 -19.177100
H -8.495800 -8.913000 -12.512400
C -8.440800 -8.926300 -13.440700
C -8.388000 -9.018700 -16.126600
O -8.246400 -8.935500 -17.440800
N -7.502800 -8.233900 -15.480200
C -7.498700 -8.135500 -14.101100
H -6.928100 -7.784600 -15.935500
O -6.665500 -7.345400 -13.576300
