17
Fragment
O -5.643500 -6.732000 -16.842400
H -5.381000 -6.292900 -14.483100
C -4.810300 -5.941900 -16.317600
N -4.806200 -5.843600 -14.938500
O -4.062600 -5.142000 -12.977800
C -3.921100 -5.058800 -14.292100
C -3.868200 -5.151200 -16.978000
H -3.813300 -5.164500 -17.906300
H -3.345400 -4.529000 -11.241500
H -3.247500 -3.447000 -12.371800
C -3.151100 -4.380500 -12.169900
N -3.025600 -4.304300 -14.863500
C -3.012200 -4.343200 -16.236500
H -2.250600 -4.656800 -12.356400
N -2.116300 -3.539400 -16.828000
H -2.058200 -3.517900 -17.685700
H -1.599800 -3.045500 -16.349500
17
Fragment
H -6.334400 -2.842700 -14.069100
H -5.876000 -2.370300 -12.733000
N -5.817900 -2.348800 -13.590700
H -5.683600 -1.231500 -18.062300
C -4.922000 -1.545000 -14.182200
N -4.908600 -1.583900 -15.555200
C -4.783100 -1.507800 -18.248800
H -4.686700 -2.441300 -18.046900
H -4.588800 -1.359200 -19.177100
H -4.120900 -0.723800 -12.512400
C -4.066000 -0.737000 -13.440700
C -4.013100 -0.829400 -16.126600
O -3.871600 -0.746300 -17.440800
N -3.128000 -0.044700 -15.480200
C -3.123900 0.053700 -14.101100
H -2.553200 0.404600 -15.935500
O -2.290700 0.843800 -13.576300
34
Fragment
O -5.643500 -6.732000 -16.842400
H -5.381000 -6.292900 -14.483100
C -4.810300 -5.941900 -16.317600
N -4.806200 -5.843600 -14.938500
O -4.062600 -5.142000 -12.977800
C -3.921100 -5.058800 -14.292100
C -3.868200 -5.151200 -16.978000
H -3.813300 -5.164500 -17.906300
H -3.345400 -4.529000 -11.241500
H -3.247500 -3.447000 -12.371800
C -3.151100 -4.380500 -12.169900
N -3.025600 -4.304300 -14.863500
C -3.012200 -4.343200 -16.236500
H -2.250600 -4.656800 -12.356400
N -2.116300 -3.539400 -16.828000
H -2.058200 -3.517900 -17.685700
H -1.599800 -3.045500 -16.349500
H -6.334400 -2.842700 -14.069100
H -5.876000 -2.370300 -12.733000
N -5.817900 -2.348800 -13.590700
H -5.683600 -1.231500 -18.062300
C -4.922000 -1.545000 -14.182200
N -4.908600 -1.583900 -15.555200
C -4.783100 -1.507800 -18.248800
H -4.686700 -2.441300 -18.046900
H -4.588800 -1.359200 -19.177100
H -4.120900 -0.723800 -12.512400
C -4.066000 -0.737000 -13.440700
C -4.013100 -0.829400 -16.126600
O -3.871600 -0.746300 -17.440800
N -3.128000 -0.044700 -15.480200
C -3.123900 0.053700 -14.101100
H -2.553200 0.404600 -15.935500
O -2.290700 0.843800 -13.576300
