42
Fragment
N -9.935900 -12.645900 -22.098800
C -8.954100 -12.614300 -21.512000
H -7.980200 -10.150800 -21.825400
C -7.755400 -12.584800 -20.741500
N -7.453000 -13.755800 -20.119200
N -7.218900 -10.253800 -21.250200
C -6.986900 -11.405200 -20.653900
H -6.623900 -9.514500 -21.105200
N -6.404000 -13.848500 -19.342500
H -6.387500 -16.393600 -16.093700
N -5.901300 -11.546700 -19.842700
H -5.900800 -14.305800 -17.032400
H -5.722700 -16.546000 -17.504100
C -5.638200 -12.743300 -19.180500
C -5.583500 -16.258800 -16.598500
C -5.214200 -14.798500 -16.577400
H -5.157100 -14.500600 -15.665800
N -5.004900 -10.551500 -19.584900
H -4.706500 -18.034800 -16.104300
C -4.491400 -12.482800 -18.421800
C -4.485700 -17.107500 -15.989800
H -4.407100 -16.909900 -15.052500
C -4.164000 -11.141600 -18.711400
N -3.928100 -14.576000 -17.253800
C -3.618200 -13.254000 -17.555300
H -3.216000 -17.106100 -17.597500
C -3.167700 -16.825900 -16.681400
H -3.146100 -8.619900 -18.839000
C -2.978100 -10.555400 -18.146200
C -2.840500 -15.347100 -16.640700
H -2.790000 -15.021500 -15.659800
C -2.592500 -9.217200 -18.331300
N -2.503800 -12.742000 -17.096200
H -2.463400 -17.303900 -16.236900
C -2.177000 -11.424400 -17.384300
H -2.028800 -15.191900 -17.128900
C -1.416100 -8.759600 -17.784300
H -1.173600 -7.850700 -17.975700
C -0.980900 -10.918200 -16.845600
C -0.611500 -9.626500 -17.044500
H -0.412300 -11.497800 -16.333300
H 0.199400 -9.277300 -16.640700
12
Fragment
O -6.133100 -7.686900 -21.109700
H -6.030800 -5.071200 -21.310100
H -5.860100 -5.165700 -19.969100
C -5.275800 -5.053100 -20.722500
C -4.947100 -7.432000 -20.981700
H -4.879200 -4.374200 -20.055000
N -4.429500 -6.222300 -20.802800
H -4.371900 -8.200000 -21.011800
C -2.998500 -6.001800 -20.678800
H -2.829200 -5.065300 -20.556700
H -2.657200 -6.490600 -19.926900
H -2.563400 -6.302900 -21.480400
54
Fragment
N -9.935900 -12.645900 -22.098800
C -8.954100 -12.614300 -21.512000
H -7.980200 -10.150800 -21.825400
C -7.755400 -12.584800 -20.741500
N -7.453000 -13.755800 -20.119200
N -7.218900 -10.253800 -21.250200
C -6.986900 -11.405200 -20.653900
H -6.623900 -9.514500 -21.105200
N -6.404000 -13.848500 -19.342500
H -6.387500 -16.393600 -16.093700
N -5.901300 -11.546700 -19.842700
H -5.900800 -14.305800 -17.032400
H -5.722700 -16.546000 -17.504100
C -5.638200 -12.743300 -19.180500
C -5.583500 -16.258800 -16.598500
C -5.214200 -14.798500 -16.577400
H -5.157100 -14.500600 -15.665800
N -5.004900 -10.551500 -19.584900
H -4.706500 -18.034800 -16.104300
C -4.491400 -12.482800 -18.421800
C -4.485700 -17.107500 -15.989800
H -4.407100 -16.909900 -15.052500
C -4.164000 -11.141600 -18.711400
N -3.928100 -14.576000 -17.253800
C -3.618200 -13.254000 -17.555300
H -3.216000 -17.106100 -17.597500
C -3.167700 -16.825900 -16.681400
H -3.146100 -8.619900 -18.839000
C -2.978100 -10.555400 -18.146200
C -2.840500 -15.347100 -16.640700
H -2.790000 -15.021500 -15.659800
C -2.592500 -9.217200 -18.331300
N -2.503800 -12.742000 -17.096200
H -2.463400 -17.303900 -16.236900
C -2.177000 -11.424400 -17.384300
H -2.028800 -15.191900 -17.128900
C -1.416100 -8.759600 -17.784300
H -1.173600 -7.850700 -17.975700
C -0.980900 -10.918200 -16.845600
C -0.611500 -9.626500 -17.044500
H -0.412300 -11.497800 -16.333300
H 0.199400 -9.277300 -16.640700
O -6.133100 -7.686900 -21.109700
H -6.030800 -5.071200 -21.310100
H -5.860100 -5.165700 -19.969100
C -5.275800 -5.053100 -20.722500
C -4.947100 -7.432000 -20.981700
H -4.879200 -4.374200 -20.055000
N -4.429500 -6.222300 -20.802800
H -4.371900 -8.200000 -21.011800
C -2.998500 -6.001800 -20.678800
H -2.829200 -5.065300 -20.556700
H -2.657200 -6.490600 -19.926900
H -2.563400 -6.302900 -21.480400
