42
Fragment
N -9.935900 -12.645900 -22.098800
C -8.954100 -12.614300 -21.512000
H -7.980200 -10.150800 -21.825400
C -7.755400 -12.584800 -20.741500
N -7.453000 -13.755800 -20.119200
N -7.218900 -10.253800 -21.250200
C -6.986900 -11.405200 -20.653900
H -6.623900 -9.514500 -21.105200
N -6.404000 -13.848500 -19.342500
H -6.387500 -16.393600 -16.093700
N -5.901300 -11.546700 -19.842700
H -5.900800 -14.305800 -17.032400
H -5.722700 -16.546000 -17.504100
C -5.638200 -12.743300 -19.180500
C -5.583500 -16.258800 -16.598500
C -5.214200 -14.798500 -16.577400
H -5.157100 -14.500600 -15.665800
N -5.004900 -10.551500 -19.584900
H -4.706500 -18.034800 -16.104300
C -4.491400 -12.482800 -18.421800
C -4.485700 -17.107500 -15.989800
H -4.407100 -16.909900 -15.052500
C -4.164000 -11.141600 -18.711400
N -3.928100 -14.576000 -17.253800
C -3.618200 -13.254000 -17.555300
H -3.216000 -17.106100 -17.597500
C -3.167700 -16.825900 -16.681400
H -3.146100 -8.619900 -18.839000
C -2.978100 -10.555400 -18.146200
C -2.840500 -15.347100 -16.640700
H -2.790000 -15.021500 -15.659800
C -2.592500 -9.217200 -18.331300
N -2.503800 -12.742000 -17.096200
H -2.463400 -17.303900 -16.236900
C -2.177000 -11.424400 -17.384300
H -2.028800 -15.191900 -17.128900
C -1.416100 -8.759600 -17.784300
H -1.173600 -7.850700 -17.975700
C -0.980900 -10.918200 -16.845600
C -0.611500 -9.626500 -17.044500
H -0.412300 -11.497800 -16.333300
H 0.199400 -9.277300 -16.640700
42
Fragment
H -1.815300 -16.700000 -13.494600
H -1.203600 -14.479500 -13.801900
C -1.004400 -16.350800 -13.090700
C -0.635000 -15.059100 -13.289600
H -0.442300 -18.126600 -12.159600
C -0.199800 -17.217800 -12.350900
H 0.412900 -10.785400 -13.006400
C 0.561100 -14.552900 -12.751000
H 0.847500 -8.673400 -13.898400
N 0.887900 -13.235300 -13.039100
C 0.976600 -16.760100 -11.804000
H 1.174100 -10.955800 -14.475500
C 1.224500 -10.630300 -13.494600
C 1.362200 -15.421900 -11.989000
H 1.530200 -17.357500 -11.296200
C 1.551800 -9.151400 -13.453900
H 1.600100 -8.871200 -12.537800
C 2.002200 -12.723300 -12.580000
N 2.312200 -11.401400 -12.881500
C 2.548100 -14.835700 -11.423800
H 2.791100 -9.067400 -15.082700
C 2.869800 -8.869800 -14.145500
C 2.875500 -13.494500 -11.713400
H 3.090500 -7.942600 -14.031000
N 3.389000 -15.425800 -10.550300
H 3.541200 -11.476700 -14.469400
C 3.598300 -11.178800 -13.557800
C 3.967600 -9.718500 -13.536700
C 4.022300 -13.234000 -10.954800
H 4.106800 -9.431300 -12.631200
H 4.284900 -11.671500 -13.102800
N 4.285400 -14.430600 -10.292500
H 4.771600 -9.583700 -14.041500
N 4.788000 -12.128800 -10.792800
H 5.008000 -16.462900 -9.030000
C 5.370900 -14.572100 -9.481300
N 5.603000 -15.723500 -8.885100
N 5.837100 -12.221600 -10.016000
C 6.139500 -13.392500 -9.393800
H 6.364300 -15.826500 -8.309800
C 7.338200 -13.363100 -8.623200
N 8.320000 -13.331500 -8.036500
84
Fragment
N -9.935900 -12.645900 -22.098800
C -8.954100 -12.614300 -21.512000
H -7.980200 -10.150800 -21.825400
C -7.755400 -12.584800 -20.741500
N -7.453000 -13.755800 -20.119200
N -7.218900 -10.253800 -21.250200
C -6.986900 -11.405200 -20.653900
H -6.623900 -9.514500 -21.105200
N -6.404000 -13.848500 -19.342500
H -6.387500 -16.393600 -16.093700
N -5.901300 -11.546700 -19.842700
H -5.900800 -14.305800 -17.032400
H -5.722700 -16.546000 -17.504100
C -5.638200 -12.743300 -19.180500
C -5.583500 -16.258800 -16.598500
C -5.214200 -14.798500 -16.577400
H -5.157100 -14.500600 -15.665800
N -5.004900 -10.551500 -19.584900
H -4.706500 -18.034800 -16.104300
C -4.491400 -12.482800 -18.421800
C -4.485700 -17.107500 -15.989800
H -4.407100 -16.909900 -15.052500
C -4.164000 -11.141600 -18.711400
N -3.928100 -14.576000 -17.253800
C -3.618200 -13.254000 -17.555300
H -3.216000 -17.106100 -17.597500
C -3.167700 -16.825900 -16.681400
H -3.146100 -8.619900 -18.839000
C -2.978100 -10.555400 -18.146200
C -2.840500 -15.347100 -16.640700
H -2.790000 -15.021500 -15.659800
C -2.592500 -9.217200 -18.331300
N -2.503800 -12.742000 -17.096200
H -2.463400 -17.303900 -16.236900
C -2.177000 -11.424400 -17.384300
H -2.028800 -15.191900 -17.128900
C -1.416100 -8.759600 -17.784300
H -1.173600 -7.850700 -17.975700
C -0.980900 -10.918200 -16.845600
C -0.611500 -9.626500 -17.044500
H -0.412300 -11.497800 -16.333300
H 0.199400 -9.277300 -16.640700
H -1.815300 -16.700000 -13.494600
H -1.203600 -14.479500 -13.801900
C -1.004400 -16.350800 -13.090700
C -0.635000 -15.059100 -13.289600
H -0.442300 -18.126600 -12.159600
C -0.199800 -17.217800 -12.350900
H 0.412900 -10.785400 -13.006400
C 0.561100 -14.552900 -12.751000
H 0.847500 -8.673400 -13.898400
N 0.887900 -13.235300 -13.039100
C 0.976600 -16.760100 -11.804000
H 1.174100 -10.955800 -14.475500
C 1.224500 -10.630300 -13.494600
C 1.362200 -15.421900 -11.989000
H 1.530200 -17.357500 -11.296200
C 1.551800 -9.151400 -13.453900
H 1.600100 -8.871200 -12.537800
C 2.002200 -12.723300 -12.580000
N 2.312200 -11.401400 -12.881500
C 2.548100 -14.835700 -11.423800
H 2.791100 -9.067400 -15.082700
C 2.869800 -8.869800 -14.145500
C 2.875500 -13.494500 -11.713400
H 3.090500 -7.942600 -14.031000
N 3.389000 -15.425800 -10.550300
H 3.541200 -11.476700 -14.469400
C 3.598300 -11.178800 -13.557800
C 3.967600 -9.718500 -13.536700
C 4.022300 -13.234000 -10.954800
H 4.106800 -9.431300 -12.631200
H 4.284900 -11.671500 -13.102800
N 4.285400 -14.430600 -10.292500
H 4.771600 -9.583700 -14.041500
N 4.788000 -12.128800 -10.792800
H 5.008000 -16.462900 -9.030000
C 5.370900 -14.572100 -9.481300
N 5.603000 -15.723500 -8.885100
N 5.837100 -12.221600 -10.016000
C 6.139500 -13.392500 -9.393800
H 6.364300 -15.826500 -8.309800
C 7.338200 -13.363100 -8.623200
N 8.320000 -13.331500 -8.036500
