42
Fragment
N -9.935900 -12.645900 -22.098800
C -8.954100 -12.614300 -21.512000
H -7.980200 -10.150800 -21.825400
C -7.755400 -12.584800 -20.741500
N -7.453000 -13.755800 -20.119200
N -7.218900 -10.253800 -21.250200
C -6.986900 -11.405200 -20.653900
H -6.623900 -9.514500 -21.105200
N -6.404000 -13.848500 -19.342500
H -6.387500 -16.393600 -16.093700
N -5.901300 -11.546700 -19.842700
H -5.900800 -14.305800 -17.032400
H -5.722700 -16.546000 -17.504100
C -5.638200 -12.743300 -19.180500
C -5.583500 -16.258800 -16.598500
C -5.214200 -14.798500 -16.577400
H -5.157100 -14.500600 -15.665800
N -5.004900 -10.551500 -19.584900
H -4.706500 -18.034800 -16.104300
C -4.491400 -12.482800 -18.421800
C -4.485700 -17.107500 -15.989800
H -4.407100 -16.909900 -15.052500
C -4.164000 -11.141600 -18.711400
N -3.928100 -14.576000 -17.253800
C -3.618200 -13.254000 -17.555300
H -3.216000 -17.106100 -17.597500
C -3.167700 -16.825900 -16.681400
H -3.146100 -8.619900 -18.839000
C -2.978100 -10.555400 -18.146200
C -2.840500 -15.347100 -16.640700
H -2.790000 -15.021500 -15.659800
C -2.592500 -9.217200 -18.331300
N -2.503800 -12.742000 -17.096200
H -2.463400 -17.303900 -16.236900
C -2.177000 -11.424400 -17.384300
H -2.028800 -15.191900 -17.128900
C -1.416100 -8.759600 -17.784300
H -1.173600 -7.850700 -17.975700
C -0.980900 -10.918200 -16.845600
C -0.611500 -9.626500 -17.044500
H -0.412300 -11.497800 -16.333300
H 0.199400 -9.277300 -16.640700
42
Fragment
H -7.128400 -27.776200 -13.494600
H -6.516600 -25.555700 -13.801900
C -6.317500 -27.427000 -13.090700
C -5.948000 -26.135300 -13.289600
H -5.755400 -29.202900 -12.159600
C -5.512900 -28.294000 -12.350900
H -4.900100 -21.861600 -13.006400
C -4.752000 -25.629100 -12.751000
H -4.465600 -19.749600 -13.898400
N -4.425200 -24.311500 -13.039100
C -4.336500 -27.836300 -11.804000
H -4.138900 -22.032000 -14.475500
C -4.088500 -21.706500 -13.494600
C -3.950800 -26.498100 -11.989000
H -3.782900 -28.433700 -11.296200
C -3.761200 -20.227600 -13.453900
H -3.713000 -19.947400 -12.537800
C -3.310800 -23.799500 -12.580000
N -3.000800 -22.477600 -12.881500
C -2.765000 -25.911900 -11.423800
H -2.521900 -20.143600 -15.082700
C -2.443300 -19.946000 -14.145500
C -2.437600 -24.570700 -11.713400
H -2.222500 -19.018800 -14.031000
N -1.924100 -26.502000 -10.550300
H -1.771800 -22.552900 -14.469400
C -1.714700 -22.255000 -13.557800
C -1.345500 -20.794700 -13.536700
C -1.290800 -24.310200 -10.954800
H -1.206200 -20.507500 -12.631200
H -1.028100 -22.747700 -13.102800
N -1.027700 -25.506800 -10.292500
H -0.541400 -20.659900 -14.041500
N -0.525000 -23.205000 -10.792800
H -0.305000 -27.539100 -9.030000
C 0.057900 -25.648300 -9.481300
N 0.289900 -26.799700 -8.885100
N 0.524100 -23.297800 -10.016000
C 0.826400 -24.468700 -9.393800
H 1.051200 -26.902700 -8.309800
C 2.025200 -24.439300 -8.623200
N 3.006900 -24.407700 -8.036500
84
Fragment
N -9.935900 -12.645900 -22.098800
C -8.954100 -12.614300 -21.512000
H -7.980200 -10.150800 -21.825400
C -7.755400 -12.584800 -20.741500
N -7.453000 -13.755800 -20.119200
N -7.218900 -10.253800 -21.250200
C -6.986900 -11.405200 -20.653900
H -6.623900 -9.514500 -21.105200
N -6.404000 -13.848500 -19.342500
H -6.387500 -16.393600 -16.093700
N -5.901300 -11.546700 -19.842700
H -5.900800 -14.305800 -17.032400
H -5.722700 -16.546000 -17.504100
C -5.638200 -12.743300 -19.180500
C -5.583500 -16.258800 -16.598500
C -5.214200 -14.798500 -16.577400
H -5.157100 -14.500600 -15.665800
N -5.004900 -10.551500 -19.584900
H -4.706500 -18.034800 -16.104300
C -4.491400 -12.482800 -18.421800
C -4.485700 -17.107500 -15.989800
H -4.407100 -16.909900 -15.052500
C -4.164000 -11.141600 -18.711400
N -3.928100 -14.576000 -17.253800
C -3.618200 -13.254000 -17.555300
H -3.216000 -17.106100 -17.597500
C -3.167700 -16.825900 -16.681400
H -3.146100 -8.619900 -18.839000
C -2.978100 -10.555400 -18.146200
C -2.840500 -15.347100 -16.640700
H -2.790000 -15.021500 -15.659800
C -2.592500 -9.217200 -18.331300
N -2.503800 -12.742000 -17.096200
H -2.463400 -17.303900 -16.236900
C -2.177000 -11.424400 -17.384300
H -2.028800 -15.191900 -17.128900
C -1.416100 -8.759600 -17.784300
H -1.173600 -7.850700 -17.975700
C -0.980900 -10.918200 -16.845600
C -0.611500 -9.626500 -17.044500
H -0.412300 -11.497800 -16.333300
H 0.199400 -9.277300 -16.640700
H -7.128400 -27.776200 -13.494600
H -6.516600 -25.555700 -13.801900
C -6.317500 -27.427000 -13.090700
C -5.948000 -26.135300 -13.289600
H -5.755400 -29.202900 -12.159600
C -5.512900 -28.294000 -12.350900
H -4.900100 -21.861600 -13.006400
C -4.752000 -25.629100 -12.751000
H -4.465600 -19.749600 -13.898400
N -4.425200 -24.311500 -13.039100
C -4.336500 -27.836300 -11.804000
H -4.138900 -22.032000 -14.475500
C -4.088500 -21.706500 -13.494600
C -3.950800 -26.498100 -11.989000
H -3.782900 -28.433700 -11.296200
C -3.761200 -20.227600 -13.453900
H -3.713000 -19.947400 -12.537800
C -3.310800 -23.799500 -12.580000
N -3.000800 -22.477600 -12.881500
C -2.765000 -25.911900 -11.423800
H -2.521900 -20.143600 -15.082700
C -2.443300 -19.946000 -14.145500
C -2.437600 -24.570700 -11.713400
H -2.222500 -19.018800 -14.031000
N -1.924100 -26.502000 -10.550300
H -1.771800 -22.552900 -14.469400
C -1.714700 -22.255000 -13.557800
C -1.345500 -20.794700 -13.536700
C -1.290800 -24.310200 -10.954800
H -1.206200 -20.507500 -12.631200
H -1.028100 -22.747700 -13.102800
N -1.027700 -25.506800 -10.292500
H -0.541400 -20.659900 -14.041500
N -0.525000 -23.205000 -10.792800
H -0.305000 -27.539100 -9.030000
C 0.057900 -25.648300 -9.481300
N 0.289900 -26.799700 -8.885100
N 0.524100 -23.297800 -10.016000
C 0.826400 -24.468700 -9.393800
H 1.051200 -26.902700 -8.309800
C 2.025200 -24.439300 -8.623200
N 3.006900 -24.407700 -8.036500
