42
Fragment
N -9.935900 -12.645900 -22.098800
C -8.954100 -12.614300 -21.512000
H -7.980200 -10.150800 -21.825400
C -7.755400 -12.584800 -20.741500
N -7.453000 -13.755800 -20.119200
N -7.218900 -10.253800 -21.250200
C -6.986900 -11.405200 -20.653900
H -6.623900 -9.514500 -21.105200
N -6.404000 -13.848500 -19.342500
H -6.387500 -16.393600 -16.093700
N -5.901300 -11.546700 -19.842700
H -5.900800 -14.305800 -17.032400
H -5.722700 -16.546000 -17.504100
C -5.638200 -12.743300 -19.180500
C -5.583500 -16.258800 -16.598500
C -5.214200 -14.798500 -16.577400
H -5.157100 -14.500600 -15.665800
N -5.004900 -10.551500 -19.584900
H -4.706500 -18.034800 -16.104300
C -4.491400 -12.482800 -18.421800
C -4.485700 -17.107500 -15.989800
H -4.407100 -16.909900 -15.052500
C -4.164000 -11.141600 -18.711400
N -3.928100 -14.576000 -17.253800
C -3.618200 -13.254000 -17.555300
H -3.216000 -17.106100 -17.597500
C -3.167700 -16.825900 -16.681400
H -3.146100 -8.619900 -18.839000
C -2.978100 -10.555400 -18.146200
C -2.840500 -15.347100 -16.640700
H -2.790000 -15.021500 -15.659800
C -2.592500 -9.217200 -18.331300
N -2.503800 -12.742000 -17.096200
H -2.463400 -17.303900 -16.236900
C -2.177000 -11.424400 -17.384300
H -2.028800 -15.191900 -17.128900
C -1.416100 -8.759600 -17.784300
H -1.173600 -7.850700 -17.975700
C -0.980900 -10.918200 -16.845600
C -0.611500 -9.626500 -17.044500
H -0.412300 -11.497800 -16.333300
H 0.199400 -9.277300 -16.640700
42
Fragment
N -4.622800 -1.569700 -22.098800
C -3.641100 -1.538100 -21.512000
H -2.667100 0.925400 -21.825400
C -2.442300 -1.508600 -20.741500
N -2.140000 -2.679600 -20.119200
N -1.905800 0.822400 -21.250200
C -1.673800 -0.329000 -20.653900
H -1.310900 1.561700 -21.105200
N -1.090900 -2.772300 -19.342500
H -1.074500 -5.317400 -16.093700
N -0.588300 -0.470500 -19.842700
H -0.587800 -3.229600 -17.032400
H -0.409700 -5.469800 -17.504100
C -0.325100 -1.667100 -19.180500
C -0.270400 -5.182600 -16.598500
C 0.098800 -3.722300 -16.577400
H 0.155900 -3.424400 -15.665800
N 0.308100 0.524700 -19.584900
H 0.606600 -6.958500 -16.104300
C 0.821700 -1.406600 -18.421800
C 0.827400 -6.031300 -15.989800
H 0.906000 -5.833700 -15.052500
C 1.149100 -0.065400 -18.711400
N 1.384900 -3.499800 -17.253800
C 1.694900 -2.177800 -17.555300
H 2.097100 -6.029900 -17.597500
C 2.145300 -5.749700 -16.681400
H 2.167000 2.456400 -18.839000
C 2.334900 0.520800 -18.146200
C 2.472600 -4.270900 -16.640700
H 2.523000 -3.945300 -15.659800
C 2.720500 1.859000 -18.331300
N 2.809200 -1.665800 -17.096200
H 2.849700 -6.227700 -16.236900
C 3.136100 -0.348200 -17.384300
H 3.284200 -4.115700 -17.128900
C 3.896900 2.316600 -17.784300
H 4.139500 3.225500 -17.975700
C 4.332100 0.158000 -16.845600
C 4.701600 1.449700 -17.044500
H 4.900700 -0.421600 -16.333300
H 5.512500 1.798900 -16.640700
84
Fragment
N -9.935900 -12.645900 -22.098800
C -8.954100 -12.614300 -21.512000
H -7.980200 -10.150800 -21.825400
C -7.755400 -12.584800 -20.741500
N -7.453000 -13.755800 -20.119200
N -7.218900 -10.253800 -21.250200
C -6.986900 -11.405200 -20.653900
H -6.623900 -9.514500 -21.105200
N -6.404000 -13.848500 -19.342500
H -6.387500 -16.393600 -16.093700
N -5.901300 -11.546700 -19.842700
H -5.900800 -14.305800 -17.032400
H -5.722700 -16.546000 -17.504100
C -5.638200 -12.743300 -19.180500
C -5.583500 -16.258800 -16.598500
C -5.214200 -14.798500 -16.577400
H -5.157100 -14.500600 -15.665800
N -5.004900 -10.551500 -19.584900
H -4.706500 -18.034800 -16.104300
C -4.491400 -12.482800 -18.421800
C -4.485700 -17.107500 -15.989800
H -4.407100 -16.909900 -15.052500
C -4.164000 -11.141600 -18.711400
N -3.928100 -14.576000 -17.253800
C -3.618200 -13.254000 -17.555300
H -3.216000 -17.106100 -17.597500
C -3.167700 -16.825900 -16.681400
H -3.146100 -8.619900 -18.839000
C -2.978100 -10.555400 -18.146200
C -2.840500 -15.347100 -16.640700
H -2.790000 -15.021500 -15.659800
C -2.592500 -9.217200 -18.331300
N -2.503800 -12.742000 -17.096200
H -2.463400 -17.303900 -16.236900
C -2.177000 -11.424400 -17.384300
H -2.028800 -15.191900 -17.128900
C -1.416100 -8.759600 -17.784300
H -1.173600 -7.850700 -17.975700
C -0.980900 -10.918200 -16.845600
C -0.611500 -9.626500 -17.044500
H -0.412300 -11.497800 -16.333300
H 0.199400 -9.277300 -16.640700
N -4.622800 -1.569700 -22.098800
C -3.641100 -1.538100 -21.512000
H -2.667100 0.925400 -21.825400
C -2.442300 -1.508600 -20.741500
N -2.140000 -2.679600 -20.119200
N -1.905800 0.822400 -21.250200
C -1.673800 -0.329000 -20.653900
H -1.310900 1.561700 -21.105200
N -1.090900 -2.772300 -19.342500
H -1.074500 -5.317400 -16.093700
N -0.588300 -0.470500 -19.842700
H -0.587800 -3.229600 -17.032400
H -0.409700 -5.469800 -17.504100
C -0.325100 -1.667100 -19.180500
C -0.270400 -5.182600 -16.598500
C 0.098800 -3.722300 -16.577400
H 0.155900 -3.424400 -15.665800
N 0.308100 0.524700 -19.584900
H 0.606600 -6.958500 -16.104300
C 0.821700 -1.406600 -18.421800
C 0.827400 -6.031300 -15.989800
H 0.906000 -5.833700 -15.052500
C 1.149100 -0.065400 -18.711400
N 1.384900 -3.499800 -17.253800
C 1.694900 -2.177800 -17.555300
H 2.097100 -6.029900 -17.597500
C 2.145300 -5.749700 -16.681400
H 2.167000 2.456400 -18.839000
C 2.334900 0.520800 -18.146200
C 2.472600 -4.270900 -16.640700
H 2.523000 -3.945300 -15.659800
C 2.720500 1.859000 -18.331300
N 2.809200 -1.665800 -17.096200
H 2.849700 -6.227700 -16.236900
C 3.136100 -0.348200 -17.384300
H 3.284200 -4.115700 -17.128900
C 3.896900 2.316600 -17.784300
H 4.139500 3.225500 -17.975700
C 4.332100 0.158000 -16.845600
C 4.701600 1.449700 -17.044500
H 4.900700 -0.421600 -16.333300
H 5.512500 1.798900 -16.640700
