22
Fragment
H -18.295600 -1.597300 -40.559300
H -17.703400 -2.075800 -42.749100
C -17.600200 -2.188300 -40.739400
C -17.242100 -2.470800 -42.044000
H -17.191900 -2.596500 -38.868300
C -16.940700 -2.770500 -39.747900
C -16.237200 -3.308800 -42.292200
H -16.009200 -3.494200 -43.175600
N -15.909200 -3.612800 -39.989100
O -15.647900 -3.902800 -37.754200
C -15.518300 -3.916000 -41.260400
C -15.232700 -4.195000 -38.883000
N -14.532100 -4.719700 -41.540000
C -14.207300 -5.015900 -39.203200
C -13.880400 -5.270300 -40.515900
H -13.713800 -5.416200 -38.524100
H -13.211200 -6.779200 -42.611900
N -12.887500 -6.095100 -40.799200
C -12.474100 -6.400000 -42.127100
H -12.468000 -6.467200 -40.147800
H -12.182500 -5.595900 -42.564600
H -11.750600 -7.029700 -42.100600
22
Fragment
H -19.409000 -4.832600 -45.193300
H -18.977100 -3.398800 -44.729400
H -18.691600 -4.270200 -47.146200
C -18.685500 -4.203000 -45.166900
N -18.272100 -3.898000 -46.494800
H -17.948400 -4.582200 -44.682100
H -17.445800 -3.219100 -48.769900
C -17.279200 -3.073200 -46.778100
C -16.952300 -2.818800 -48.090800
N -16.627500 -2.522700 -45.754000
C -15.926900 -1.998000 -48.411000
C -15.641300 -1.719000 -46.033600
O -15.511600 -1.705800 -49.539800
N -15.250400 -1.415800 -47.304900
H -15.150400 -1.297100 -44.118400
C -14.922400 -1.111700 -45.001800
C -14.218900 -0.573400 -47.546000
H -13.967700 -0.399400 -48.425700
C -13.917500 -0.273800 -45.250000
C -13.559300 0.008800 -46.554600
H -13.456200 0.121300 -44.544900
H -12.863900 0.599800 -46.734700
44
Fragment
H -18.295600 -1.597300 -40.559300
H -17.703400 -2.075800 -42.749100
C -17.600200 -2.188300 -40.739400
C -17.242100 -2.470800 -42.044000
H -17.191900 -2.596500 -38.868300
C -16.940700 -2.770500 -39.747900
C -16.237200 -3.308800 -42.292200
H -16.009200 -3.494200 -43.175600
N -15.909200 -3.612800 -39.989100
O -15.647900 -3.902800 -37.754200
C -15.518300 -3.916000 -41.260400
C -15.232700 -4.195000 -38.883000
N -14.532100 -4.719700 -41.540000
C -14.207300 -5.015900 -39.203200
C -13.880400 -5.270300 -40.515900
H -13.713800 -5.416200 -38.524100
H -13.211200 -6.779200 -42.611900
N -12.887500 -6.095100 -40.799200
C -12.474100 -6.400000 -42.127100
H -12.468000 -6.467200 -40.147800
H -12.182500 -5.595900 -42.564600
H -11.750600 -7.029700 -42.100600
H -19.409000 -4.832600 -45.193300
H -18.977100 -3.398800 -44.729400
H -18.691600 -4.270200 -47.146200
C -18.685500 -4.203000 -45.166900
N -18.272100 -3.898000 -46.494800
H -17.948400 -4.582200 -44.682100
H -17.445800 -3.219100 -48.769900
C -17.279200 -3.073200 -46.778100
C -16.952300 -2.818800 -48.090800
N -16.627500 -2.522700 -45.754000
C -15.926900 -1.998000 -48.411000
C -15.641300 -1.719000 -46.033600
O -15.511600 -1.705800 -49.539800
N -15.250400 -1.415800 -47.304900
H -15.150400 -1.297100 -44.118400
C -14.922400 -1.111700 -45.001800
C -14.218900 -0.573400 -47.546000
H -13.967700 -0.399400 -48.425700
C -13.917500 -0.273800 -45.250000
C -13.559300 0.008800 -46.554600
H -13.456200 0.121300 -44.544900
H -12.863900 0.599800 -46.734700
