22
Fragment
H -18.295600 -1.597300 -40.559300
H -17.703400 -2.075800 -42.749100
C -17.600200 -2.188300 -40.739400
C -17.242100 -2.470800 -42.044000
H -17.191900 -2.596500 -38.868300
C -16.940700 -2.770500 -39.747900
C -16.237200 -3.308800 -42.292200
H -16.009200 -3.494200 -43.175600
N -15.909200 -3.612800 -39.989100
O -15.647900 -3.902800 -37.754200
C -15.518300 -3.916000 -41.260400
C -15.232700 -4.195000 -38.883000
N -14.532100 -4.719700 -41.540000
C -14.207300 -5.015900 -39.203200
C -13.880400 -5.270300 -40.515900
H -13.713800 -5.416200 -38.524100
H -13.211200 -6.779200 -42.611900
N -12.887500 -6.095100 -40.799200
C -12.474100 -6.400000 -42.127100
H -12.468000 -6.467200 -40.147800
H -12.182500 -5.595900 -42.564600
H -11.750600 -7.029700 -42.100600
3
Fragment
O -19.444000 -0.490800 -38.701700
H -19.387500 -1.279100 -38.194900
H -19.320400 0.133100 -38.152500
25
Fragment
H -18.295600 -1.597300 -40.559300
H -17.703400 -2.075800 -42.749100
C -17.600200 -2.188300 -40.739400
C -17.242100 -2.470800 -42.044000
H -17.191900 -2.596500 -38.868300
C -16.940700 -2.770500 -39.747900
C -16.237200 -3.308800 -42.292200
H -16.009200 -3.494200 -43.175600
N -15.909200 -3.612800 -39.989100
O -15.647900 -3.902800 -37.754200
C -15.518300 -3.916000 -41.260400
C -15.232700 -4.195000 -38.883000
N -14.532100 -4.719700 -41.540000
C -14.207300 -5.015900 -39.203200
C -13.880400 -5.270300 -40.515900
H -13.713800 -5.416200 -38.524100
H -13.211200 -6.779200 -42.611900
N -12.887500 -6.095100 -40.799200
C -12.474100 -6.400000 -42.127100
H -12.468000 -6.467200 -40.147800
H -12.182500 -5.595900 -42.564600
H -11.750600 -7.029700 -42.100600
O -19.444000 -0.490800 -38.701700
H -19.387500 -1.279100 -38.194900
H -19.320400 0.133100 -38.152500
