22
Fragment
H -18.295600 -1.597300 -40.559300
H -17.703400 -2.075800 -42.749100
C -17.600200 -2.188300 -40.739400
C -17.242100 -2.470800 -42.044000
H -17.191900 -2.596500 -38.868300
C -16.940700 -2.770500 -39.747900
C -16.237200 -3.308800 -42.292200
H -16.009200 -3.494200 -43.175600
N -15.909200 -3.612800 -39.989100
O -15.647900 -3.902800 -37.754200
C -15.518300 -3.916000 -41.260400
C -15.232700 -4.195000 -38.883000
N -14.532100 -4.719700 -41.540000
C -14.207300 -5.015900 -39.203200
C -13.880400 -5.270300 -40.515900
H -13.713800 -5.416200 -38.524100
H -13.211200 -6.779200 -42.611900
N -12.887500 -6.095100 -40.799200
C -12.474100 -6.400000 -42.127100
H -12.468000 -6.467200 -40.147800
H -12.182500 -5.595900 -42.564600
H -11.750600 -7.029700 -42.100600
22
Fragment
H -18.295600 2.796800 -40.559300
H -17.703400 2.318300 -42.749100
C -17.600200 2.205800 -40.739400
C -17.242100 1.923300 -42.044000
H -17.191900 1.797600 -38.868300
C -16.940700 1.623600 -39.747900
C -16.237200 1.085300 -42.292200
H -16.009200 0.899900 -43.175600
N -15.909200 0.781300 -39.989100
O -15.647900 0.491300 -37.754200
C -15.518300 0.478100 -41.260400
C -15.232700 0.199100 -38.883000
N -14.532100 -0.325600 -41.540000
C -14.207300 -0.621800 -39.203200
C -13.880400 -0.876200 -40.515900
H -13.713800 -1.022100 -38.524100
H -13.211200 -2.385100 -42.611900
N -12.887500 -1.701000 -40.799200
C -12.474100 -2.005900 -42.127100
H -12.468000 -2.073100 -40.147800
H -12.182500 -1.201800 -42.564600
H -11.750600 -2.635600 -42.100600
44
Fragment
H -18.295600 -1.597300 -40.559300
H -17.703400 -2.075800 -42.749100
C -17.600200 -2.188300 -40.739400
C -17.242100 -2.470800 -42.044000
H -17.191900 -2.596500 -38.868300
C -16.940700 -2.770500 -39.747900
C -16.237200 -3.308800 -42.292200
H -16.009200 -3.494200 -43.175600
N -15.909200 -3.612800 -39.989100
O -15.647900 -3.902800 -37.754200
C -15.518300 -3.916000 -41.260400
C -15.232700 -4.195000 -38.883000
N -14.532100 -4.719700 -41.540000
C -14.207300 -5.015900 -39.203200
C -13.880400 -5.270300 -40.515900
H -13.713800 -5.416200 -38.524100
H -13.211200 -6.779200 -42.611900
N -12.887500 -6.095100 -40.799200
C -12.474100 -6.400000 -42.127100
H -12.468000 -6.467200 -40.147800
H -12.182500 -5.595900 -42.564600
H -11.750600 -7.029700 -42.100600
H -18.295600 2.796800 -40.559300
H -17.703400 2.318300 -42.749100
C -17.600200 2.205800 -40.739400
C -17.242100 1.923300 -42.044000
H -17.191900 1.797600 -38.868300
C -16.940700 1.623600 -39.747900
C -16.237200 1.085300 -42.292200
H -16.009200 0.899900 -43.175600
N -15.909200 0.781300 -39.989100
O -15.647900 0.491300 -37.754200
C -15.518300 0.478100 -41.260400
C -15.232700 0.199100 -38.883000
N -14.532100 -0.325600 -41.540000
C -14.207300 -0.621800 -39.203200
C -13.880400 -0.876200 -40.515900
H -13.713800 -1.022100 -38.524100
H -13.211200 -2.385100 -42.611900
N -12.887500 -1.701000 -40.799200
C -12.474100 -2.005900 -42.127100
H -12.468000 -2.073100 -40.147800
H -12.182500 -1.201800 -42.564600
H -11.750600 -2.635600 -42.100600
