22
Fragment
H -18.295600 -1.597300 -40.559300
H -17.703400 -2.075800 -42.749100
C -17.600200 -2.188300 -40.739400
C -17.242100 -2.470800 -42.044000
H -17.191900 -2.596500 -38.868300
C -16.940700 -2.770500 -39.747900
C -16.237200 -3.308800 -42.292200
H -16.009200 -3.494200 -43.175600
N -15.909200 -3.612800 -39.989100
O -15.647900 -3.902800 -37.754200
C -15.518300 -3.916000 -41.260400
C -15.232700 -4.195000 -38.883000
N -14.532100 -4.719700 -41.540000
C -14.207300 -5.015900 -39.203200
C -13.880400 -5.270300 -40.515900
H -13.713800 -5.416200 -38.524100
H -13.211200 -6.779200 -42.611900
N -12.887500 -6.095100 -40.799200
C -12.474100 -6.400000 -42.127100
H -12.468000 -6.467200 -40.147800
H -12.182500 -5.595900 -42.564600
H -11.750600 -7.029700 -42.100600
22
Fragment
H -26.415600 4.993900 -40.559300
H -25.823400 4.515400 -42.749100
C -25.720200 4.402900 -40.739400
C -25.362100 4.120300 -42.044000
H -25.311900 3.994700 -38.868300
C -25.060700 3.820700 -39.747900
C -24.357200 3.282400 -42.292200
H -24.129200 3.097000 -43.175600
N -24.029200 2.978300 -39.989100
O -23.767900 2.688300 -37.754200
C -23.638300 2.675100 -41.260400
C -23.352700 2.396100 -38.883000
N -22.652100 1.871400 -41.540000
C -22.327300 1.575300 -39.203200
C -22.000400 1.320900 -40.515900
H -21.833800 1.175000 -38.524100
H -21.331200 -0.188100 -42.611900
N -21.007500 0.496100 -40.799200
C -20.594100 0.191100 -42.127100
H -20.588000 0.123900 -40.147800
H -20.302500 0.995300 -42.564600
H -19.870600 -0.438500 -42.100600
44
Fragment
H -18.295600 -1.597300 -40.559300
H -17.703400 -2.075800 -42.749100
C -17.600200 -2.188300 -40.739400
C -17.242100 -2.470800 -42.044000
H -17.191900 -2.596500 -38.868300
C -16.940700 -2.770500 -39.747900
C -16.237200 -3.308800 -42.292200
H -16.009200 -3.494200 -43.175600
N -15.909200 -3.612800 -39.989100
O -15.647900 -3.902800 -37.754200
C -15.518300 -3.916000 -41.260400
C -15.232700 -4.195000 -38.883000
N -14.532100 -4.719700 -41.540000
C -14.207300 -5.015900 -39.203200
C -13.880400 -5.270300 -40.515900
H -13.713800 -5.416200 -38.524100
H -13.211200 -6.779200 -42.611900
N -12.887500 -6.095100 -40.799200
C -12.474100 -6.400000 -42.127100
H -12.468000 -6.467200 -40.147800
H -12.182500 -5.595900 -42.564600
H -11.750600 -7.029700 -42.100600
H -26.415600 4.993900 -40.559300
H -25.823400 4.515400 -42.749100
C -25.720200 4.402900 -40.739400
C -25.362100 4.120300 -42.044000
H -25.311900 3.994700 -38.868300
C -25.060700 3.820700 -39.747900
C -24.357200 3.282400 -42.292200
H -24.129200 3.097000 -43.175600
N -24.029200 2.978300 -39.989100
O -23.767900 2.688300 -37.754200
C -23.638300 2.675100 -41.260400
C -23.352700 2.396100 -38.883000
N -22.652100 1.871400 -41.540000
C -22.327300 1.575300 -39.203200
C -22.000400 1.320900 -40.515900
H -21.833800 1.175000 -38.524100
H -21.331200 -0.188100 -42.611900
N -21.007500 0.496100 -40.799200
C -20.594100 0.191100 -42.127100
H -20.588000 0.123900 -40.147800
H -20.302500 0.995300 -42.564600
H -19.870600 -0.438500 -42.100600
