22
Fragment
H -18.295600 -1.597300 -40.559300
H -17.703400 -2.075800 -42.749100
C -17.600200 -2.188300 -40.739400
C -17.242100 -2.470800 -42.044000
H -17.191900 -2.596500 -38.868300
C -16.940700 -2.770500 -39.747900
C -16.237200 -3.308800 -42.292200
H -16.009200 -3.494200 -43.175600
N -15.909200 -3.612800 -39.989100
O -15.647900 -3.902800 -37.754200
C -15.518300 -3.916000 -41.260400
C -15.232700 -4.195000 -38.883000
N -14.532100 -4.719700 -41.540000
C -14.207300 -5.015900 -39.203200
C -13.880400 -5.270300 -40.515900
H -13.713800 -5.416200 -38.524100
H -13.211200 -6.779200 -42.611900
N -12.887500 -6.095100 -40.799200
C -12.474100 -6.400000 -42.127100
H -12.468000 -6.467200 -40.147800
H -12.182500 -5.595900 -42.564600
H -11.750600 -7.029700 -42.100600
22
Fragment
H -18.295600 -5.991400 -40.559300
H -17.703400 -6.469900 -42.749100
C -17.600200 -6.582400 -40.739400
C -17.242100 -6.864900 -42.044000
H -17.191900 -6.990600 -38.868300
C -16.940700 -7.164600 -39.747900
C -16.237200 -7.702900 -42.292200
H -16.009200 -7.888300 -43.175600
N -15.909200 -8.006900 -39.989100
O -15.647900 -8.296900 -37.754200
C -15.518300 -8.310100 -41.260400
C -15.232700 -8.589100 -38.883000
N -14.532100 -9.113800 -41.540000
C -14.207300 -9.410000 -39.203200
C -13.880400 -9.664400 -40.515900
H -13.713800 -9.810300 -38.524100
H -13.211200 -11.173300 -42.611900
N -12.887500 -10.489200 -40.799200
C -12.474100 -10.794100 -42.127100
H -12.468000 -10.861300 -40.147800
H -12.182500 -9.990000 -42.564600
H -11.750600 -11.423800 -42.100600
44
Fragment
H -18.295600 -1.597300 -40.559300
H -17.703400 -2.075800 -42.749100
C -17.600200 -2.188300 -40.739400
C -17.242100 -2.470800 -42.044000
H -17.191900 -2.596500 -38.868300
C -16.940700 -2.770500 -39.747900
C -16.237200 -3.308800 -42.292200
H -16.009200 -3.494200 -43.175600
N -15.909200 -3.612800 -39.989100
O -15.647900 -3.902800 -37.754200
C -15.518300 -3.916000 -41.260400
C -15.232700 -4.195000 -38.883000
N -14.532100 -4.719700 -41.540000
C -14.207300 -5.015900 -39.203200
C -13.880400 -5.270300 -40.515900
H -13.713800 -5.416200 -38.524100
H -13.211200 -6.779200 -42.611900
N -12.887500 -6.095100 -40.799200
C -12.474100 -6.400000 -42.127100
H -12.468000 -6.467200 -40.147800
H -12.182500 -5.595900 -42.564600
H -11.750600 -7.029700 -42.100600
H -18.295600 -5.991400 -40.559300
H -17.703400 -6.469900 -42.749100
C -17.600200 -6.582400 -40.739400
C -17.242100 -6.864900 -42.044000
H -17.191900 -6.990600 -38.868300
C -16.940700 -7.164600 -39.747900
C -16.237200 -7.702900 -42.292200
H -16.009200 -7.888300 -43.175600
N -15.909200 -8.006900 -39.989100
O -15.647900 -8.296900 -37.754200
C -15.518300 -8.310100 -41.260400
C -15.232700 -8.589100 -38.883000
N -14.532100 -9.113800 -41.540000
C -14.207300 -9.410000 -39.203200
C -13.880400 -9.664400 -40.515900
H -13.713800 -9.810300 -38.524100
H -13.211200 -11.173300 -42.611900
N -12.887500 -10.489200 -40.799200
C -12.474100 -10.794100 -42.127100
H -12.468000 -10.861300 -40.147800
H -12.182500 -9.990000 -42.564600
H -11.750600 -11.423800 -42.100600
