22
Fragment
H -18.295600 -1.597300 -40.559300
H -17.703400 -2.075800 -42.749100
C -17.600200 -2.188300 -40.739400
C -17.242100 -2.470800 -42.044000
H -17.191900 -2.596500 -38.868300
C -16.940700 -2.770500 -39.747900
C -16.237200 -3.308800 -42.292200
H -16.009200 -3.494200 -43.175600
N -15.909200 -3.612800 -39.989100
O -15.647900 -3.902800 -37.754200
C -15.518300 -3.916000 -41.260400
C -15.232700 -4.195000 -38.883000
N -14.532100 -4.719700 -41.540000
C -14.207300 -5.015900 -39.203200
C -13.880400 -5.270300 -40.515900
H -13.713800 -5.416200 -38.524100
H -13.211200 -6.779200 -42.611900
N -12.887500 -6.095100 -40.799200
C -12.474100 -6.400000 -42.127100
H -12.468000 -6.467200 -40.147800
H -12.182500 -5.595900 -42.564600
H -11.750600 -7.029700 -42.100600
22
Fragment
H -11.289000 -7.029700 -45.193300
H -10.857100 -5.595900 -44.729400
H -10.571600 -6.467200 -47.146200
C -10.565500 -6.400000 -45.166900
N -10.152100 -6.095100 -46.494800
H -9.828400 -6.779200 -44.682100
H -9.325800 -5.416200 -48.769900
C -9.159200 -5.270300 -46.778100
C -8.832300 -5.015900 -48.090800
N -8.507500 -4.719700 -45.754000
C -7.806900 -4.195000 -48.411000
C -7.521300 -3.916000 -46.033600
O -7.391600 -3.902800 -49.539800
N -7.130400 -3.612800 -47.304900
H -7.030400 -3.494200 -44.118400
C -6.802400 -3.308800 -45.001800
C -6.098900 -2.770500 -47.546000
H -5.847700 -2.596500 -48.425700
C -5.797500 -2.470800 -45.250000
C -5.439300 -2.188300 -46.554600
H -5.336200 -2.075800 -44.544900
H -4.743900 -1.597300 -46.734700
44
Fragment
H -18.295600 -1.597300 -40.559300
H -17.703400 -2.075800 -42.749100
C -17.600200 -2.188300 -40.739400
C -17.242100 -2.470800 -42.044000
H -17.191900 -2.596500 -38.868300
C -16.940700 -2.770500 -39.747900
C -16.237200 -3.308800 -42.292200
H -16.009200 -3.494200 -43.175600
N -15.909200 -3.612800 -39.989100
O -15.647900 -3.902800 -37.754200
C -15.518300 -3.916000 -41.260400
C -15.232700 -4.195000 -38.883000
N -14.532100 -4.719700 -41.540000
C -14.207300 -5.015900 -39.203200
C -13.880400 -5.270300 -40.515900
H -13.713800 -5.416200 -38.524100
H -13.211200 -6.779200 -42.611900
N -12.887500 -6.095100 -40.799200
C -12.474100 -6.400000 -42.127100
H -12.468000 -6.467200 -40.147800
H -12.182500 -5.595900 -42.564600
H -11.750600 -7.029700 -42.100600
H -11.289000 -7.029700 -45.193300
H -10.857100 -5.595900 -44.729400
H -10.571600 -6.467200 -47.146200
C -10.565500 -6.400000 -45.166900
N -10.152100 -6.095100 -46.494800
H -9.828400 -6.779200 -44.682100
H -9.325800 -5.416200 -48.769900
C -9.159200 -5.270300 -46.778100
C -8.832300 -5.015900 -48.090800
N -8.507500 -4.719700 -45.754000
C -7.806900 -4.195000 -48.411000
C -7.521300 -3.916000 -46.033600
O -7.391600 -3.902800 -49.539800
N -7.130400 -3.612800 -47.304900
H -7.030400 -3.494200 -44.118400
C -6.802400 -3.308800 -45.001800
C -6.098900 -2.770500 -47.546000
H -5.847700 -2.596500 -48.425700
C -5.797500 -2.470800 -45.250000
C -5.439300 -2.188300 -46.554600
H -5.336200 -2.075800 -44.544900
H -4.743900 -1.597300 -46.734700
