27
Fragment
H -18.338200 -12.696300 -58.944900
H -17.596000 -10.736900 -55.704700
O -17.481400 -12.492500 -59.135300
N -17.406500 -12.890100 -60.480300
O -16.732900 -10.699600 -55.970900
C -16.243200 -12.692700 -60.952300
H -16.089600 -12.938200 -61.856400
N -16.073800 -10.279000 -54.807700
H -15.288700 -11.974300 -59.398600
N -15.188000 -12.150800 -60.254200
C -14.838800 -10.078800 -55.036700
H -14.742400 -10.610600 -56.915800
H -14.289000 -9.788800 -54.318600
N -14.254400 -10.260400 -56.274500
C -13.992100 -11.878800 -60.846900
O -13.739800 -12.216000 -61.991800
N -13.408100 -10.858500 -58.738100
C -13.023400 -11.131000 -59.988400
C -12.970400 -9.928100 -56.552800
C -12.547300 -10.185000 -57.960000
O -12.209900 -9.447900 -55.719000
C -11.795300 -10.736900 -60.511800
H -11.555100 -10.953000 -61.406300
C -11.310100 -9.746500 -58.402300
C -10.939500 -10.027800 -59.704100
H -10.730400 -9.263500 -57.823200
H -10.099700 -9.732900 -60.038100
27
Fragment
H -15.755300 -9.188100 -68.458300
N -15.735400 -9.706300 -66.613100
H -15.308500 -10.385300 -64.900100
C -15.222000 -9.566400 -67.768800
O -14.810600 -10.297000 -65.738600
N -13.928500 -9.937400 -68.069200
O -13.917100 -9.268500 -70.232300
H -13.454900 -10.325700 -67.436600
C -13.336600 -9.741500 -69.278900
H -12.678700 -11.914000 -63.392600
O -12.172700 -11.802700 -64.158500
C -11.888600 -10.131200 -69.327800
H -11.551700 -9.511100 -71.241200
N -11.376100 -10.685100 -68.220400
H -11.281200 -11.571600 -66.157600
C -11.147400 -9.887200 -70.468800
N -10.989000 -12.485300 -63.830200
N -10.463500 -11.865200 -66.019700
C -10.188500 -12.450800 -64.816600
C -10.079600 -11.029800 -68.244300
C -9.802100 -10.205100 -70.456000
C -9.543000 -11.707300 -67.023900
H -9.337800 -12.861400 -64.710800
H -9.258400 -10.019200 -71.212600
C -9.254800 -10.796500 -69.330700
O -8.396900 -12.094700 -66.933600
H -8.336400 -11.036200 -69.304900
54
Fragment
H -18.338200 -12.696300 -58.944900
H -17.596000 -10.736900 -55.704700
O -17.481400 -12.492500 -59.135300
N -17.406500 -12.890100 -60.480300
O -16.732900 -10.699600 -55.970900
C -16.243200 -12.692700 -60.952300
H -16.089600 -12.938200 -61.856400
N -16.073800 -10.279000 -54.807700
H -15.288700 -11.974300 -59.398600
N -15.188000 -12.150800 -60.254200
C -14.838800 -10.078800 -55.036700
H -14.742400 -10.610600 -56.915800
H -14.289000 -9.788800 -54.318600
N -14.254400 -10.260400 -56.274500
C -13.992100 -11.878800 -60.846900
O -13.739800 -12.216000 -61.991800
N -13.408100 -10.858500 -58.738100
C -13.023400 -11.131000 -59.988400
C -12.970400 -9.928100 -56.552800
C -12.547300 -10.185000 -57.960000
O -12.209900 -9.447900 -55.719000
C -11.795300 -10.736900 -60.511800
H -11.555100 -10.953000 -61.406300
C -11.310100 -9.746500 -58.402300
C -10.939500 -10.027800 -59.704100
H -10.730400 -9.263500 -57.823200
H -10.099700 -9.732900 -60.038100
H -15.755300 -9.188100 -68.458300
N -15.735400 -9.706300 -66.613100
H -15.308500 -10.385300 -64.900100
C -15.222000 -9.566400 -67.768800
O -14.810600 -10.297000 -65.738600
N -13.928500 -9.937400 -68.069200
O -13.917100 -9.268500 -70.232300
H -13.454900 -10.325700 -67.436600
C -13.336600 -9.741500 -69.278900
H -12.678700 -11.914000 -63.392600
O -12.172700 -11.802700 -64.158500
C -11.888600 -10.131200 -69.327800
H -11.551700 -9.511100 -71.241200
N -11.376100 -10.685100 -68.220400
H -11.281200 -11.571600 -66.157600
C -11.147400 -9.887200 -70.468800
N -10.989000 -12.485300 -63.830200
N -10.463500 -11.865200 -66.019700
C -10.188500 -12.450800 -64.816600
C -10.079600 -11.029800 -68.244300
C -9.802100 -10.205100 -70.456000
C -9.543000 -11.707300 -67.023900
H -9.337800 -12.861400 -64.710800
H -9.258400 -10.019200 -71.212600
C -9.254800 -10.796500 -69.330700
O -8.396900 -12.094700 -66.933600
H -8.336400 -11.036200 -69.304900
