27
Fragment
H -18.338200 -12.696300 -58.944900
H -17.596000 -10.736900 -55.704700
O -17.481400 -12.492500 -59.135300
N -17.406500 -12.890100 -60.480300
O -16.732900 -10.699600 -55.970900
C -16.243200 -12.692700 -60.952300
H -16.089600 -12.938200 -61.856400
N -16.073800 -10.279000 -54.807700
H -15.288700 -11.974300 -59.398600
N -15.188000 -12.150800 -60.254200
C -14.838800 -10.078800 -55.036700
H -14.742400 -10.610600 -56.915800
H -14.289000 -9.788800 -54.318600
N -14.254400 -10.260400 -56.274500
C -13.992100 -11.878800 -60.846900
O -13.739800 -12.216000 -61.991800
N -13.408100 -10.858500 -58.738100
C -13.023400 -11.131000 -59.988400
C -12.970400 -9.928100 -56.552800
C -12.547300 -10.185000 -57.960000
O -12.209900 -9.447900 -55.719000
C -11.795300 -10.736900 -60.511800
H -11.555100 -10.953000 -61.406300
C -11.310100 -9.746500 -58.402300
C -10.939500 -10.027800 -59.704100
H -10.730400 -9.263500 -57.823200
H -10.099700 -9.732900 -60.038100
27
Fragment
H -16.254200 -13.321400 -64.996600
H -15.623500 -12.852000 -67.211500
C -15.414400 -13.616400 -65.330600
C -15.043800 -13.335100 -66.632400
H -14.798800 -14.541500 -63.628400
C -14.558600 -14.325500 -64.522900
O -14.144000 -13.036500 -69.315700
C -13.806600 -13.773600 -67.074700
C -13.383500 -13.516600 -68.481900
C -13.330500 -14.719500 -65.046300
N -12.945900 -14.447100 -66.296600
O -12.614100 -15.804500 -63.042800
C -12.361800 -15.467400 -64.187800
N -12.099500 -13.848900 -68.760100
H -12.064900 -13.377400 -70.716000
H -11.611500 -14.199200 -68.118900
C -11.515100 -13.667400 -69.998000
N -11.165900 -15.739400 -64.780500
H -11.065200 -15.562800 -65.636100
N -10.280100 -13.867600 -70.227000
H -10.264300 -16.526700 -63.178200
C -10.110700 -16.281300 -64.082400
O -9.621000 -14.288200 -69.063800
N -8.947400 -16.478600 -64.554300
O -8.872600 -16.081000 -65.899400
H -8.758000 -14.325500 -69.329900
H -8.015700 -16.284800 -66.089800
54
Fragment
H -18.338200 -12.696300 -58.944900
H -17.596000 -10.736900 -55.704700
O -17.481400 -12.492500 -59.135300
N -17.406500 -12.890100 -60.480300
O -16.732900 -10.699600 -55.970900
C -16.243200 -12.692700 -60.952300
H -16.089600 -12.938200 -61.856400
N -16.073800 -10.279000 -54.807700
H -15.288700 -11.974300 -59.398600
N -15.188000 -12.150800 -60.254200
C -14.838800 -10.078800 -55.036700
H -14.742400 -10.610600 -56.915800
H -14.289000 -9.788800 -54.318600
N -14.254400 -10.260400 -56.274500
C -13.992100 -11.878800 -60.846900
O -13.739800 -12.216000 -61.991800
N -13.408100 -10.858500 -58.738100
C -13.023400 -11.131000 -59.988400
C -12.970400 -9.928100 -56.552800
C -12.547300 -10.185000 -57.960000
O -12.209900 -9.447900 -55.719000
C -11.795300 -10.736900 -60.511800
H -11.555100 -10.953000 -61.406300
C -11.310100 -9.746500 -58.402300
C -10.939500 -10.027800 -59.704100
H -10.730400 -9.263500 -57.823200
H -10.099700 -9.732900 -60.038100
H -16.254200 -13.321400 -64.996600
H -15.623500 -12.852000 -67.211500
C -15.414400 -13.616400 -65.330600
C -15.043800 -13.335100 -66.632400
H -14.798800 -14.541500 -63.628400
C -14.558600 -14.325500 -64.522900
O -14.144000 -13.036500 -69.315700
C -13.806600 -13.773600 -67.074700
C -13.383500 -13.516600 -68.481900
C -13.330500 -14.719500 -65.046300
N -12.945900 -14.447100 -66.296600
O -12.614100 -15.804500 -63.042800
C -12.361800 -15.467400 -64.187800
N -12.099500 -13.848900 -68.760100
H -12.064900 -13.377400 -70.716000
H -11.611500 -14.199200 -68.118900
C -11.515100 -13.667400 -69.998000
N -11.165900 -15.739400 -64.780500
H -11.065200 -15.562800 -65.636100
N -10.280100 -13.867600 -70.227000
H -10.264300 -16.526700 -63.178200
C -10.110700 -16.281300 -64.082400
O -9.621000 -14.288200 -69.063800
N -8.947400 -16.478600 -64.554300
O -8.872600 -16.081000 -65.899400
H -8.758000 -14.325500 -69.329900
H -8.015700 -16.284800 -66.089800
