27
Fragment
H -18.338200 -12.696300 -58.944900
H -17.596000 -10.736900 -55.704700
O -17.481400 -12.492500 -59.135300
N -17.406500 -12.890100 -60.480300
O -16.732900 -10.699600 -55.970900
C -16.243200 -12.692700 -60.952300
H -16.089600 -12.938200 -61.856400
N -16.073800 -10.279000 -54.807700
H -15.288700 -11.974300 -59.398600
N -15.188000 -12.150800 -60.254200
C -14.838800 -10.078800 -55.036700
H -14.742400 -10.610600 -56.915800
H -14.289000 -9.788800 -54.318600
N -14.254400 -10.260400 -56.274500
C -13.992100 -11.878800 -60.846900
O -13.739800 -12.216000 -61.991800
N -13.408100 -10.858500 -58.738100
C -13.023400 -11.131000 -59.988400
C -12.970400 -9.928100 -56.552800
C -12.547300 -10.185000 -57.960000
O -12.209900 -9.447900 -55.719000
C -11.795300 -10.736900 -60.511800
H -11.555100 -10.953000 -61.406300
C -11.310100 -9.746500 -58.402300
C -10.939500 -10.027800 -59.704100
H -10.730400 -9.263500 -57.823200
H -10.099700 -9.732900 -60.038100
3
Fragment
H -20.008900 -13.629300 -62.235100
O -19.679900 -14.137500 -61.554600
H -18.877100 -13.722600 -61.309900
30
Fragment
H -18.338200 -12.696300 -58.944900
H -17.596000 -10.736900 -55.704700
O -17.481400 -12.492500 -59.135300
N -17.406500 -12.890100 -60.480300
O -16.732900 -10.699600 -55.970900
C -16.243200 -12.692700 -60.952300
H -16.089600 -12.938200 -61.856400
N -16.073800 -10.279000 -54.807700
H -15.288700 -11.974300 -59.398600
N -15.188000 -12.150800 -60.254200
C -14.838800 -10.078800 -55.036700
H -14.742400 -10.610600 -56.915800
H -14.289000 -9.788800 -54.318600
N -14.254400 -10.260400 -56.274500
C -13.992100 -11.878800 -60.846900
O -13.739800 -12.216000 -61.991800
N -13.408100 -10.858500 -58.738100
C -13.023400 -11.131000 -59.988400
C -12.970400 -9.928100 -56.552800
C -12.547300 -10.185000 -57.960000
O -12.209900 -9.447900 -55.719000
C -11.795300 -10.736900 -60.511800
H -11.555100 -10.953000 -61.406300
C -11.310100 -9.746500 -58.402300
C -10.939500 -10.027800 -59.704100
H -10.730400 -9.263500 -57.823200
H -10.099700 -9.732900 -60.038100
H -20.008900 -13.629300 -62.235100
O -19.679900 -14.137500 -61.554600
H -18.877100 -13.722600 -61.309900
