27
Fragment
H -18.338200 -12.696300 -58.944900
H -17.596000 -10.736900 -55.704700
O -17.481400 -12.492500 -59.135300
N -17.406500 -12.890100 -60.480300
O -16.732900 -10.699600 -55.970900
C -16.243200 -12.692700 -60.952300
H -16.089600 -12.938200 -61.856400
N -16.073800 -10.279000 -54.807700
H -15.288700 -11.974300 -59.398600
N -15.188000 -12.150800 -60.254200
C -14.838800 -10.078800 -55.036700
H -14.742400 -10.610600 -56.915800
H -14.289000 -9.788800 -54.318600
N -14.254400 -10.260400 -56.274500
C -13.992100 -11.878800 -60.846900
O -13.739800 -12.216000 -61.991800
N -13.408100 -10.858500 -58.738100
C -13.023400 -11.131000 -59.988400
C -12.970400 -9.928100 -56.552800
C -12.547300 -10.185000 -57.960000
O -12.209900 -9.447900 -55.719000
C -11.795300 -10.736900 -60.511800
H -11.555100 -10.953000 -61.406300
C -11.310100 -9.746500 -58.402300
C -10.939500 -10.027800 -59.704100
H -10.730400 -9.263500 -57.823200
H -10.099700 -9.732900 -60.038100
27
Fragment
H -16.254200 -6.144300 -64.996600
H -15.623500 -5.674900 -67.211500
C -15.414400 -6.439300 -65.330600
C -15.043800 -6.158000 -66.632400
H -14.798800 -7.364400 -63.628400
C -14.558600 -7.148400 -64.522900
O -14.144000 -5.859400 -69.315700
C -13.806600 -6.596500 -67.074700
C -13.383500 -6.339500 -68.481900
C -13.330500 -7.542400 -65.046300
N -12.945900 -7.270000 -66.296600
O -12.614100 -8.627400 -63.042800
C -12.361800 -8.290300 -64.187800
N -12.099500 -6.671800 -68.760100
H -12.064900 -6.200300 -70.716000
H -11.611500 -7.022100 -68.118900
C -11.515100 -6.490300 -69.998000
N -11.165900 -8.562300 -64.780500
H -11.065200 -8.385700 -65.636100
N -10.280100 -6.690500 -70.227000
H -10.264300 -9.349600 -63.178200
C -10.110700 -9.104200 -64.082400
O -9.621000 -7.111100 -69.063800
N -8.947400 -9.301500 -64.554300
O -8.872600 -8.903900 -65.899400
H -8.758000 -7.148400 -69.329900
H -8.015700 -9.107700 -66.089800
54
Fragment
H -18.338200 -12.696300 -58.944900
H -17.596000 -10.736900 -55.704700
O -17.481400 -12.492500 -59.135300
N -17.406500 -12.890100 -60.480300
O -16.732900 -10.699600 -55.970900
C -16.243200 -12.692700 -60.952300
H -16.089600 -12.938200 -61.856400
N -16.073800 -10.279000 -54.807700
H -15.288700 -11.974300 -59.398600
N -15.188000 -12.150800 -60.254200
C -14.838800 -10.078800 -55.036700
H -14.742400 -10.610600 -56.915800
H -14.289000 -9.788800 -54.318600
N -14.254400 -10.260400 -56.274500
C -13.992100 -11.878800 -60.846900
O -13.739800 -12.216000 -61.991800
N -13.408100 -10.858500 -58.738100
C -13.023400 -11.131000 -59.988400
C -12.970400 -9.928100 -56.552800
C -12.547300 -10.185000 -57.960000
O -12.209900 -9.447900 -55.719000
C -11.795300 -10.736900 -60.511800
H -11.555100 -10.953000 -61.406300
C -11.310100 -9.746500 -58.402300
C -10.939500 -10.027800 -59.704100
H -10.730400 -9.263500 -57.823200
H -10.099700 -9.732900 -60.038100
H -16.254200 -6.144300 -64.996600
H -15.623500 -5.674900 -67.211500
C -15.414400 -6.439300 -65.330600
C -15.043800 -6.158000 -66.632400
H -14.798800 -7.364400 -63.628400
C -14.558600 -7.148400 -64.522900
O -14.144000 -5.859400 -69.315700
C -13.806600 -6.596500 -67.074700
C -13.383500 -6.339500 -68.481900
C -13.330500 -7.542400 -65.046300
N -12.945900 -7.270000 -66.296600
O -12.614100 -8.627400 -63.042800
C -12.361800 -8.290300 -64.187800
N -12.099500 -6.671800 -68.760100
H -12.064900 -6.200300 -70.716000
H -11.611500 -7.022100 -68.118900
C -11.515100 -6.490300 -69.998000
N -11.165900 -8.562300 -64.780500
H -11.065200 -8.385700 -65.636100
N -10.280100 -6.690500 -70.227000
H -10.264300 -9.349600 -63.178200
C -10.110700 -9.104200 -64.082400
O -9.621000 -7.111100 -69.063800
N -8.947400 -9.301500 -64.554300
O -8.872600 -8.903900 -65.899400
H -8.758000 -7.148400 -69.329900
H -8.015700 -9.107700 -66.089800
