27
Fragment
H -18.338200 -12.696300 -58.944900
H -17.596000 -10.736900 -55.704700
O -17.481400 -12.492500 -59.135300
N -17.406500 -12.890100 -60.480300
O -16.732900 -10.699600 -55.970900
C -16.243200 -12.692700 -60.952300
H -16.089600 -12.938200 -61.856400
N -16.073800 -10.279000 -54.807700
H -15.288700 -11.974300 -59.398600
N -15.188000 -12.150800 -60.254200
C -14.838800 -10.078800 -55.036700
H -14.742400 -10.610600 -56.915800
H -14.289000 -9.788800 -54.318600
N -14.254400 -10.260400 -56.274500
C -13.992100 -11.878800 -60.846900
O -13.739800 -12.216000 -61.991800
N -13.408100 -10.858500 -58.738100
C -13.023400 -11.131000 -59.988400
C -12.970400 -9.928100 -56.552800
C -12.547300 -10.185000 -57.960000
O -12.209900 -9.447900 -55.719000
C -11.795300 -10.736900 -60.511800
H -11.555100 -10.953000 -61.406300
C -11.310100 -9.746500 -58.402300
C -10.939500 -10.027800 -59.704100
H -10.730400 -9.263500 -57.823200
H -10.099700 -9.732900 -60.038100
27
Fragment
H -18.017500 -14.624800 -55.729700
O -17.957000 -15.683300 -58.101100
C -17.099100 -14.385100 -55.704000
H -17.095500 -13.607800 -53.822100
H -17.016100 -16.449900 -60.323900
C -16.810900 -15.295800 -58.010700
C -16.551800 -13.793700 -54.578700
C -16.274300 -14.618300 -56.790400
C -16.165400 -16.039400 -60.218100
N -15.890400 -15.453700 -59.014900
N -15.364900 -16.073800 -61.204500
C -15.206500 -13.475700 -54.565900
H -15.072700 -15.160200 -58.877000
N -14.977800 -14.273600 -56.814300
H -14.802200 -13.099600 -53.793500
C -14.465300 -13.719700 -55.706900
O -14.181200 -15.391300 -60.876200
H -13.675200 -15.502500 -61.642100
C -13.017300 -13.330000 -55.755800
H -12.899000 -13.914200 -57.598100
O -12.436900 -12.857100 -54.802300
N -12.425400 -13.526000 -56.965400
O -11.543300 -13.885500 -59.296100
C -11.131900 -13.154900 -57.265900
H -11.045400 -13.973800 -60.134500
N -10.618500 -13.294900 -58.421600
H -10.598600 -12.776700 -56.576400
54
Fragment
H -18.338200 -12.696300 -58.944900
H -17.596000 -10.736900 -55.704700
O -17.481400 -12.492500 -59.135300
N -17.406500 -12.890100 -60.480300
O -16.732900 -10.699600 -55.970900
C -16.243200 -12.692700 -60.952300
H -16.089600 -12.938200 -61.856400
N -16.073800 -10.279000 -54.807700
H -15.288700 -11.974300 -59.398600
N -15.188000 -12.150800 -60.254200
C -14.838800 -10.078800 -55.036700
H -14.742400 -10.610600 -56.915800
H -14.289000 -9.788800 -54.318600
N -14.254400 -10.260400 -56.274500
C -13.992100 -11.878800 -60.846900
O -13.739800 -12.216000 -61.991800
N -13.408100 -10.858500 -58.738100
C -13.023400 -11.131000 -59.988400
C -12.970400 -9.928100 -56.552800
C -12.547300 -10.185000 -57.960000
O -12.209900 -9.447900 -55.719000
C -11.795300 -10.736900 -60.511800
H -11.555100 -10.953000 -61.406300
C -11.310100 -9.746500 -58.402300
C -10.939500 -10.027800 -59.704100
H -10.730400 -9.263500 -57.823200
H -10.099700 -9.732900 -60.038100
H -18.017500 -14.624800 -55.729700
O -17.957000 -15.683300 -58.101100
C -17.099100 -14.385100 -55.704000
H -17.095500 -13.607800 -53.822100
H -17.016100 -16.449900 -60.323900
C -16.810900 -15.295800 -58.010700
C -16.551800 -13.793700 -54.578700
C -16.274300 -14.618300 -56.790400
C -16.165400 -16.039400 -60.218100
N -15.890400 -15.453700 -59.014900
N -15.364900 -16.073800 -61.204500
C -15.206500 -13.475700 -54.565900
H -15.072700 -15.160200 -58.877000
N -14.977800 -14.273600 -56.814300
H -14.802200 -13.099600 -53.793500
C -14.465300 -13.719700 -55.706900
O -14.181200 -15.391300 -60.876200
H -13.675200 -15.502500 -61.642100
C -13.017300 -13.330000 -55.755800
H -12.899000 -13.914200 -57.598100
O -12.436900 -12.857100 -54.802300
N -12.425400 -13.526000 -56.965400
O -11.543300 -13.885500 -59.296100
C -11.131900 -13.154900 -57.265900
H -11.045400 -13.973800 -60.134500
N -10.618500 -13.294900 -58.421600
H -10.598600 -12.776700 -56.576400
