32
Fragment
H -14.996900 -5.834600 -16.559700
C -14.073200 -5.986500 -16.397600
H -13.765600 -5.176000 -14.468100
C -13.404300 -5.611300 -15.230900
N -13.242100 -6.588200 -17.257500
H -12.632200 -11.144000 -15.449100
H -12.602000 -8.835400 -15.776500
C -12.097800 -6.014900 -15.434700
N -12.026900 -6.582700 -16.654400
C -11.948000 -10.753800 -15.980900
C -11.935000 -9.378400 -16.179800
H -11.860700 -13.425100 -16.650200
H -11.377500 -5.910900 -14.823400
H -11.025300 -13.208300 -15.303800
C -11.019000 -13.057300 -16.281700
C -10.973900 -11.565200 -16.549600
C -10.946700 -8.792800 -16.969700
C -10.901600 -7.300700 -17.237700
H -10.895300 -7.149700 -18.215600
H -10.543100 -14.447100 -18.696000
H -10.059900 -6.932900 -16.869200
C -9.985600 -10.979600 -17.339600
C -9.972600 -9.604200 -17.538500
N -9.893600 -13.775300 -16.864900
C -9.822800 -14.343100 -18.084700
H -9.318600 -11.522600 -17.742900
H -9.288400 -9.214000 -18.070300
N -8.678500 -13.769800 -16.261900
C -8.516300 -14.746700 -18.288500
H -8.155000 -15.182000 -19.051300
C -7.847400 -14.371500 -17.121800
H -6.923700 -14.523400 -16.959700
32
Fragment
H -14.996900 -16.013600 -16.559700
C -14.073200 -16.165500 -16.397600
H -13.765600 -15.355000 -14.468100
C -13.404300 -15.790300 -15.230900
N -13.242100 -16.767200 -17.257500
H -12.632200 -21.323000 -15.449100
H -12.602000 -19.014400 -15.776500
C -12.097800 -16.193900 -15.434700
N -12.026900 -16.761700 -16.654400
C -11.948000 -20.932800 -15.980900
C -11.935000 -19.557400 -16.179800
H -11.860700 -23.604100 -16.650200
H -11.377500 -16.089900 -14.823400
H -11.025300 -23.387300 -15.303800
C -11.019000 -23.236300 -16.281700
C -10.973900 -21.744200 -16.549600
C -10.946700 -18.971800 -16.969700
C -10.901600 -17.479700 -17.237700
H -10.895300 -17.328700 -18.215600
H -10.543100 -24.626100 -18.696000
H -10.059900 -17.111900 -16.869200
C -9.985600 -21.158600 -17.339600
C -9.972600 -19.783200 -17.538500
N -9.893600 -23.954300 -16.864900
C -9.822800 -24.522100 -18.084700
H -9.318600 -21.701600 -17.742900
H -9.288400 -19.393000 -18.070300
N -8.678500 -23.948800 -16.261900
C -8.516300 -24.925700 -18.288500
H -8.155000 -25.361000 -19.051300
C -7.847400 -24.550500 -17.121800
H -6.923700 -24.702400 -16.959700
64
Fragment
H -14.996900 -5.834600 -16.559700
C -14.073200 -5.986500 -16.397600
H -13.765600 -5.176000 -14.468100
C -13.404300 -5.611300 -15.230900
N -13.242100 -6.588200 -17.257500
H -12.632200 -11.144000 -15.449100
H -12.602000 -8.835400 -15.776500
C -12.097800 -6.014900 -15.434700
N -12.026900 -6.582700 -16.654400
C -11.948000 -10.753800 -15.980900
C -11.935000 -9.378400 -16.179800
H -11.860700 -13.425100 -16.650200
H -11.377500 -5.910900 -14.823400
H -11.025300 -13.208300 -15.303800
C -11.019000 -13.057300 -16.281700
C -10.973900 -11.565200 -16.549600
C -10.946700 -8.792800 -16.969700
C -10.901600 -7.300700 -17.237700
H -10.895300 -7.149700 -18.215600
H -10.543100 -14.447100 -18.696000
H -10.059900 -6.932900 -16.869200
C -9.985600 -10.979600 -17.339600
C -9.972600 -9.604200 -17.538500
N -9.893600 -13.775300 -16.864900
C -9.822800 -14.343100 -18.084700
H -9.318600 -11.522600 -17.742900
H -9.288400 -9.214000 -18.070300
N -8.678500 -13.769800 -16.261900
C -8.516300 -14.746700 -18.288500
H -8.155000 -15.182000 -19.051300
C -7.847400 -14.371500 -17.121800
H -6.923700 -14.523400 -16.959700
H -14.996900 -16.013600 -16.559700
C -14.073200 -16.165500 -16.397600
H -13.765600 -15.355000 -14.468100
C -13.404300 -15.790300 -15.230900
N -13.242100 -16.767200 -17.257500
H -12.632200 -21.323000 -15.449100
H -12.602000 -19.014400 -15.776500
C -12.097800 -16.193900 -15.434700
N -12.026900 -16.761700 -16.654400
C -11.948000 -20.932800 -15.980900
C -11.935000 -19.557400 -16.179800
H -11.860700 -23.604100 -16.650200
H -11.377500 -16.089900 -14.823400
H -11.025300 -23.387300 -15.303800
C -11.019000 -23.236300 -16.281700
C -10.973900 -21.744200 -16.549600
C -10.946700 -18.971800 -16.969700
C -10.901600 -17.479700 -17.237700
H -10.895300 -17.328700 -18.215600
H -10.543100 -24.626100 -18.696000
H -10.059900 -17.111900 -16.869200
C -9.985600 -21.158600 -17.339600
C -9.972600 -19.783200 -17.538500
N -9.893600 -23.954300 -16.864900
C -9.822800 -24.522100 -18.084700
H -9.318600 -21.701600 -17.742900
H -9.288400 -19.393000 -18.070300
N -8.678500 -23.948800 -16.261900
C -8.516300 -24.925700 -18.288500
H -8.155000 -25.361000 -19.051300
C -7.847400 -24.550500 -17.121800
H -6.923700 -24.702400 -16.959700
