32
Fragment
H -14.996900 -5.834600 -16.559700
C -14.073200 -5.986500 -16.397600
H -13.765600 -5.176000 -14.468100
C -13.404300 -5.611300 -15.230900
N -13.242100 -6.588200 -17.257500
H -12.632200 -11.144000 -15.449100
H -12.602000 -8.835400 -15.776500
C -12.097800 -6.014900 -15.434700
N -12.026900 -6.582700 -16.654400
C -11.948000 -10.753800 -15.980900
C -11.935000 -9.378400 -16.179800
H -11.860700 -13.425100 -16.650200
H -11.377500 -5.910900 -14.823400
H -11.025300 -13.208300 -15.303800
C -11.019000 -13.057300 -16.281700
C -10.973900 -11.565200 -16.549600
C -10.946700 -8.792800 -16.969700
C -10.901600 -7.300700 -17.237700
H -10.895300 -7.149700 -18.215600
H -10.543100 -14.447100 -18.696000
H -10.059900 -6.932900 -16.869200
C -9.985600 -10.979600 -17.339600
C -9.972600 -9.604200 -17.538500
N -9.893600 -13.775300 -16.864900
C -9.822800 -14.343100 -18.084700
H -9.318600 -11.522600 -17.742900
H -9.288400 -9.214000 -18.070300
N -8.678500 -13.769800 -16.261900
C -8.516300 -14.746700 -18.288500
H -8.155000 -15.182000 -19.051300
C -7.847400 -14.371500 -17.121800
H -6.923700 -14.523400 -16.959700
19
Fragment
O -9.966900 -17.993100 -11.862600
O -9.581400 -17.653600 -13.974900
N -9.245400 -17.653800 -12.797600
H -8.051400 -17.586300 -10.474800
C -7.885700 -17.178000 -12.470100
C -7.489700 -17.207200 -11.141000
H -7.386300 -16.672200 -14.389900
C -7.101100 -16.665600 -13.483400
O -6.548200 -17.269300 -8.538200
C -6.248700 -16.668400 -10.804500
H -6.244300 -17.074300 -7.636800
C -5.872900 -16.140500 -13.107600
C -5.788600 -16.597700 -9.374000
C -5.432200 -16.119700 -11.793300
O -5.384200 -15.614500 -15.311100
N -5.011000 -15.540800 -14.145300
O -4.816800 -15.939200 -9.058900
H -4.590800 -15.738800 -11.570900
O -3.980100 -15.001500 -13.785200
51
Fragment
H -14.996900 -5.834600 -16.559700
C -14.073200 -5.986500 -16.397600
H -13.765600 -5.176000 -14.468100
C -13.404300 -5.611300 -15.230900
N -13.242100 -6.588200 -17.257500
H -12.632200 -11.144000 -15.449100
H -12.602000 -8.835400 -15.776500
C -12.097800 -6.014900 -15.434700
N -12.026900 -6.582700 -16.654400
C -11.948000 -10.753800 -15.980900
C -11.935000 -9.378400 -16.179800
H -11.860700 -13.425100 -16.650200
H -11.377500 -5.910900 -14.823400
H -11.025300 -13.208300 -15.303800
C -11.019000 -13.057300 -16.281700
C -10.973900 -11.565200 -16.549600
C -10.946700 -8.792800 -16.969700
C -10.901600 -7.300700 -17.237700
H -10.895300 -7.149700 -18.215600
H -10.543100 -14.447100 -18.696000
H -10.059900 -6.932900 -16.869200
C -9.985600 -10.979600 -17.339600
C -9.972600 -9.604200 -17.538500
N -9.893600 -13.775300 -16.864900
C -9.822800 -14.343100 -18.084700
H -9.318600 -11.522600 -17.742900
H -9.288400 -9.214000 -18.070300
N -8.678500 -13.769800 -16.261900
C -8.516300 -14.746700 -18.288500
H -8.155000 -15.182000 -19.051300
C -7.847400 -14.371500 -17.121800
H -6.923700 -14.523400 -16.959700
O -9.966900 -17.993100 -11.862600
O -9.581400 -17.653600 -13.974900
N -9.245400 -17.653800 -12.797600
H -8.051400 -17.586300 -10.474800
C -7.885700 -17.178000 -12.470100
C -7.489700 -17.207200 -11.141000
H -7.386300 -16.672200 -14.389900
C -7.101100 -16.665600 -13.483400
O -6.548200 -17.269300 -8.538200
C -6.248700 -16.668400 -10.804500
H -6.244300 -17.074300 -7.636800
C -5.872900 -16.140500 -13.107600
C -5.788600 -16.597700 -9.374000
C -5.432200 -16.119700 -11.793300
O -5.384200 -15.614500 -15.311100
N -5.011000 -15.540800 -14.145300
O -4.816800 -15.939200 -9.058900
H -4.590800 -15.738800 -11.570900
O -3.980100 -15.001500 -13.785200
