32
Fragment
H -14.996900 -5.834600 -16.559700
C -14.073200 -5.986500 -16.397600
H -13.765600 -5.176000 -14.468100
C -13.404300 -5.611300 -15.230900
N -13.242100 -6.588200 -17.257500
H -12.632200 -11.144000 -15.449100
H -12.602000 -8.835400 -15.776500
C -12.097800 -6.014900 -15.434700
N -12.026900 -6.582700 -16.654400
C -11.948000 -10.753800 -15.980900
C -11.935000 -9.378400 -16.179800
H -11.860700 -13.425100 -16.650200
H -11.377500 -5.910900 -14.823400
H -11.025300 -13.208300 -15.303800
C -11.019000 -13.057300 -16.281700
C -10.973900 -11.565200 -16.549600
C -10.946700 -8.792800 -16.969700
C -10.901600 -7.300700 -17.237700
H -10.895300 -7.149700 -18.215600
H -10.543100 -14.447100 -18.696000
H -10.059900 -6.932900 -16.869200
C -9.985600 -10.979600 -17.339600
C -9.972600 -9.604200 -17.538500
N -9.893600 -13.775300 -16.864900
C -9.822800 -14.343100 -18.084700
H -9.318600 -11.522600 -17.742900
H -9.288400 -9.214000 -18.070300
N -8.678500 -13.769800 -16.261900
C -8.516300 -14.746700 -18.288500
H -8.155000 -15.182000 -19.051300
C -7.847400 -14.371500 -17.121800
H -6.923700 -14.523400 -16.959700
32
Fragment
H -12.387300 -9.433900 -22.146300
C -11.463600 -9.282000 -21.984100
H -11.156000 -10.092500 -20.054600
C -10.794700 -9.657200 -20.817400
N -10.632600 -8.680300 -22.844000
H -10.022600 -4.124500 -21.035600
H -9.992500 -6.433100 -21.363000
C -9.488200 -9.253600 -21.021200
N -9.417400 -8.685800 -22.241000
C -9.338400 -4.514700 -21.567500
C -9.325400 -5.890100 -21.766400
H -9.251100 -1.843400 -22.236800
H -8.767900 -9.357600 -20.410000
H -8.415700 -2.060200 -20.890400
C -8.409400 -2.211200 -21.868300
C -8.364300 -3.703300 -22.136200
C -8.337200 -6.475700 -22.556300
C -8.292000 -7.967800 -22.824200
H -8.285700 -8.118800 -23.802100
H -7.933500 -0.821400 -24.282600
H -7.450300 -8.335600 -22.455800
C -7.376000 -4.288900 -22.926100
C -7.363000 -5.664300 -23.125000
N -7.284100 -1.493200 -22.451500
C -7.213200 -0.925400 -23.671300
H -6.709000 -3.745900 -23.329500
H -6.678800 -6.054500 -23.656900
N -6.068900 -1.498700 -21.848500
C -5.906700 -0.521800 -23.875100
H -5.545400 -0.086500 -24.637900
C -5.237800 -0.897000 -22.708400
H -4.314100 -0.745100 -22.546300
64
Fragment
H -14.996900 -5.834600 -16.559700
C -14.073200 -5.986500 -16.397600
H -13.765600 -5.176000 -14.468100
C -13.404300 -5.611300 -15.230900
N -13.242100 -6.588200 -17.257500
H -12.632200 -11.144000 -15.449100
H -12.602000 -8.835400 -15.776500
C -12.097800 -6.014900 -15.434700
N -12.026900 -6.582700 -16.654400
C -11.948000 -10.753800 -15.980900
C -11.935000 -9.378400 -16.179800
H -11.860700 -13.425100 -16.650200
H -11.377500 -5.910900 -14.823400
H -11.025300 -13.208300 -15.303800
C -11.019000 -13.057300 -16.281700
C -10.973900 -11.565200 -16.549600
C -10.946700 -8.792800 -16.969700
C -10.901600 -7.300700 -17.237700
H -10.895300 -7.149700 -18.215600
H -10.543100 -14.447100 -18.696000
H -10.059900 -6.932900 -16.869200
C -9.985600 -10.979600 -17.339600
C -9.972600 -9.604200 -17.538500
N -9.893600 -13.775300 -16.864900
C -9.822800 -14.343100 -18.084700
H -9.318600 -11.522600 -17.742900
H -9.288400 -9.214000 -18.070300
N -8.678500 -13.769800 -16.261900
C -8.516300 -14.746700 -18.288500
H -8.155000 -15.182000 -19.051300
C -7.847400 -14.371500 -17.121800
H -6.923700 -14.523400 -16.959700
H -12.387300 -9.433900 -22.146300
C -11.463600 -9.282000 -21.984100
H -11.156000 -10.092500 -20.054600
C -10.794700 -9.657200 -20.817400
N -10.632600 -8.680300 -22.844000
H -10.022600 -4.124500 -21.035600
H -9.992500 -6.433100 -21.363000
C -9.488200 -9.253600 -21.021200
N -9.417400 -8.685800 -22.241000
C -9.338400 -4.514700 -21.567500
C -9.325400 -5.890100 -21.766400
H -9.251100 -1.843400 -22.236800
H -8.767900 -9.357600 -20.410000
H -8.415700 -2.060200 -20.890400
C -8.409400 -2.211200 -21.868300
C -8.364300 -3.703300 -22.136200
C -8.337200 -6.475700 -22.556300
C -8.292000 -7.967800 -22.824200
H -8.285700 -8.118800 -23.802100
H -7.933500 -0.821400 -24.282600
H -7.450300 -8.335600 -22.455800
C -7.376000 -4.288900 -22.926100
C -7.363000 -5.664300 -23.125000
N -7.284100 -1.493200 -22.451500
C -7.213200 -0.925400 -23.671300
H -6.709000 -3.745900 -23.329500
H -6.678800 -6.054500 -23.656900
N -6.068900 -1.498700 -21.848500
C -5.906700 -0.521800 -23.875100
H -5.545400 -0.086500 -24.637900
C -5.237800 -0.897000 -22.708400
H -4.314100 -0.745100 -22.546300
