32
Fragment
H -14.996900 -5.834600 -16.559700
C -14.073200 -5.986500 -16.397600
H -13.765600 -5.176000 -14.468100
C -13.404300 -5.611300 -15.230900
N -13.242100 -6.588200 -17.257500
H -12.632200 -11.144000 -15.449100
H -12.602000 -8.835400 -15.776500
C -12.097800 -6.014900 -15.434700
N -12.026900 -6.582700 -16.654400
C -11.948000 -10.753800 -15.980900
C -11.935000 -9.378400 -16.179800
H -11.860700 -13.425100 -16.650200
H -11.377500 -5.910900 -14.823400
H -11.025300 -13.208300 -15.303800
C -11.019000 -13.057300 -16.281700
C -10.973900 -11.565200 -16.549600
C -10.946700 -8.792800 -16.969700
C -10.901600 -7.300700 -17.237700
H -10.895300 -7.149700 -18.215600
H -10.543100 -14.447100 -18.696000
H -10.059900 -6.932900 -16.869200
C -9.985600 -10.979600 -17.339600
C -9.972600 -9.604200 -17.538500
N -9.893600 -13.775300 -16.864900
C -9.822800 -14.343100 -18.084700
H -9.318600 -11.522600 -17.742900
H -9.288400 -9.214000 -18.070300
N -8.678500 -13.769800 -16.261900
C -8.516300 -14.746700 -18.288500
H -8.155000 -15.182000 -19.051300
C -7.847400 -14.371500 -17.121800
H -6.923700 -14.523400 -16.959700
19
Fragment
O -7.357300 -17.633400 -17.449200
O -6.971900 -17.972900 -19.561500
N -6.635800 -17.972700 -18.384200
H -5.441900 -18.040200 -16.061400
C -5.276200 -18.448500 -18.056700
C -4.880200 -18.419300 -16.727500
H -4.776700 -18.954300 -19.976400
C -4.491600 -18.960900 -19.070000
O -3.938600 -18.357200 -14.124700
C -3.639200 -18.958100 -16.391100
H -3.634800 -18.552200 -13.223400
C -3.263300 -19.486000 -18.694200
C -3.179000 -19.028800 -14.960600
C -2.822700 -19.506800 -17.379900
O -2.774700 -20.012000 -20.897700
N -2.401400 -20.085700 -19.731900
O -2.207300 -19.687300 -14.645500
H -1.981200 -19.887700 -17.157500
O -1.370500 -20.625000 -19.371700
51
Fragment
H -14.996900 -5.834600 -16.559700
C -14.073200 -5.986500 -16.397600
H -13.765600 -5.176000 -14.468100
C -13.404300 -5.611300 -15.230900
N -13.242100 -6.588200 -17.257500
H -12.632200 -11.144000 -15.449100
H -12.602000 -8.835400 -15.776500
C -12.097800 -6.014900 -15.434700
N -12.026900 -6.582700 -16.654400
C -11.948000 -10.753800 -15.980900
C -11.935000 -9.378400 -16.179800
H -11.860700 -13.425100 -16.650200
H -11.377500 -5.910900 -14.823400
H -11.025300 -13.208300 -15.303800
C -11.019000 -13.057300 -16.281700
C -10.973900 -11.565200 -16.549600
C -10.946700 -8.792800 -16.969700
C -10.901600 -7.300700 -17.237700
H -10.895300 -7.149700 -18.215600
H -10.543100 -14.447100 -18.696000
H -10.059900 -6.932900 -16.869200
C -9.985600 -10.979600 -17.339600
C -9.972600 -9.604200 -17.538500
N -9.893600 -13.775300 -16.864900
C -9.822800 -14.343100 -18.084700
H -9.318600 -11.522600 -17.742900
H -9.288400 -9.214000 -18.070300
N -8.678500 -13.769800 -16.261900
C -8.516300 -14.746700 -18.288500
H -8.155000 -15.182000 -19.051300
C -7.847400 -14.371500 -17.121800
H -6.923700 -14.523400 -16.959700
O -7.357300 -17.633400 -17.449200
O -6.971900 -17.972900 -19.561500
N -6.635800 -17.972700 -18.384200
H -5.441900 -18.040200 -16.061400
C -5.276200 -18.448500 -18.056700
C -4.880200 -18.419300 -16.727500
H -4.776700 -18.954300 -19.976400
C -4.491600 -18.960900 -19.070000
O -3.938600 -18.357200 -14.124700
C -3.639200 -18.958100 -16.391100
H -3.634800 -18.552200 -13.223400
C -3.263300 -19.486000 -18.694200
C -3.179000 -19.028800 -14.960600
C -2.822700 -19.506800 -17.379900
O -2.774700 -20.012000 -20.897700
N -2.401400 -20.085700 -19.731900
O -2.207300 -19.687300 -14.645500
H -1.981200 -19.887700 -17.157500
O -1.370500 -20.625000 -19.371700
