32
Fragment
H -14.996900 -5.834600 -16.559700
C -14.073200 -5.986500 -16.397600
H -13.765600 -5.176000 -14.468100
C -13.404300 -5.611300 -15.230900
N -13.242100 -6.588200 -17.257500
H -12.632200 -11.144000 -15.449100
H -12.602000 -8.835400 -15.776500
C -12.097800 -6.014900 -15.434700
N -12.026900 -6.582700 -16.654400
C -11.948000 -10.753800 -15.980900
C -11.935000 -9.378400 -16.179800
H -11.860700 -13.425100 -16.650200
H -11.377500 -5.910900 -14.823400
H -11.025300 -13.208300 -15.303800
C -11.019000 -13.057300 -16.281700
C -10.973900 -11.565200 -16.549600
C -10.946700 -8.792800 -16.969700
C -10.901600 -7.300700 -17.237700
H -10.895300 -7.149700 -18.215600
H -10.543100 -14.447100 -18.696000
H -10.059900 -6.932900 -16.869200
C -9.985600 -10.979600 -17.339600
C -9.972600 -9.604200 -17.538500
N -9.893600 -13.775300 -16.864900
C -9.822800 -14.343100 -18.084700
H -9.318600 -11.522600 -17.742900
H -9.288400 -9.214000 -18.070300
N -8.678500 -13.769800 -16.261900
C -8.516300 -14.746700 -18.288500
H -8.155000 -15.182000 -19.051300
C -7.847400 -14.371500 -17.121800
H -6.923700 -14.523400 -16.959700
19
Fragment
O -20.550000 0.267000 -14.147600
H -19.939300 -0.470300 -16.361900
O -19.713300 -0.670700 -18.873900
N -19.519100 -0.272300 -13.787500
O -19.145900 -0.346000 -12.621700
C -19.097900 -0.851200 -16.139500
C -18.741600 -1.329200 -18.558800
C -18.657300 -0.872000 -14.825200
H -18.285800 -1.805800 -20.296000
C -18.281400 -1.399900 -17.128300
O -17.982000 -2.000800 -19.394700
C -17.429000 -1.397100 -14.449400
H -17.143800 -1.403700 -13.542900
C -17.040400 -1.938700 -16.791900
C -16.644400 -1.909500 -15.462700
H -16.478700 -2.317800 -17.458000
N -15.284800 -2.385300 -15.135200
O -14.948700 -2.385100 -13.957900
O -14.563300 -2.724600 -16.070200
51
Fragment
H -14.996900 -5.834600 -16.559700
C -14.073200 -5.986500 -16.397600
H -13.765600 -5.176000 -14.468100
C -13.404300 -5.611300 -15.230900
N -13.242100 -6.588200 -17.257500
H -12.632200 -11.144000 -15.449100
H -12.602000 -8.835400 -15.776500
C -12.097800 -6.014900 -15.434700
N -12.026900 -6.582700 -16.654400
C -11.948000 -10.753800 -15.980900
C -11.935000 -9.378400 -16.179800
H -11.860700 -13.425100 -16.650200
H -11.377500 -5.910900 -14.823400
H -11.025300 -13.208300 -15.303800
C -11.019000 -13.057300 -16.281700
C -10.973900 -11.565200 -16.549600
C -10.946700 -8.792800 -16.969700
C -10.901600 -7.300700 -17.237700
H -10.895300 -7.149700 -18.215600
H -10.543100 -14.447100 -18.696000
H -10.059900 -6.932900 -16.869200
C -9.985600 -10.979600 -17.339600
C -9.972600 -9.604200 -17.538500
N -9.893600 -13.775300 -16.864900
C -9.822800 -14.343100 -18.084700
H -9.318600 -11.522600 -17.742900
H -9.288400 -9.214000 -18.070300
N -8.678500 -13.769800 -16.261900
C -8.516300 -14.746700 -18.288500
H -8.155000 -15.182000 -19.051300
C -7.847400 -14.371500 -17.121800
H -6.923700 -14.523400 -16.959700
O -20.550000 0.267000 -14.147600
H -19.939300 -0.470300 -16.361900
O -19.713300 -0.670700 -18.873900
N -19.519100 -0.272300 -13.787500
O -19.145900 -0.346000 -12.621700
C -19.097900 -0.851200 -16.139500
C -18.741600 -1.329200 -18.558800
C -18.657300 -0.872000 -14.825200
H -18.285800 -1.805800 -20.296000
C -18.281400 -1.399900 -17.128300
O -17.982000 -2.000800 -19.394700
C -17.429000 -1.397100 -14.449400
H -17.143800 -1.403700 -13.542900
C -17.040400 -1.938700 -16.791900
C -16.644400 -1.909500 -15.462700
H -16.478700 -2.317800 -17.458000
N -15.284800 -2.385300 -15.135200
O -14.948700 -2.385100 -13.957900
O -14.563300 -2.724600 -16.070200
