23
Fragment
O -16.640700 -12.183600 -9.677500
O -16.209900 -14.233300 -9.073800
N -15.920700 -13.189100 -9.655200
C -14.685300 -13.153700 -10.355400
O -14.387400 -11.959100 -10.914900
O -14.334500 -7.380100 -12.735700
H -13.761500 -15.006000 -10.304500
C -13.753700 -14.100000 -10.591600
C -13.235700 -7.700000 -13.110300
N -13.218500 -9.919300 -12.279800
C -13.177400 -12.156600 -11.531200
C -12.762900 -13.446500 -11.362200
N -12.592100 -8.905400 -12.932600
C -12.574000 -11.031600 -12.203000
H -12.497900 -6.036900 -14.162300
N -12.331600 -6.906500 -13.833600
H -11.961800 -13.831300 -11.697500
H -11.708300 -11.110800 -12.585800
C -11.257400 -8.923700 -13.494800
C -11.171600 -7.554000 -14.111800
H -11.161300 -9.634400 -14.177100
H -10.570500 -9.048800 -12.793300
O -10.210300 -7.100300 -14.723500
17
Fragment
H -20.435000 -6.576600 -10.615700
H -20.324500 -8.719000 -9.652400
O -19.696200 -4.630000 -11.962500
C -19.658900 -7.114200 -10.722100
C -19.590200 -8.388100 -10.155300
H -19.578400 -3.822100 -12.346800
C -18.562200 -6.646700 -11.448900
C -18.560300 -5.314400 -12.101000
C -18.457500 -9.177200 -10.319300
H -18.436000 -10.048500 -9.941400
O -17.599300 -4.874600 -12.716000
C -17.416300 -7.422900 -11.599100
C -17.345900 -8.706500 -11.035000
H -16.676300 -7.081800 -12.086600
N -16.238100 -9.496900 -11.240700
H -16.196000 -10.280700 -10.818500
H -15.496200 -9.156700 -11.578100
40
Fragment
O -16.640700 -12.183600 -9.677500
O -16.209900 -14.233300 -9.073800
N -15.920700 -13.189100 -9.655200
C -14.685300 -13.153700 -10.355400
O -14.387400 -11.959100 -10.914900
O -14.334500 -7.380100 -12.735700
H -13.761500 -15.006000 -10.304500
C -13.753700 -14.100000 -10.591600
C -13.235700 -7.700000 -13.110300
N -13.218500 -9.919300 -12.279800
C -13.177400 -12.156600 -11.531200
C -12.762900 -13.446500 -11.362200
N -12.592100 -8.905400 -12.932600
C -12.574000 -11.031600 -12.203000
H -12.497900 -6.036900 -14.162300
N -12.331600 -6.906500 -13.833600
H -11.961800 -13.831300 -11.697500
H -11.708300 -11.110800 -12.585800
C -11.257400 -8.923700 -13.494800
C -11.171600 -7.554000 -14.111800
H -11.161300 -9.634400 -14.177100
H -10.570500 -9.048800 -12.793300
O -10.210300 -7.100300 -14.723500
H -20.435000 -6.576600 -10.615700
H -20.324500 -8.719000 -9.652400
O -19.696200 -4.630000 -11.962500
C -19.658900 -7.114200 -10.722100
C -19.590200 -8.388100 -10.155300
H -19.578400 -3.822100 -12.346800
C -18.562200 -6.646700 -11.448900
C -18.560300 -5.314400 -12.101000
C -18.457500 -9.177200 -10.319300
H -18.436000 -10.048500 -9.941400
O -17.599300 -4.874600 -12.716000
C -17.416300 -7.422900 -11.599100
C -17.345900 -8.706500 -11.035000
H -16.676300 -7.081800 -12.086600
N -16.238100 -9.496900 -11.240700
H -16.196000 -10.280700 -10.818500
H -15.496200 -9.156700 -11.578100
