23
Fragment
O -16.640700 -12.183600 -9.677500
O -16.209900 -14.233300 -9.073800
N -15.920700 -13.189100 -9.655200
C -14.685300 -13.153700 -10.355400
O -14.387400 -11.959100 -10.914900
O -14.334500 -7.380100 -12.735700
H -13.761500 -15.006000 -10.304500
C -13.753700 -14.100000 -10.591600
C -13.235700 -7.700000 -13.110300
N -13.218500 -9.919300 -12.279800
C -13.177400 -12.156600 -11.531200
C -12.762900 -13.446500 -11.362200
N -12.592100 -8.905400 -12.932600
C -12.574000 -11.031600 -12.203000
H -12.497900 -6.036900 -14.162300
N -12.331600 -6.906500 -13.833600
H -11.961800 -13.831300 -11.697500
H -11.708300 -11.110800 -12.585800
C -11.257400 -8.923700 -13.494800
C -11.171600 -7.554000 -14.111800
H -11.161300 -9.634400 -14.177100
H -10.570500 -9.048800 -12.793300
O -10.210300 -7.100300 -14.723500
23
Fragment
O -17.822100 -2.792000 -9.677500
O -17.391300 -4.841700 -9.073800
N -17.102200 -3.797500 -9.655200
C -15.866700 -3.762100 -10.355400
O -15.568900 -2.567500 -10.914900
O -15.515900 2.011500 -12.735700
H -14.942900 -5.614400 -10.304500
C -14.935100 -4.708400 -10.591600
C -14.417100 1.691600 -13.110300
N -14.399900 -0.527800 -12.279800
C -14.358900 -2.765000 -11.531200
C -13.944300 -4.054900 -11.362200
N -13.773500 0.486200 -12.932600
C -13.755500 -1.640000 -12.203000
H -13.679400 3.354700 -14.162300
N -13.513000 2.485100 -13.833600
H -13.143200 -4.439700 -11.697500
H -12.889800 -1.719200 -12.585800
C -12.438800 0.467900 -13.494800
C -12.353100 1.837600 -14.111800
H -12.342800 -0.242900 -14.177100
H -11.751900 0.342800 -12.793300
O -11.391700 2.291300 -14.723500
46
Fragment
O -16.640700 -12.183600 -9.677500
O -16.209900 -14.233300 -9.073800
N -15.920700 -13.189100 -9.655200
C -14.685300 -13.153700 -10.355400
O -14.387400 -11.959100 -10.914900
O -14.334500 -7.380100 -12.735700
H -13.761500 -15.006000 -10.304500
C -13.753700 -14.100000 -10.591600
C -13.235700 -7.700000 -13.110300
N -13.218500 -9.919300 -12.279800
C -13.177400 -12.156600 -11.531200
C -12.762900 -13.446500 -11.362200
N -12.592100 -8.905400 -12.932600
C -12.574000 -11.031600 -12.203000
H -12.497900 -6.036900 -14.162300
N -12.331600 -6.906500 -13.833600
H -11.961800 -13.831300 -11.697500
H -11.708300 -11.110800 -12.585800
C -11.257400 -8.923700 -13.494800
C -11.171600 -7.554000 -14.111800
H -11.161300 -9.634400 -14.177100
H -10.570500 -9.048800 -12.793300
O -10.210300 -7.100300 -14.723500
O -17.822100 -2.792000 -9.677500
O -17.391300 -4.841700 -9.073800
N -17.102200 -3.797500 -9.655200
C -15.866700 -3.762100 -10.355400
O -15.568900 -2.567500 -10.914900
O -15.515900 2.011500 -12.735700
H -14.942900 -5.614400 -10.304500
C -14.935100 -4.708400 -10.591600
C -14.417100 1.691600 -13.110300
N -14.399900 -0.527800 -12.279800
C -14.358900 -2.765000 -11.531200
C -13.944300 -4.054900 -11.362200
N -13.773500 0.486200 -12.932600
C -13.755500 -1.640000 -12.203000
H -13.679400 3.354700 -14.162300
N -13.513000 2.485100 -13.833600
H -13.143200 -4.439700 -11.697500
H -12.889800 -1.719200 -12.585800
C -12.438800 0.467900 -13.494800
C -12.353100 1.837600 -14.111800
H -12.342800 -0.242900 -14.177100
H -11.751900 0.342800 -12.793300
O -11.391700 2.291300 -14.723500
