23
Fragment
O -16.640700 -12.183600 -9.677500
O -16.209900 -14.233300 -9.073800
N -15.920700 -13.189100 -9.655200
C -14.685300 -13.153700 -10.355400
O -14.387400 -11.959100 -10.914900
O -14.334500 -7.380100 -12.735700
H -13.761500 -15.006000 -10.304500
C -13.753700 -14.100000 -10.591600
C -13.235700 -7.700000 -13.110300
N -13.218500 -9.919300 -12.279800
C -13.177400 -12.156600 -11.531200
C -12.762900 -13.446500 -11.362200
N -12.592100 -8.905400 -12.932600
C -12.574000 -11.031600 -12.203000
H -12.497900 -6.036900 -14.162300
N -12.331600 -6.906500 -13.833600
H -11.961800 -13.831300 -11.697500
H -11.708300 -11.110800 -12.585800
C -11.257400 -8.923700 -13.494800
C -11.171600 -7.554000 -14.111800
H -11.161300 -9.634400 -14.177100
H -10.570500 -9.048800 -12.793300
O -10.210300 -7.100300 -14.723500
17
Fragment
H -23.719700 -12.676700 -6.946800
H -23.020000 -11.552700 -7.706400
N -22.977900 -12.336500 -7.284200
H -22.539700 -14.751600 -6.438300
C -21.870100 -13.126900 -7.489900
C -21.799700 -14.410600 -6.925800
O -21.616700 -16.958800 -5.808900
H -20.780000 -11.784900 -8.583500
C -20.758400 -12.656200 -8.205600
C -20.655700 -16.519000 -6.423900
C -20.653800 -15.186700 -7.076000
H -19.637600 -18.011300 -6.178100
C -19.625800 -13.445400 -8.369500
C -19.557100 -14.719200 -7.802800
O -19.519800 -17.203400 -6.562400
H -18.891500 -13.114500 -8.872500
H -18.781000 -15.256800 -7.909200
40
Fragment
O -16.640700 -12.183600 -9.677500
O -16.209900 -14.233300 -9.073800
N -15.920700 -13.189100 -9.655200
C -14.685300 -13.153700 -10.355400
O -14.387400 -11.959100 -10.914900
O -14.334500 -7.380100 -12.735700
H -13.761500 -15.006000 -10.304500
C -13.753700 -14.100000 -10.591600
C -13.235700 -7.700000 -13.110300
N -13.218500 -9.919300 -12.279800
C -13.177400 -12.156600 -11.531200
C -12.762900 -13.446500 -11.362200
N -12.592100 -8.905400 -12.932600
C -12.574000 -11.031600 -12.203000
H -12.497900 -6.036900 -14.162300
N -12.331600 -6.906500 -13.833600
H -11.961800 -13.831300 -11.697500
H -11.708300 -11.110800 -12.585800
C -11.257400 -8.923700 -13.494800
C -11.171600 -7.554000 -14.111800
H -11.161300 -9.634400 -14.177100
H -10.570500 -9.048800 -12.793300
O -10.210300 -7.100300 -14.723500
H -23.719700 -12.676700 -6.946800
H -23.020000 -11.552700 -7.706400
N -22.977900 -12.336500 -7.284200
H -22.539700 -14.751600 -6.438300
C -21.870100 -13.126900 -7.489900
C -21.799700 -14.410600 -6.925800
O -21.616700 -16.958800 -5.808900
H -20.780000 -11.784900 -8.583500
C -20.758400 -12.656200 -8.205600
C -20.655700 -16.519000 -6.423900
C -20.653800 -15.186700 -7.076000
H -19.637600 -18.011300 -6.178100
C -19.625800 -13.445400 -8.369500
C -19.557100 -14.719200 -7.802800
O -19.519800 -17.203400 -6.562400
H -18.891500 -13.114500 -8.872500
H -18.781000 -15.256800 -7.909200
