23
Fragment
O -16.640700 -12.183600 -9.677500
O -16.209900 -14.233300 -9.073800
N -15.920700 -13.189100 -9.655200
C -14.685300 -13.153700 -10.355400
O -14.387400 -11.959100 -10.914900
O -14.334500 -7.380100 -12.735700
H -13.761500 -15.006000 -10.304500
C -13.753700 -14.100000 -10.591600
C -13.235700 -7.700000 -13.110300
N -13.218500 -9.919300 -12.279800
C -13.177400 -12.156600 -11.531200
C -12.762900 -13.446500 -11.362200
N -12.592100 -8.905400 -12.932600
C -12.574000 -11.031600 -12.203000
H -12.497900 -6.036900 -14.162300
N -12.331600 -6.906500 -13.833600
H -11.961800 -13.831300 -11.697500
H -11.708300 -11.110800 -12.585800
C -11.257400 -8.923700 -13.494800
C -11.171600 -7.554000 -14.111800
H -11.161300 -9.634400 -14.177100
H -10.570500 -9.048800 -12.793300
O -10.210300 -7.100300 -14.723500
17
Fragment
H -10.105000 -15.968200 -10.615700
H -9.994600 -18.110500 -9.652400
O -9.366300 -14.021600 -11.962500
C -9.328900 -16.505800 -10.722100
C -9.260300 -17.779700 -10.155300
H -9.248400 -13.213700 -12.346800
C -8.232300 -16.038300 -11.448900
C -8.230300 -14.706000 -12.101000
C -8.127600 -18.568800 -10.319300
H -8.106100 -19.440100 -9.941400
O -7.269400 -14.266200 -12.716000
C -7.086300 -16.814500 -11.599100
C -7.016000 -18.098100 -11.035000
H -6.346400 -16.473400 -12.086600
N -5.908100 -18.888500 -11.240700
H -5.866000 -19.672300 -10.818500
H -5.166300 -18.548300 -11.578100
40
Fragment
O -16.640700 -12.183600 -9.677500
O -16.209900 -14.233300 -9.073800
N -15.920700 -13.189100 -9.655200
C -14.685300 -13.153700 -10.355400
O -14.387400 -11.959100 -10.914900
O -14.334500 -7.380100 -12.735700
H -13.761500 -15.006000 -10.304500
C -13.753700 -14.100000 -10.591600
C -13.235700 -7.700000 -13.110300
N -13.218500 -9.919300 -12.279800
C -13.177400 -12.156600 -11.531200
C -12.762900 -13.446500 -11.362200
N -12.592100 -8.905400 -12.932600
C -12.574000 -11.031600 -12.203000
H -12.497900 -6.036900 -14.162300
N -12.331600 -6.906500 -13.833600
H -11.961800 -13.831300 -11.697500
H -11.708300 -11.110800 -12.585800
C -11.257400 -8.923700 -13.494800
C -11.171600 -7.554000 -14.111800
H -11.161300 -9.634400 -14.177100
H -10.570500 -9.048800 -12.793300
O -10.210300 -7.100300 -14.723500
H -10.105000 -15.968200 -10.615700
H -9.994600 -18.110500 -9.652400
O -9.366300 -14.021600 -11.962500
C -9.328900 -16.505800 -10.722100
C -9.260300 -17.779700 -10.155300
H -9.248400 -13.213700 -12.346800
C -8.232300 -16.038300 -11.448900
C -8.230300 -14.706000 -12.101000
C -8.127600 -18.568800 -10.319300
H -8.106100 -19.440100 -9.941400
O -7.269400 -14.266200 -12.716000
C -7.086300 -16.814500 -11.599100
C -7.016000 -18.098100 -11.035000
H -6.346400 -16.473400 -12.086600
N -5.908100 -18.888500 -11.240700
H -5.866000 -19.672300 -10.818500
H -5.166300 -18.548300 -11.578100
