23
Fragment
O -16.640700 -12.183600 -9.677500
O -16.209900 -14.233300 -9.073800
N -15.920700 -13.189100 -9.655200
C -14.685300 -13.153700 -10.355400
O -14.387400 -11.959100 -10.914900
O -14.334500 -7.380100 -12.735700
H -13.761500 -15.006000 -10.304500
C -13.753700 -14.100000 -10.591600
C -13.235700 -7.700000 -13.110300
N -13.218500 -9.919300 -12.279800
C -13.177400 -12.156600 -11.531200
C -12.762900 -13.446500 -11.362200
N -12.592100 -8.905400 -12.932600
C -12.574000 -11.031600 -12.203000
H -12.497900 -6.036900 -14.162300
N -12.331600 -6.906500 -13.833600
H -11.961800 -13.831300 -11.697500
H -11.708300 -11.110800 -12.585800
C -11.257400 -8.923700 -13.494800
C -11.171600 -7.554000 -14.111800
H -11.161300 -9.634400 -14.177100
H -10.570500 -9.048800 -12.793300
O -10.210300 -7.100300 -14.723500
23
Fragment
O -19.857200 -14.733200 -3.801400
H -19.497000 -12.784700 -5.731600
H -18.906100 -12.199000 -4.347800
C -18.895900 -14.279400 -4.413100
C -18.810100 -12.909800 -5.030100
H -18.359200 -10.722600 -5.939100
H -18.105700 -8.002100 -6.827400
N -17.735900 -14.926900 -4.691300
H -17.569600 -15.796500 -4.362600
C -17.493500 -10.801900 -6.321900
N -17.475400 -12.928000 -5.592300
C -17.304600 -8.387000 -7.162700
C -16.890100 -9.676900 -6.993700
N -16.849000 -11.914100 -6.245100
C -16.831800 -14.133400 -5.414600
C -16.313800 -7.733400 -7.933300
H -16.306000 -6.827400 -8.220400
O -15.733000 -14.453400 -5.789200
O -15.680100 -9.874300 -7.610000
C -15.382200 -8.679700 -8.169500
N -14.146800 -8.644400 -8.869700
O -13.857600 -7.600100 -9.451100
O -13.426800 -9.649900 -8.847400
46
Fragment
O -16.640700 -12.183600 -9.677500
O -16.209900 -14.233300 -9.073800
N -15.920700 -13.189100 -9.655200
C -14.685300 -13.153700 -10.355400
O -14.387400 -11.959100 -10.914900
O -14.334500 -7.380100 -12.735700
H -13.761500 -15.006000 -10.304500
C -13.753700 -14.100000 -10.591600
C -13.235700 -7.700000 -13.110300
N -13.218500 -9.919300 -12.279800
C -13.177400 -12.156600 -11.531200
C -12.762900 -13.446500 -11.362200
N -12.592100 -8.905400 -12.932600
C -12.574000 -11.031600 -12.203000
H -12.497900 -6.036900 -14.162300
N -12.331600 -6.906500 -13.833600
H -11.961800 -13.831300 -11.697500
H -11.708300 -11.110800 -12.585800
C -11.257400 -8.923700 -13.494800
C -11.171600 -7.554000 -14.111800
H -11.161300 -9.634400 -14.177100
H -10.570500 -9.048800 -12.793300
O -10.210300 -7.100300 -14.723500
O -19.857200 -14.733200 -3.801400
H -19.497000 -12.784700 -5.731600
H -18.906100 -12.199000 -4.347800
C -18.895900 -14.279400 -4.413100
C -18.810100 -12.909800 -5.030100
H -18.359200 -10.722600 -5.939100
H -18.105700 -8.002100 -6.827400
N -17.735900 -14.926900 -4.691300
H -17.569600 -15.796500 -4.362600
C -17.493500 -10.801900 -6.321900
N -17.475400 -12.928000 -5.592300
C -17.304600 -8.387000 -7.162700
C -16.890100 -9.676900 -6.993700
N -16.849000 -11.914100 -6.245100
C -16.831800 -14.133400 -5.414600
C -16.313800 -7.733400 -7.933300
H -16.306000 -6.827400 -8.220400
O -15.733000 -14.453400 -5.789200
O -15.680100 -9.874300 -7.610000
C -15.382200 -8.679700 -8.169500
N -14.146800 -8.644400 -8.869700
O -13.857600 -7.600100 -9.451100
O -13.426800 -9.649900 -8.847400
