23
Fragment
O -16.640700 -12.183600 -9.677500
O -16.209900 -14.233300 -9.073800
N -15.920700 -13.189100 -9.655200
C -14.685300 -13.153700 -10.355400
O -14.387400 -11.959100 -10.914900
O -14.334500 -7.380100 -12.735700
H -13.761500 -15.006000 -10.304500
C -13.753700 -14.100000 -10.591600
C -13.235700 -7.700000 -13.110300
N -13.218500 -9.919300 -12.279800
C -13.177400 -12.156600 -11.531200
C -12.762900 -13.446500 -11.362200
N -12.592100 -8.905400 -12.932600
C -12.574000 -11.031600 -12.203000
H -12.497900 -6.036900 -14.162300
N -12.331600 -6.906500 -13.833600
H -11.961800 -13.831300 -11.697500
H -11.708300 -11.110800 -12.585800
C -11.257400 -8.923700 -13.494800
C -11.171600 -7.554000 -14.111800
H -11.161300 -9.634400 -14.177100
H -10.570500 -9.048800 -12.793300
O -10.210300 -7.100300 -14.723500
23
Fragment
O -9.217600 -11.562500 -13.063900
H -8.857400 -9.614000 -14.994100
H -8.266500 -9.028300 -13.610200
C -8.256300 -11.108800 -13.675500
C -8.170500 -9.739100 -14.292500
H -7.719600 -7.552000 -15.201500
H -7.466100 -4.831400 -16.089800
N -7.096300 -11.756300 -13.953800
H -6.930000 -12.625900 -13.625100
C -6.853800 -7.631200 -15.584300
N -6.835800 -9.757400 -14.854700
C -6.665000 -5.216300 -16.425100
C -6.250500 -6.506200 -16.256200
N -6.209400 -8.743400 -15.507600
C -6.192200 -10.962800 -14.677100
C -5.674200 -4.562800 -17.195700
H -5.666400 -3.656800 -17.482900
O -5.093400 -11.282700 -15.051700
O -5.040500 -6.703700 -16.872500
C -4.742600 -5.509100 -17.431900
N -3.507200 -5.473700 -18.132200
O -3.218000 -4.429500 -18.713600
O -2.787200 -6.479200 -18.109800
46
Fragment
O -16.640700 -12.183600 -9.677500
O -16.209900 -14.233300 -9.073800
N -15.920700 -13.189100 -9.655200
C -14.685300 -13.153700 -10.355400
O -14.387400 -11.959100 -10.914900
O -14.334500 -7.380100 -12.735700
H -13.761500 -15.006000 -10.304500
C -13.753700 -14.100000 -10.591600
C -13.235700 -7.700000 -13.110300
N -13.218500 -9.919300 -12.279800
C -13.177400 -12.156600 -11.531200
C -12.762900 -13.446500 -11.362200
N -12.592100 -8.905400 -12.932600
C -12.574000 -11.031600 -12.203000
H -12.497900 -6.036900 -14.162300
N -12.331600 -6.906500 -13.833600
H -11.961800 -13.831300 -11.697500
H -11.708300 -11.110800 -12.585800
C -11.257400 -8.923700 -13.494800
C -11.171600 -7.554000 -14.111800
H -11.161300 -9.634400 -14.177100
H -10.570500 -9.048800 -12.793300
O -10.210300 -7.100300 -14.723500
O -9.217600 -11.562500 -13.063900
H -8.857400 -9.614000 -14.994100
H -8.266500 -9.028300 -13.610200
C -8.256300 -11.108800 -13.675500
C -8.170500 -9.739100 -14.292500
H -7.719600 -7.552000 -15.201500
H -7.466100 -4.831400 -16.089800
N -7.096300 -11.756300 -13.953800
H -6.930000 -12.625900 -13.625100
C -6.853800 -7.631200 -15.584300
N -6.835800 -9.757400 -14.854700
C -6.665000 -5.216300 -16.425100
C -6.250500 -6.506200 -16.256200
N -6.209400 -8.743400 -15.507600
C -6.192200 -10.962800 -14.677100
C -5.674200 -4.562800 -17.195700
H -5.666400 -3.656800 -17.482900
O -5.093400 -11.282700 -15.051700
O -5.040500 -6.703700 -16.872500
C -4.742600 -5.509100 -17.431900
N -3.507200 -5.473700 -18.132200
O -3.218000 -4.429500 -18.713600
O -2.787200 -6.479200 -18.109800
