23
Fragment
H -10.713200 -25.265100 -30.110600
N -10.297900 -25.304200 -30.861200
O -10.273400 -22.995100 -31.148000
O -10.141300 -27.564700 -31.242900
H -10.124000 -26.281900 -33.686700
C -10.098700 -24.119900 -31.584500
C -10.026100 -26.411800 -31.603400
N -9.665200 -24.493800 -32.811600
C -9.546600 -25.942400 -32.957100
N -9.389200 -23.517600 -33.722600
C -9.004100 -23.925900 -34.888600
H -8.945800 -24.856800 -35.063600
O -8.739300 -21.637200 -35.651900
C -8.663300 -22.985700 -35.921800
O -8.641500 -19.029400 -35.755200
H -8.610100 -26.214700 -33.125800
C -8.378200 -21.033400 -36.803200
N -8.344700 -19.627000 -36.782100
C -8.277100 -23.198500 -37.214400
H -8.166400 -24.040100 -37.640300
C -8.071700 -21.926600 -37.796300
O -7.995600 -19.085700 -37.840600
H -7.785100 -21.734200 -38.679800
17
Fragment
H -13.237400 -19.766200 -23.909200
O -13.048700 -17.296000 -24.520700
C -12.894600 -19.647300 -24.786400
H -12.853100 -16.581100 -24.917100
H -12.719900 -21.596500 -25.199700
C -12.717200 -18.358200 -25.307200
C -12.569900 -20.726700 -25.549700
C -12.199700 -18.198700 -26.597700
H -12.075900 -17.325700 -26.954000
C -12.021200 -20.600000 -26.838000
C -11.870200 -19.301600 -27.348300
O -11.791100 -22.948200 -27.015200
C -11.600200 -21.818700 -27.557100
H -11.534100 -19.181100 -28.227600
N -11.086300 -21.709200 -28.761100
H -10.963800 -20.912900 -29.117400
H -10.865100 -22.431900 -29.212300
40
Fragment
H -10.713200 -25.265100 -30.110600
N -10.297900 -25.304200 -30.861200
O -10.273400 -22.995100 -31.148000
O -10.141300 -27.564700 -31.242900
H -10.124000 -26.281900 -33.686700
C -10.098700 -24.119900 -31.584500
C -10.026100 -26.411800 -31.603400
N -9.665200 -24.493800 -32.811600
C -9.546600 -25.942400 -32.957100
N -9.389200 -23.517600 -33.722600
C -9.004100 -23.925900 -34.888600
H -8.945800 -24.856800 -35.063600
O -8.739300 -21.637200 -35.651900
C -8.663300 -22.985700 -35.921800
O -8.641500 -19.029400 -35.755200
H -8.610100 -26.214700 -33.125800
C -8.378200 -21.033400 -36.803200
N -8.344700 -19.627000 -36.782100
C -8.277100 -23.198500 -37.214400
H -8.166400 -24.040100 -37.640300
C -8.071700 -21.926600 -37.796300
O -7.995600 -19.085700 -37.840600
H -7.785100 -21.734200 -38.679800
H -13.237400 -19.766200 -23.909200
O -13.048700 -17.296000 -24.520700
C -12.894600 -19.647300 -24.786400
H -12.853100 -16.581100 -24.917100
H -12.719900 -21.596500 -25.199700
C -12.717200 -18.358200 -25.307200
C -12.569900 -20.726700 -25.549700
C -12.199700 -18.198700 -26.597700
H -12.075900 -17.325700 -26.954000
C -12.021200 -20.600000 -26.838000
C -11.870200 -19.301600 -27.348300
O -11.791100 -22.948200 -27.015200
C -11.600200 -21.818700 -27.557100
H -11.534100 -19.181100 -28.227600
N -11.086300 -21.709200 -28.761100
H -10.963800 -20.912900 -29.117400
H -10.865100 -22.431900 -29.212300
