23
Fragment
H -10.713200 -25.265100 -30.110600
N -10.297900 -25.304200 -30.861200
O -10.273400 -22.995100 -31.148000
O -10.141300 -27.564700 -31.242900
H -10.124000 -26.281900 -33.686700
C -10.098700 -24.119900 -31.584500
C -10.026100 -26.411800 -31.603400
N -9.665200 -24.493800 -32.811600
C -9.546600 -25.942400 -32.957100
N -9.389200 -23.517600 -33.722600
C -9.004100 -23.925900 -34.888600
H -8.945800 -24.856800 -35.063600
O -8.739300 -21.637200 -35.651900
C -8.663300 -22.985700 -35.921800
O -8.641500 -19.029400 -35.755200
H -8.610100 -26.214700 -33.125800
C -8.378200 -21.033400 -36.803200
N -8.344700 -19.627000 -36.782100
C -8.277100 -23.198500 -37.214400
H -8.166400 -24.040100 -37.640300
C -8.071700 -21.926600 -37.796300
O -7.995600 -19.085700 -37.840600
H -7.785100 -21.734200 -38.679800
23
Fragment
H -8.441300 -29.556200 -35.120500
O -8.230800 -26.907700 -35.959800
C -8.154700 -29.748600 -36.004000
H -8.060000 -31.862100 -36.160100
C -7.949300 -31.020500 -36.586000
N -7.881700 -27.449000 -37.018300
C -7.848200 -28.855400 -36.997200
H -7.616300 -34.036700 -40.674600
O -7.584900 -26.851400 -38.045200
C -7.563100 -30.807700 -37.878600
O -7.487100 -29.459200 -38.148500
H -7.280600 -32.678800 -38.736800
C -7.222300 -31.747900 -38.911800
N -6.837200 -31.339600 -40.077800
C -6.679800 -33.764400 -40.843200
N -6.561200 -32.315800 -40.988700
C -6.200200 -34.233800 -42.196900
C -6.127700 -31.941900 -42.215900
H -6.102400 -34.103900 -40.113700
O -6.085100 -35.386700 -42.557500
O -5.953000 -30.817100 -42.652400
N -5.928500 -33.126200 -42.939200
H -5.513200 -33.087100 -43.689800
46
Fragment
H -10.713200 -25.265100 -30.110600
N -10.297900 -25.304200 -30.861200
O -10.273400 -22.995100 -31.148000
O -10.141300 -27.564700 -31.242900
H -10.124000 -26.281900 -33.686700
C -10.098700 -24.119900 -31.584500
C -10.026100 -26.411800 -31.603400
N -9.665200 -24.493800 -32.811600
C -9.546600 -25.942400 -32.957100
N -9.389200 -23.517600 -33.722600
C -9.004100 -23.925900 -34.888600
H -8.945800 -24.856800 -35.063600
O -8.739300 -21.637200 -35.651900
C -8.663300 -22.985700 -35.921800
O -8.641500 -19.029400 -35.755200
H -8.610100 -26.214700 -33.125800
C -8.378200 -21.033400 -36.803200
N -8.344700 -19.627000 -36.782100
C -8.277100 -23.198500 -37.214400
H -8.166400 -24.040100 -37.640300
C -8.071700 -21.926600 -37.796300
O -7.995600 -19.085700 -37.840600
H -7.785100 -21.734200 -38.679800
H -8.441300 -29.556200 -35.120500
O -8.230800 -26.907700 -35.959800
C -8.154700 -29.748600 -36.004000
H -8.060000 -31.862100 -36.160100
C -7.949300 -31.020500 -36.586000
N -7.881700 -27.449000 -37.018300
C -7.848200 -28.855400 -36.997200
H -7.616300 -34.036700 -40.674600
O -7.584900 -26.851400 -38.045200
C -7.563100 -30.807700 -37.878600
O -7.487100 -29.459200 -38.148500
H -7.280600 -32.678800 -38.736800
C -7.222300 -31.747900 -38.911800
N -6.837200 -31.339600 -40.077800
C -6.679800 -33.764400 -40.843200
N -6.561200 -32.315800 -40.988700
C -6.200200 -34.233800 -42.196900
C -6.127700 -31.941900 -42.215900
H -6.102400 -34.103900 -40.113700
O -6.085100 -35.386700 -42.557500
O -5.953000 -30.817100 -42.652400
N -5.928500 -33.126200 -42.939200
H -5.513200 -33.087100 -43.689800
