23
Fragment
H -10.713200 -25.265100 -30.110600
N -10.297900 -25.304200 -30.861200
O -10.273400 -22.995100 -31.148000
O -10.141300 -27.564700 -31.242900
H -10.124000 -26.281900 -33.686700
C -10.098700 -24.119900 -31.584500
C -10.026100 -26.411800 -31.603400
N -9.665200 -24.493800 -32.811600
C -9.546600 -25.942400 -32.957100
N -9.389200 -23.517600 -33.722600
C -9.004100 -23.925900 -34.888600
H -8.945800 -24.856800 -35.063600
O -8.739300 -21.637200 -35.651900
C -8.663300 -22.985700 -35.921800
O -8.641500 -19.029400 -35.755200
H -8.610100 -26.214700 -33.125800
C -8.378200 -21.033400 -36.803200
N -8.344700 -19.627000 -36.782100
C -8.277100 -23.198500 -37.214400
H -8.166400 -24.040100 -37.640300
C -8.071700 -21.926600 -37.796300
O -7.995600 -19.085700 -37.840600
H -7.785100 -21.734200 -38.679800
17
Fragment
H -6.951000 -26.940500 -29.912300
N -6.832100 -26.729300 -30.757900
H -6.824900 -25.883000 -31.002500
H -6.780400 -33.600200 -30.732600
O -6.749800 -33.093300 -30.062100
C -6.706900 -31.790200 -30.479600
H -6.706900 -28.802200 -29.225000
C -6.699200 -29.473300 -29.897600
C -6.698900 -29.105700 -31.230200
C -6.692900 -31.442900 -31.850100
C -6.690500 -30.108400 -32.202300
C -6.690000 -30.812400 -29.532800
H -6.686100 -32.118700 -32.518600
H -6.683100 -29.869100 -33.121600
H -6.671600 -31.048600 -28.613500
C -6.662100 -27.693000 -31.673000
O -6.491800 -27.411400 -32.881200
40
Fragment
H -10.713200 -25.265100 -30.110600
N -10.297900 -25.304200 -30.861200
O -10.273400 -22.995100 -31.148000
O -10.141300 -27.564700 -31.242900
H -10.124000 -26.281900 -33.686700
C -10.098700 -24.119900 -31.584500
C -10.026100 -26.411800 -31.603400
N -9.665200 -24.493800 -32.811600
C -9.546600 -25.942400 -32.957100
N -9.389200 -23.517600 -33.722600
C -9.004100 -23.925900 -34.888600
H -8.945800 -24.856800 -35.063600
O -8.739300 -21.637200 -35.651900
C -8.663300 -22.985700 -35.921800
O -8.641500 -19.029400 -35.755200
H -8.610100 -26.214700 -33.125800
C -8.378200 -21.033400 -36.803200
N -8.344700 -19.627000 -36.782100
C -8.277100 -23.198500 -37.214400
H -8.166400 -24.040100 -37.640300
C -8.071700 -21.926600 -37.796300
O -7.995600 -19.085700 -37.840600
H -7.785100 -21.734200 -38.679800
H -6.951000 -26.940500 -29.912300
N -6.832100 -26.729300 -30.757900
H -6.824900 -25.883000 -31.002500
H -6.780400 -33.600200 -30.732600
O -6.749800 -33.093300 -30.062100
C -6.706900 -31.790200 -30.479600
H -6.706900 -28.802200 -29.225000
C -6.699200 -29.473300 -29.897600
C -6.698900 -29.105700 -31.230200
C -6.692900 -31.442900 -31.850100
C -6.690500 -30.108400 -32.202300
C -6.690000 -30.812400 -29.532800
H -6.686100 -32.118700 -32.518600
H -6.683100 -29.869100 -33.121600
H -6.671600 -31.048600 -28.613500
C -6.662100 -27.693000 -31.673000
O -6.491800 -27.411400 -32.881200
