23
Fragment
H -10.713200 -25.265100 -30.110600
N -10.297900 -25.304200 -30.861200
O -10.273400 -22.995100 -31.148000
O -10.141300 -27.564700 -31.242900
H -10.124000 -26.281900 -33.686700
C -10.098700 -24.119900 -31.584500
C -10.026100 -26.411800 -31.603400
N -9.665200 -24.493800 -32.811600
C -9.546600 -25.942400 -32.957100
N -9.389200 -23.517600 -33.722600
C -9.004100 -23.925900 -34.888600
H -8.945800 -24.856800 -35.063600
O -8.739300 -21.637200 -35.651900
C -8.663300 -22.985700 -35.921800
O -8.641500 -19.029400 -35.755200
H -8.610100 -26.214700 -33.125800
C -8.378200 -21.033400 -36.803200
N -8.344700 -19.627000 -36.782100
C -8.277100 -23.198500 -37.214400
H -8.166400 -24.040100 -37.640300
C -8.071700 -21.926600 -37.796300
O -7.995600 -19.085700 -37.840600
H -7.785100 -21.734200 -38.679800
17
Fragment
H -12.636900 -19.343800 -34.452100
O -12.448200 -21.814000 -35.063600
C -12.294100 -19.462700 -35.329300
H -12.252600 -22.528900 -35.460000
H -12.119400 -17.513500 -35.742600
C -12.116700 -20.751800 -35.850100
C -11.969400 -18.383300 -36.092600
C -11.599200 -20.911300 -37.140600
H -11.475400 -21.784300 -37.496900
C -11.420700 -18.510000 -37.380900
C -11.269700 -19.808400 -37.891200
O -11.190600 -16.161800 -37.558100
C -10.999700 -17.291300 -38.100000
H -10.933600 -19.928900 -38.770500
N -10.485800 -17.400800 -39.304000
H -10.363300 -18.197100 -39.660300
H -10.264600 -16.678100 -39.755200
40
Fragment
H -10.713200 -25.265100 -30.110600
N -10.297900 -25.304200 -30.861200
O -10.273400 -22.995100 -31.148000
O -10.141300 -27.564700 -31.242900
H -10.124000 -26.281900 -33.686700
C -10.098700 -24.119900 -31.584500
C -10.026100 -26.411800 -31.603400
N -9.665200 -24.493800 -32.811600
C -9.546600 -25.942400 -32.957100
N -9.389200 -23.517600 -33.722600
C -9.004100 -23.925900 -34.888600
H -8.945800 -24.856800 -35.063600
O -8.739300 -21.637200 -35.651900
C -8.663300 -22.985700 -35.921800
O -8.641500 -19.029400 -35.755200
H -8.610100 -26.214700 -33.125800
C -8.378200 -21.033400 -36.803200
N -8.344700 -19.627000 -36.782100
C -8.277100 -23.198500 -37.214400
H -8.166400 -24.040100 -37.640300
C -8.071700 -21.926600 -37.796300
O -7.995600 -19.085700 -37.840600
H -7.785100 -21.734200 -38.679800
H -12.636900 -19.343800 -34.452100
O -12.448200 -21.814000 -35.063600
C -12.294100 -19.462700 -35.329300
H -12.252600 -22.528900 -35.460000
H -12.119400 -17.513500 -35.742600
C -12.116700 -20.751800 -35.850100
C -11.969400 -18.383300 -36.092600
C -11.599200 -20.911300 -37.140600
H -11.475400 -21.784300 -37.496900
C -11.420700 -18.510000 -37.380900
C -11.269700 -19.808400 -37.891200
O -11.190600 -16.161800 -37.558100
C -10.999700 -17.291300 -38.100000
H -10.933600 -19.928900 -38.770500
N -10.485800 -17.400800 -39.304000
H -10.363300 -18.197100 -39.660300
H -10.264600 -16.678100 -39.755200
