23
Fragment
H -10.713200 -25.265100 -30.110600
N -10.297900 -25.304200 -30.861200
O -10.273400 -22.995100 -31.148000
O -10.141300 -27.564700 -31.242900
H -10.124000 -26.281900 -33.686700
C -10.098700 -24.119900 -31.584500
C -10.026100 -26.411800 -31.603400
N -9.665200 -24.493800 -32.811600
C -9.546600 -25.942400 -32.957100
N -9.389200 -23.517600 -33.722600
C -9.004100 -23.925900 -34.888600
H -8.945800 -24.856800 -35.063600
O -8.739300 -21.637200 -35.651900
C -8.663300 -22.985700 -35.921800
O -8.641500 -19.029400 -35.755200
H -8.610100 -26.214700 -33.125800
C -8.378200 -21.033400 -36.803200
N -8.344700 -19.627000 -36.782100
C -8.277100 -23.198500 -37.214400
H -8.166400 -24.040100 -37.640300
C -8.071700 -21.926600 -37.796300
O -7.995600 -19.085700 -37.840600
H -7.785100 -21.734200 -38.679800
17
Fragment
H -6.350500 -27.813500 -40.455300
N -6.231500 -28.024700 -41.300800
H -6.224400 -28.871000 -41.545400
H -6.179900 -21.153800 -41.275500
O -6.149300 -21.660700 -40.605000
H -6.106400 -25.951800 -39.767900
C -6.106400 -22.963800 -41.022500
C -6.098700 -25.280700 -40.440500
C -6.098400 -25.648300 -41.773100
C -6.092400 -23.311100 -42.393000
C -6.090000 -24.645600 -42.745200
C -6.089500 -23.941600 -40.075700
H -6.085600 -22.635300 -43.061500
H -6.082600 -24.884900 -43.664500
H -6.071100 -23.705400 -39.156400
C -6.061600 -27.061000 -42.215900
O -5.891300 -27.342600 -43.424100
40
Fragment
H -10.713200 -25.265100 -30.110600
N -10.297900 -25.304200 -30.861200
O -10.273400 -22.995100 -31.148000
O -10.141300 -27.564700 -31.242900
H -10.124000 -26.281900 -33.686700
C -10.098700 -24.119900 -31.584500
C -10.026100 -26.411800 -31.603400
N -9.665200 -24.493800 -32.811600
C -9.546600 -25.942400 -32.957100
N -9.389200 -23.517600 -33.722600
C -9.004100 -23.925900 -34.888600
H -8.945800 -24.856800 -35.063600
O -8.739300 -21.637200 -35.651900
C -8.663300 -22.985700 -35.921800
O -8.641500 -19.029400 -35.755200
H -8.610100 -26.214700 -33.125800
C -8.378200 -21.033400 -36.803200
N -8.344700 -19.627000 -36.782100
C -8.277100 -23.198500 -37.214400
H -8.166400 -24.040100 -37.640300
C -8.071700 -21.926600 -37.796300
O -7.995600 -19.085700 -37.840600
H -7.785100 -21.734200 -38.679800
H -6.350500 -27.813500 -40.455300
N -6.231500 -28.024700 -41.300800
H -6.224400 -28.871000 -41.545400
H -6.179900 -21.153800 -41.275500
O -6.149300 -21.660700 -40.605000
H -6.106400 -25.951800 -39.767900
C -6.106400 -22.963800 -41.022500
C -6.098700 -25.280700 -40.440500
C -6.098400 -25.648300 -41.773100
C -6.092400 -23.311100 -42.393000
C -6.090000 -24.645600 -42.745200
C -6.089500 -23.941600 -40.075700
H -6.085600 -22.635300 -43.061500
H -6.082600 -24.884900 -43.664500
H -6.071100 -23.705400 -39.156400
C -6.061600 -27.061000 -42.215900
O -5.891300 -27.342600 -43.424100
