22
Fragment
H -17.692400 -19.176700 -15.201100
H -17.132900 -20.446000 -13.227500
C -16.910800 -18.999800 -14.746500
H -16.798500 -15.775200 -18.453400
C -16.537400 -19.706300 -13.635800
N -16.459300 -17.321400 -16.394700
C -16.061600 -18.003200 -15.284000
C -15.974300 -15.604500 -18.012500
C -15.619800 -16.365700 -16.847200
H -15.408800 -14.155600 -19.249100
C -15.277400 -19.431200 -13.010200
C -15.150800 -14.655300 -18.483800
H -15.019400 -19.931000 -12.244900
C -14.808400 -17.720800 -14.646800
C -14.453900 -18.482000 -13.481500
C -14.366700 -16.083300 -16.210000
N -13.968900 -16.765100 -15.099300
C -13.890800 -14.380200 -17.858100
H -13.629700 -18.311300 -13.040600
C -13.517400 -15.086700 -16.747500
H -13.295400 -13.640500 -18.266500
H -12.735800 -14.909800 -16.292900
23
Fragment
O -23.601300 -22.812200 -14.239500
H -23.277700 -20.445500 -15.664100
C -22.655900 -22.109000 -14.533400
H -22.628400 -21.607000 -16.578400
O -22.624500 -16.415700 -21.101000
C -22.567700 -21.133400 -15.711300
H -22.213500 -19.403900 -17.410900
O -21.605000 -17.542300 -18.998200
N -21.551800 -15.932100 -20.707300
N -21.444700 -22.038700 -13.880500
C -21.361300 -19.046300 -17.190500
N -21.252900 -20.550600 -15.517100
H -21.208000 -22.449900 -13.206500
O -20.974000 -14.975000 -21.229000
C -20.933500 -16.511400 -19.563000
C -20.806200 -17.936800 -17.941100
N -20.673100 -19.538300 -16.215200
C -20.577100 -21.106200 -14.436800
C -19.768200 -16.230600 -18.944700
C -19.694800 -17.165300 -17.882300
O -19.460400 -20.840600 -14.051600
H -19.137200 -15.556600 -19.171400
H -18.993800 -17.237000 -17.245100
45
Fragment
H -17.692400 -19.176700 -15.201100
H -17.132900 -20.446000 -13.227500
C -16.910800 -18.999800 -14.746500
H -16.798500 -15.775200 -18.453400
C -16.537400 -19.706300 -13.635800
N -16.459300 -17.321400 -16.394700
C -16.061600 -18.003200 -15.284000
C -15.974300 -15.604500 -18.012500
C -15.619800 -16.365700 -16.847200
H -15.408800 -14.155600 -19.249100
C -15.277400 -19.431200 -13.010200
C -15.150800 -14.655300 -18.483800
H -15.019400 -19.931000 -12.244900
C -14.808400 -17.720800 -14.646800
C -14.453900 -18.482000 -13.481500
C -14.366700 -16.083300 -16.210000
N -13.968900 -16.765100 -15.099300
C -13.890800 -14.380200 -17.858100
H -13.629700 -18.311300 -13.040600
C -13.517400 -15.086700 -16.747500
H -13.295400 -13.640500 -18.266500
H -12.735800 -14.909800 -16.292900
O -23.601300 -22.812200 -14.239500
H -23.277700 -20.445500 -15.664100
C -22.655900 -22.109000 -14.533400
H -22.628400 -21.607000 -16.578400
O -22.624500 -16.415700 -21.101000
C -22.567700 -21.133400 -15.711300
H -22.213500 -19.403900 -17.410900
O -21.605000 -17.542300 -18.998200
N -21.551800 -15.932100 -20.707300
N -21.444700 -22.038700 -13.880500
C -21.361300 -19.046300 -17.190500
N -21.252900 -20.550600 -15.517100
H -21.208000 -22.449900 -13.206500
O -20.974000 -14.975000 -21.229000
C -20.933500 -16.511400 -19.563000
C -20.806200 -17.936800 -17.941100
N -20.673100 -19.538300 -16.215200
C -20.577100 -21.106200 -14.436800
C -19.768200 -16.230600 -18.944700
C -19.694800 -17.165300 -17.882300
O -19.460400 -20.840600 -14.051600
H -19.137200 -15.556600 -19.171400
H -18.993800 -17.237000 -17.245100
