22
Fragment
H -17.692400 -19.176700 -15.201100
H -17.132900 -20.446000 -13.227500
C -16.910800 -18.999800 -14.746500
H -16.798500 -15.775200 -18.453400
C -16.537400 -19.706300 -13.635800
N -16.459300 -17.321400 -16.394700
C -16.061600 -18.003200 -15.284000
C -15.974300 -15.604500 -18.012500
C -15.619800 -16.365700 -16.847200
H -15.408800 -14.155600 -19.249100
C -15.277400 -19.431200 -13.010200
C -15.150800 -14.655300 -18.483800
H -15.019400 -19.931000 -12.244900
C -14.808400 -17.720800 -14.646800
C -14.453900 -18.482000 -13.481500
C -14.366700 -16.083300 -16.210000
N -13.968900 -16.765100 -15.099300
C -13.890800 -14.380200 -17.858100
H -13.629700 -18.311300 -13.040600
C -13.517400 -15.086700 -16.747500
H -13.295400 -13.640500 -18.266500
H -12.735800 -14.909800 -16.292900
22
Fragment
H -24.412400 -25.918100 -11.605500
H -23.728900 -27.372700 -9.815600
C -23.556300 -25.810000 -11.206600
C -23.159300 -26.660500 -10.137900
H -22.987300 -24.252100 -12.360300
C -22.708900 -24.834400 -11.663300
C -21.934900 -26.552500 -9.561600
H -21.630800 -27.133200 -8.891800
C -21.414900 -24.692400 -11.095300
C -21.028500 -25.555600 -10.015100
N -20.597600 -23.727500 -11.560400
N -19.807400 -25.446100 -9.435600
C -19.376400 -23.618100 -10.980900
C -18.990000 -24.481200 -9.900700
H -18.774100 -22.040400 -12.104200
C -18.470000 -22.621100 -11.434400
C -17.696100 -24.339300 -9.332700
H -17.417600 -24.921500 -8.635700
C -17.245600 -22.513100 -10.858100
C -16.848600 -23.363600 -9.789400
H -16.676000 -21.801000 -11.180400
H -15.992500 -23.255500 -9.390500
44
Fragment
H -17.692400 -19.176700 -15.201100
H -17.132900 -20.446000 -13.227500
C -16.910800 -18.999800 -14.746500
H -16.798500 -15.775200 -18.453400
C -16.537400 -19.706300 -13.635800
N -16.459300 -17.321400 -16.394700
C -16.061600 -18.003200 -15.284000
C -15.974300 -15.604500 -18.012500
C -15.619800 -16.365700 -16.847200
H -15.408800 -14.155600 -19.249100
C -15.277400 -19.431200 -13.010200
C -15.150800 -14.655300 -18.483800
H -15.019400 -19.931000 -12.244900
C -14.808400 -17.720800 -14.646800
C -14.453900 -18.482000 -13.481500
C -14.366700 -16.083300 -16.210000
N -13.968900 -16.765100 -15.099300
C -13.890800 -14.380200 -17.858100
H -13.629700 -18.311300 -13.040600
C -13.517400 -15.086700 -16.747500
H -13.295400 -13.640500 -18.266500
H -12.735800 -14.909800 -16.292900
H -24.412400 -25.918100 -11.605500
H -23.728900 -27.372700 -9.815600
C -23.556300 -25.810000 -11.206600
C -23.159300 -26.660500 -10.137900
H -22.987300 -24.252100 -12.360300
C -22.708900 -24.834400 -11.663300
C -21.934900 -26.552500 -9.561600
H -21.630800 -27.133200 -8.891800
C -21.414900 -24.692400 -11.095300
C -21.028500 -25.555600 -10.015100
N -20.597600 -23.727500 -11.560400
N -19.807400 -25.446100 -9.435600
C -19.376400 -23.618100 -10.980900
C -18.990000 -24.481200 -9.900700
H -18.774100 -22.040400 -12.104200
C -18.470000 -22.621100 -11.434400
C -17.696100 -24.339300 -9.332700
H -17.417600 -24.921500 -8.635700
C -17.245600 -22.513100 -10.858100
C -16.848600 -23.363600 -9.789400
H -16.676000 -21.801000 -11.180400
H -15.992500 -23.255500 -9.390500
