23
Fragment
H -10.713200 -25.265100 -30.110600
N -10.297900 -25.304200 -30.861200
O -10.273400 -22.995100 -31.148000
O -10.141300 -27.564700 -31.242900
H -10.124000 -26.281900 -33.686700
C -10.098700 -24.119900 -31.584500
C -10.026100 -26.411800 -31.603400
N -9.665200 -24.493800 -32.811600
C -9.546600 -25.942400 -32.957100
N -9.389200 -23.517600 -33.722600
C -9.004100 -23.925900 -34.888600
H -8.945800 -24.856800 -35.063600
O -8.739300 -21.637200 -35.651900
C -8.663300 -22.985700 -35.921800
O -8.641500 -19.029400 -35.755200
H -8.610100 -26.214700 -33.125800
C -8.378200 -21.033400 -36.803200
N -8.344700 -19.627000 -36.782100
C -8.277100 -23.198500 -37.214400
H -8.166400 -24.040100 -37.640300
C -8.071700 -21.926600 -37.796300
O -7.995600 -19.085700 -37.840600
H -7.785100 -21.734200 -38.679800
17
Fragment
H -5.961800 -24.500100 -34.045200
H -5.863100 -26.019100 -34.140100
N -5.740600 -25.222800 -34.496400
H -5.292800 -27.750900 -35.029900
C -5.226700 -25.113300 -35.700400
O -5.035800 -23.983800 -36.242300
C -4.956700 -27.630400 -35.909200
C -4.805700 -26.332000 -36.419400
H -4.751000 -29.606300 -36.303500
C -4.627200 -28.733300 -36.659800
C -4.257000 -26.205300 -37.707800
C -4.109700 -28.573800 -37.950300
H -4.107000 -25.335500 -38.057800
H -3.973800 -30.350900 -38.340400
C -3.932300 -27.284700 -38.471100
O -3.778200 -29.636000 -38.736800
H -3.589500 -27.165800 -39.348300
40
Fragment
H -10.713200 -25.265100 -30.110600
N -10.297900 -25.304200 -30.861200
O -10.273400 -22.995100 -31.148000
O -10.141300 -27.564700 -31.242900
H -10.124000 -26.281900 -33.686700
C -10.098700 -24.119900 -31.584500
C -10.026100 -26.411800 -31.603400
N -9.665200 -24.493800 -32.811600
C -9.546600 -25.942400 -32.957100
N -9.389200 -23.517600 -33.722600
C -9.004100 -23.925900 -34.888600
H -8.945800 -24.856800 -35.063600
O -8.739300 -21.637200 -35.651900
C -8.663300 -22.985700 -35.921800
O -8.641500 -19.029400 -35.755200
H -8.610100 -26.214700 -33.125800
C -8.378200 -21.033400 -36.803200
N -8.344700 -19.627000 -36.782100
C -8.277100 -23.198500 -37.214400
H -8.166400 -24.040100 -37.640300
C -8.071700 -21.926600 -37.796300
O -7.995600 -19.085700 -37.840600
H -7.785100 -21.734200 -38.679800
H -5.961800 -24.500100 -34.045200
H -5.863100 -26.019100 -34.140100
N -5.740600 -25.222800 -34.496400
H -5.292800 -27.750900 -35.029900
C -5.226700 -25.113300 -35.700400
O -5.035800 -23.983800 -36.242300
C -4.956700 -27.630400 -35.909200
C -4.805700 -26.332000 -36.419400
H -4.751000 -29.606300 -36.303500
C -4.627200 -28.733300 -36.659800
C -4.257000 -26.205300 -37.707800
C -4.109700 -28.573800 -37.950300
H -4.107000 -25.335500 -38.057800
H -3.973800 -30.350900 -38.340400
C -3.932300 -27.284700 -38.471100
O -3.778200 -29.636000 -38.736800
H -3.589500 -27.165800 -39.348300
