34
Fragment
H -14.207200 -8.012100 -28.448300
H -13.805000 -7.617500 -29.872100
N -13.527500 -7.857600 -29.040300
H -12.846400 -9.476000 -27.109600
C -12.427300 -8.685400 -28.952900
C -12.195000 -9.459500 -27.800900
H -11.618600 -8.213600 -30.775000
C -11.473400 -8.714800 -29.981400
C -11.033200 -10.196700 -27.658800
H -10.885400 -10.704300 -26.869700
C -10.322600 -9.470000 -29.845100
C -10.076800 -10.193600 -28.678600
H -9.691800 -9.496100 -30.555100
N -8.865600 -10.927600 -28.655700
N -8.392600 -11.149800 -27.499900
H -8.271500 -14.808300 -30.619800
O -7.812100 -13.382100 -29.288900
C -7.494600 -14.559300 -30.076900
H -7.263000 -15.300200 -29.478700
C -7.209000 -11.927200 -27.524400
C -6.888500 -12.982400 -28.404800
H -6.734700 -14.363900 -30.664300
O -6.546900 -10.752500 -25.624000
C -6.241200 -11.696400 -26.535600
H -5.979500 -9.861400 -23.928800
N -5.734300 -13.628100 -28.365200
C -5.608900 -10.522400 -24.550200
H -5.445300 -11.363000 -24.073600
N -5.062200 -12.310600 -26.468600
C -4.852400 -13.242600 -27.422900
H -4.765500 -10.186700 -24.919400
N -3.660900 -13.868300 -27.452200
H -3.605700 -14.557400 -27.974300
H -3.028400 -13.699500 -26.883900
34
Fragment
H -4.923200 -16.590400 -28.448300
H -4.521000 -16.195800 -29.872100
N -4.243500 -16.435900 -29.040300
H -3.562400 -18.054300 -27.109600
C -3.143300 -17.263700 -28.952900
C -2.911000 -18.037800 -27.800900
H -2.334600 -16.791900 -30.775000
C -2.189400 -17.293100 -29.981400
C -1.749200 -18.775000 -27.658800
H -1.601400 -19.282600 -26.869700
C -1.038600 -18.048300 -29.845100
C -0.792800 -18.771900 -28.678600
H -0.407800 -18.074400 -30.555100
N 0.418400 -19.505900 -28.655700
N 0.891400 -19.728100 -27.499900
H 1.012500 -23.386600 -30.619800
O 1.471900 -21.960400 -29.288900
C 1.789400 -23.137600 -30.076900
H 2.021000 -23.878500 -29.478700
C 2.075000 -20.505500 -27.524400
C 2.395500 -21.560700 -28.404800
H 2.549300 -22.942200 -30.664300
O 2.737100 -19.330800 -25.624000
C 3.042800 -20.274700 -26.535600
H 3.304500 -18.439700 -23.928800
N 3.549700 -22.206400 -28.365200
C 3.675100 -19.100700 -24.550200
H 3.838700 -19.941300 -24.073600
N 4.221800 -20.888900 -26.468600
C 4.431600 -21.820900 -27.422900
H 4.518500 -18.765000 -24.919400
N 5.623100 -22.446600 -27.452200
H 5.678300 -23.135700 -27.974300
H 6.255600 -22.277800 -26.883900
68
Fragment
H -14.207200 -8.012100 -28.448300
H -13.805000 -7.617500 -29.872100
N -13.527500 -7.857600 -29.040300
H -12.846400 -9.476000 -27.109600
C -12.427300 -8.685400 -28.952900
C -12.195000 -9.459500 -27.800900
H -11.618600 -8.213600 -30.775000
C -11.473400 -8.714800 -29.981400
C -11.033200 -10.196700 -27.658800
H -10.885400 -10.704300 -26.869700
C -10.322600 -9.470000 -29.845100
C -10.076800 -10.193600 -28.678600
H -9.691800 -9.496100 -30.555100
N -8.865600 -10.927600 -28.655700
N -8.392600 -11.149800 -27.499900
H -8.271500 -14.808300 -30.619800
O -7.812100 -13.382100 -29.288900
C -7.494600 -14.559300 -30.076900
H -7.263000 -15.300200 -29.478700
C -7.209000 -11.927200 -27.524400
C -6.888500 -12.982400 -28.404800
H -6.734700 -14.363900 -30.664300
O -6.546900 -10.752500 -25.624000
C -6.241200 -11.696400 -26.535600
H -5.979500 -9.861400 -23.928800
N -5.734300 -13.628100 -28.365200
C -5.608900 -10.522400 -24.550200
H -5.445300 -11.363000 -24.073600
N -5.062200 -12.310600 -26.468600
C -4.852400 -13.242600 -27.422900
H -4.765500 -10.186700 -24.919400
N -3.660900 -13.868300 -27.452200
H -3.605700 -14.557400 -27.974300
H -3.028400 -13.699500 -26.883900
H -4.923200 -16.590400 -28.448300
H -4.521000 -16.195800 -29.872100
N -4.243500 -16.435900 -29.040300
H -3.562400 -18.054300 -27.109600
C -3.143300 -17.263700 -28.952900
C -2.911000 -18.037800 -27.800900
H -2.334600 -16.791900 -30.775000
C -2.189400 -17.293100 -29.981400
C -1.749200 -18.775000 -27.658800
H -1.601400 -19.282600 -26.869700
C -1.038600 -18.048300 -29.845100
C -0.792800 -18.771900 -28.678600
H -0.407800 -18.074400 -30.555100
N 0.418400 -19.505900 -28.655700
N 0.891400 -19.728100 -27.499900
H 1.012500 -23.386600 -30.619800
O 1.471900 -21.960400 -29.288900
C 1.789400 -23.137600 -30.076900
H 2.021000 -23.878500 -29.478700
C 2.075000 -20.505500 -27.524400
C 2.395500 -21.560700 -28.404800
H 2.549300 -22.942200 -30.664300
O 2.737100 -19.330800 -25.624000
C 3.042800 -20.274700 -26.535600
H 3.304500 -18.439700 -23.928800
N 3.549700 -22.206400 -28.365200
C 3.675100 -19.100700 -24.550200
H 3.838700 -19.941300 -24.073600
N 4.221800 -20.888900 -26.468600
C 4.431600 -21.820900 -27.422900
H 4.518500 -18.765000 -24.919400
N 5.623100 -22.446600 -27.452200
H 5.678300 -23.135700 -27.974300
H 6.255600 -22.277800 -26.883900
