34
Fragment
H -14.207200 -8.012100 -28.448300
H -13.805000 -7.617500 -29.872100
N -13.527500 -7.857600 -29.040300
H -12.846400 -9.476000 -27.109600
C -12.427300 -8.685400 -28.952900
C -12.195000 -9.459500 -27.800900
H -11.618600 -8.213600 -30.775000
C -11.473400 -8.714800 -29.981400
C -11.033200 -10.196700 -27.658800
H -10.885400 -10.704300 -26.869700
C -10.322600 -9.470000 -29.845100
C -10.076800 -10.193600 -28.678600
H -9.691800 -9.496100 -30.555100
N -8.865600 -10.927600 -28.655700
N -8.392600 -11.149800 -27.499900
H -8.271500 -14.808300 -30.619800
O -7.812100 -13.382100 -29.288900
C -7.494600 -14.559300 -30.076900
H -7.263000 -15.300200 -29.478700
C -7.209000 -11.927200 -27.524400
C -6.888500 -12.982400 -28.404800
H -6.734700 -14.363900 -30.664300
O -6.546900 -10.752500 -25.624000
C -6.241200 -11.696400 -26.535600
H -5.979500 -9.861400 -23.928800
N -5.734300 -13.628100 -28.365200
C -5.608900 -10.522400 -24.550200
H -5.445300 -11.363000 -24.073600
N -5.062200 -12.310600 -26.468600
C -4.852400 -13.242600 -27.422900
H -4.765500 -10.186700 -24.919400
N -3.660900 -13.868300 -27.452200
H -3.605700 -14.557400 -27.974300
H -3.028400 -13.699500 -26.883900
34
Fragment
H -12.486900 -3.457100 -25.206600
H -11.909500 -2.599200 -24.116100
N -11.854400 -3.288300 -24.638300
H -10.749800 -6.969900 -27.171100
C -10.662900 -3.914000 -24.667600
N -10.453100 -4.846000 -25.621900
H -10.070000 -5.793600 -28.016900
C -9.906400 -6.634200 -27.540200
N -9.781000 -3.528500 -23.725300
H -9.535800 -7.295200 -28.161700
C -9.274100 -5.460200 -25.554900
O -8.968400 -6.404100 -26.466500
H -8.780600 -2.792700 -21.426200
C -8.626800 -4.174200 -23.685700
C -8.306300 -5.229400 -24.566000
H -8.252300 -1.856400 -22.611800
C -8.020700 -2.597300 -22.013600
O -7.703200 -3.774500 -22.801600
H -7.243800 -2.348300 -21.470600
N -7.122700 -6.006800 -24.590500
N -6.649700 -6.229000 -23.434800
H -5.823500 -7.660500 -21.535400
C -5.438500 -6.963000 -23.411900
C -5.192700 -7.686600 -22.245400
H -4.629900 -6.452300 -25.220800
C -4.482100 -6.959900 -24.431600
C -4.041900 -8.441800 -22.109100
H -3.896700 -8.943000 -21.315400
C -3.320300 -7.697100 -24.289600
C -3.088000 -8.471200 -23.137500
H -2.668900 -7.680600 -24.980900
N -1.987800 -9.299000 -23.050200
H -1.710300 -9.539100 -22.218300
H -1.308100 -9.144500 -23.642100
68
Fragment
H -14.207200 -8.012100 -28.448300
H -13.805000 -7.617500 -29.872100
N -13.527500 -7.857600 -29.040300
H -12.846400 -9.476000 -27.109600
C -12.427300 -8.685400 -28.952900
C -12.195000 -9.459500 -27.800900
H -11.618600 -8.213600 -30.775000
C -11.473400 -8.714800 -29.981400
C -11.033200 -10.196700 -27.658800
H -10.885400 -10.704300 -26.869700
C -10.322600 -9.470000 -29.845100
C -10.076800 -10.193600 -28.678600
H -9.691800 -9.496100 -30.555100
N -8.865600 -10.927600 -28.655700
N -8.392600 -11.149800 -27.499900
H -8.271500 -14.808300 -30.619800
O -7.812100 -13.382100 -29.288900
C -7.494600 -14.559300 -30.076900
H -7.263000 -15.300200 -29.478700
C -7.209000 -11.927200 -27.524400
C -6.888500 -12.982400 -28.404800
H -6.734700 -14.363900 -30.664300
O -6.546900 -10.752500 -25.624000
C -6.241200 -11.696400 -26.535600
H -5.979500 -9.861400 -23.928800
N -5.734300 -13.628100 -28.365200
C -5.608900 -10.522400 -24.550200
H -5.445300 -11.363000 -24.073600
N -5.062200 -12.310600 -26.468600
C -4.852400 -13.242600 -27.422900
H -4.765500 -10.186700 -24.919400
N -3.660900 -13.868300 -27.452200
H -3.605700 -14.557400 -27.974300
H -3.028400 -13.699500 -26.883900
H -12.486900 -3.457100 -25.206600
H -11.909500 -2.599200 -24.116100
N -11.854400 -3.288300 -24.638300
H -10.749800 -6.969900 -27.171100
C -10.662900 -3.914000 -24.667600
N -10.453100 -4.846000 -25.621900
H -10.070000 -5.793600 -28.016900
C -9.906400 -6.634200 -27.540200
N -9.781000 -3.528500 -23.725300
H -9.535800 -7.295200 -28.161700
C -9.274100 -5.460200 -25.554900
O -8.968400 -6.404100 -26.466500
H -8.780600 -2.792700 -21.426200
C -8.626800 -4.174200 -23.685700
C -8.306300 -5.229400 -24.566000
H -8.252300 -1.856400 -22.611800
C -8.020700 -2.597300 -22.013600
O -7.703200 -3.774500 -22.801600
H -7.243800 -2.348300 -21.470600
N -7.122700 -6.006800 -24.590500
N -6.649700 -6.229000 -23.434800
H -5.823500 -7.660500 -21.535400
C -5.438500 -6.963000 -23.411900
C -5.192700 -7.686600 -22.245400
H -4.629900 -6.452300 -25.220800
C -4.482100 -6.959900 -24.431600
C -4.041900 -8.441800 -22.109100
H -3.896700 -8.943000 -21.315400
C -3.320300 -7.697100 -24.289600
C -3.088000 -8.471200 -23.137500
H -2.668900 -7.680600 -24.980900
N -1.987800 -9.299000 -23.050200
H -1.710300 -9.539100 -22.218300
H -1.308100 -9.144500 -23.642100
