34
Fragment
H -14.207200 -8.012100 -28.448300
H -13.805000 -7.617500 -29.872100
N -13.527500 -7.857600 -29.040300
H -12.846400 -9.476000 -27.109600
C -12.427300 -8.685400 -28.952900
C -12.195000 -9.459500 -27.800900
H -11.618600 -8.213600 -30.775000
C -11.473400 -8.714800 -29.981400
C -11.033200 -10.196700 -27.658800
H -10.885400 -10.704300 -26.869700
C -10.322600 -9.470000 -29.845100
C -10.076800 -10.193600 -28.678600
H -9.691800 -9.496100 -30.555100
N -8.865600 -10.927600 -28.655700
N -8.392600 -11.149800 -27.499900
H -8.271500 -14.808300 -30.619800
O -7.812100 -13.382100 -29.288900
C -7.494600 -14.559300 -30.076900
H -7.263000 -15.300200 -29.478700
C -7.209000 -11.927200 -27.524400
C -6.888500 -12.982400 -28.404800
H -6.734700 -14.363900 -30.664300
O -6.546900 -10.752500 -25.624000
C -6.241200 -11.696400 -26.535600
H -5.979500 -9.861400 -23.928800
N -5.734300 -13.628100 -28.365200
C -5.608900 -10.522400 -24.550200
H -5.445300 -11.363000 -24.073600
N -5.062200 -12.310600 -26.468600
C -4.852400 -13.242600 -27.422900
H -4.765500 -10.186700 -24.919400
N -3.660900 -13.868300 -27.452200
H -3.605700 -14.557400 -27.974300
H -3.028400 -13.699500 -26.883900
34
Fragment
H -6.979300 -13.433600 -19.766600
H -6.577100 -13.828200 -21.190400
N -6.299700 -13.588100 -20.358500
H -5.618500 -11.969700 -18.427900
C -5.199400 -12.760400 -20.271200
C -4.967100 -11.986200 -19.119100
H -4.390700 -13.232200 -22.093300
C -4.245500 -12.731000 -21.299600
C -3.805300 -11.249100 -18.977100
H -3.657500 -10.741400 -18.187900
C -3.094700 -11.975700 -21.163300
C -2.848900 -11.252200 -19.996800
H -2.464000 -11.949700 -21.873300
N -1.637700 -10.518100 -19.973900
N -1.164700 -10.295900 -18.818200
H -1.043600 -6.637500 -21.938100
O -0.584200 -8.063600 -20.607200
C -0.266700 -6.886500 -21.395100
H -0.035100 -6.145600 -20.796900
C 0.018900 -9.518600 -18.842700
C 0.339400 -8.463400 -19.723000
H 0.493100 -7.081800 -21.982500
O 0.681000 -10.693300 -16.942200
C 0.986700 -9.749300 -17.853800
H 1.248400 -11.584300 -15.247100
N 1.493600 -7.817700 -19.683400
C 1.619000 -10.923300 -15.868500
H 1.782500 -10.082800 -15.391900
N 2.165600 -9.135100 -17.786800
C 2.375500 -8.203200 -18.741100
H 2.462400 -11.259000 -16.237600
N 3.567000 -7.577500 -18.770500
H 3.622100 -6.888400 -19.292600
H 4.199400 -7.746200 -18.202100
68
Fragment
H -14.207200 -8.012100 -28.448300
H -13.805000 -7.617500 -29.872100
N -13.527500 -7.857600 -29.040300
H -12.846400 -9.476000 -27.109600
C -12.427300 -8.685400 -28.952900
C -12.195000 -9.459500 -27.800900
H -11.618600 -8.213600 -30.775000
C -11.473400 -8.714800 -29.981400
C -11.033200 -10.196700 -27.658800
H -10.885400 -10.704300 -26.869700
C -10.322600 -9.470000 -29.845100
C -10.076800 -10.193600 -28.678600
H -9.691800 -9.496100 -30.555100
N -8.865600 -10.927600 -28.655700
N -8.392600 -11.149800 -27.499900
H -8.271500 -14.808300 -30.619800
O -7.812100 -13.382100 -29.288900
C -7.494600 -14.559300 -30.076900
H -7.263000 -15.300200 -29.478700
C -7.209000 -11.927200 -27.524400
C -6.888500 -12.982400 -28.404800
H -6.734700 -14.363900 -30.664300
O -6.546900 -10.752500 -25.624000
C -6.241200 -11.696400 -26.535600
H -5.979500 -9.861400 -23.928800
N -5.734300 -13.628100 -28.365200
C -5.608900 -10.522400 -24.550200
H -5.445300 -11.363000 -24.073600
N -5.062200 -12.310600 -26.468600
C -4.852400 -13.242600 -27.422900
H -4.765500 -10.186700 -24.919400
N -3.660900 -13.868300 -27.452200
H -3.605700 -14.557400 -27.974300
H -3.028400 -13.699500 -26.883900
H -6.979300 -13.433600 -19.766600
H -6.577100 -13.828200 -21.190400
N -6.299700 -13.588100 -20.358500
H -5.618500 -11.969700 -18.427900
C -5.199400 -12.760400 -20.271200
C -4.967100 -11.986200 -19.119100
H -4.390700 -13.232200 -22.093300
C -4.245500 -12.731000 -21.299600
C -3.805300 -11.249100 -18.977100
H -3.657500 -10.741400 -18.187900
C -3.094700 -11.975700 -21.163300
C -2.848900 -11.252200 -19.996800
H -2.464000 -11.949700 -21.873300
N -1.637700 -10.518100 -19.973900
N -1.164700 -10.295900 -18.818200
H -1.043600 -6.637500 -21.938100
O -0.584200 -8.063600 -20.607200
C -0.266700 -6.886500 -21.395100
H -0.035100 -6.145600 -20.796900
C 0.018900 -9.518600 -18.842700
C 0.339400 -8.463400 -19.723000
H 0.493100 -7.081800 -21.982500
O 0.681000 -10.693300 -16.942200
C 0.986700 -9.749300 -17.853800
H 1.248400 -11.584300 -15.247100
N 1.493600 -7.817700 -19.683400
C 1.619000 -10.923300 -15.868500
H 1.782500 -10.082800 -15.391900
N 2.165600 -9.135100 -17.786800
C 2.375500 -8.203200 -18.741100
H 2.462400 -11.259000 -16.237600
N 3.567000 -7.577500 -18.770500
H 3.622100 -6.888400 -19.292600
H 4.199400 -7.746200 -18.202100
