34
Fragment
H -14.070700 -13.478600 -36.854200
H -14.031600 -15.187400 -40.729000
H -13.866000 -14.083800 -35.505900
N -13.753800 -14.065900 -36.323800
C -13.200400 -15.159300 -36.882100
N -13.110200 -15.153000 -38.220000
C -13.061600 -15.213000 -40.868700
H -12.872600 -15.352800 -41.820300
H -12.837500 -18.106100 -34.212600
N -12.778900 -16.127900 -36.041500
H -12.667600 -14.364000 -40.578700
C -12.569600 -16.228000 -38.779100
O -12.493100 -16.295800 -40.100300
C -12.228500 -17.174500 -36.629100
C -12.092000 -17.335700 -38.022700
C -11.888100 -18.064100 -34.453200
O -11.750100 -18.182700 -35.878800
N -11.553700 -18.556400 -38.462600
H -11.514800 -17.206700 -34.159100
H -11.407500 -18.797000 -34.015900
N -11.211800 -18.610700 -39.683200
H -10.686000 -19.303000 -42.034700
C -10.653100 -19.861000 -40.079100
C -10.442300 -20.007000 -41.444800
H -10.413800 -20.807700 -38.279800
C -10.279300 -20.896000 -39.216100
C -9.883600 -21.161900 -41.956300
H -9.751900 -21.244900 -42.893400
C -9.714500 -22.047200 -39.728300
C -9.508300 -22.211800 -41.109400
H -9.459600 -22.744100 -39.134700
N -9.018600 -23.406000 -41.630300
H -8.612200 -23.326300 -42.459900
H -8.544000 -23.848900 -41.065700
34
Fragment
H -17.861300 -13.478600 -35.014300
H -17.822200 -15.187400 -31.139500
H -17.656600 -14.083800 -36.362600
N -17.544400 -14.065900 -35.544700
C -16.991000 -15.159300 -34.986400
N -16.900800 -15.153000 -33.648500
C -16.852200 -15.213000 -30.999800
H -16.663200 -15.352800 -30.048200
H -16.628100 -18.106100 -37.655900
N -16.569500 -16.127900 -35.827000
H -16.458200 -14.364000 -31.289800
C -16.360200 -16.228000 -33.089400
O -16.283700 -16.295800 -31.768200
C -16.019100 -17.174500 -35.239400
C -15.882600 -17.335700 -33.845800
C -15.678700 -18.064100 -37.415300
O -15.540700 -18.182700 -35.989700
N -15.344300 -18.556400 -33.405900
H -15.305400 -17.206700 -37.709400
H -15.198100 -18.797000 -37.852600
N -15.002400 -18.610700 -32.185300
H -14.476600 -19.303000 -29.833800
C -14.443700 -19.861000 -31.789400
C -14.232900 -20.007000 -30.423700
H -14.204400 -20.807700 -33.588700
C -14.069900 -20.896000 -32.652400
C -13.674200 -21.161900 -29.912200
H -13.542500 -21.244900 -28.975100
C -13.505100 -22.047200 -32.140200
C -13.298900 -22.211800 -30.759100
H -13.250200 -22.744100 -32.733800
N -12.809200 -23.406000 -30.238200
H -12.402800 -23.326300 -29.408600
H -12.334600 -23.848900 -30.802800
68
Fragment
H -14.070700 -13.478600 -36.854200
H -14.031600 -15.187400 -40.729000
H -13.866000 -14.083800 -35.505900
N -13.753800 -14.065900 -36.323800
C -13.200400 -15.159300 -36.882100
N -13.110200 -15.153000 -38.220000
C -13.061600 -15.213000 -40.868700
H -12.872600 -15.352800 -41.820300
H -12.837500 -18.106100 -34.212600
N -12.778900 -16.127900 -36.041500
H -12.667600 -14.364000 -40.578700
C -12.569600 -16.228000 -38.779100
O -12.493100 -16.295800 -40.100300
C -12.228500 -17.174500 -36.629100
C -12.092000 -17.335700 -38.022700
C -11.888100 -18.064100 -34.453200
O -11.750100 -18.182700 -35.878800
N -11.553700 -18.556400 -38.462600
H -11.514800 -17.206700 -34.159100
H -11.407500 -18.797000 -34.015900
N -11.211800 -18.610700 -39.683200
H -10.686000 -19.303000 -42.034700
C -10.653100 -19.861000 -40.079100
C -10.442300 -20.007000 -41.444800
H -10.413800 -20.807700 -38.279800
C -10.279300 -20.896000 -39.216100
C -9.883600 -21.161900 -41.956300
H -9.751900 -21.244900 -42.893400
C -9.714500 -22.047200 -39.728300
C -9.508300 -22.211800 -41.109400
H -9.459600 -22.744100 -39.134700
N -9.018600 -23.406000 -41.630300
H -8.612200 -23.326300 -42.459900
H -8.544000 -23.848900 -41.065700
H -17.861300 -13.478600 -35.014300
H -17.822200 -15.187400 -31.139500
H -17.656600 -14.083800 -36.362600
N -17.544400 -14.065900 -35.544700
C -16.991000 -15.159300 -34.986400
N -16.900800 -15.153000 -33.648500
C -16.852200 -15.213000 -30.999800
H -16.663200 -15.352800 -30.048200
H -16.628100 -18.106100 -37.655900
N -16.569500 -16.127900 -35.827000
H -16.458200 -14.364000 -31.289800
C -16.360200 -16.228000 -33.089400
O -16.283700 -16.295800 -31.768200
C -16.019100 -17.174500 -35.239400
C -15.882600 -17.335700 -33.845800
C -15.678700 -18.064100 -37.415300
O -15.540700 -18.182700 -35.989700
N -15.344300 -18.556400 -33.405900
H -15.305400 -17.206700 -37.709400
H -15.198100 -18.797000 -37.852600
N -15.002400 -18.610700 -32.185300
H -14.476600 -19.303000 -29.833800
C -14.443700 -19.861000 -31.789400
C -14.232900 -20.007000 -30.423700
H -14.204400 -20.807700 -33.588700
C -14.069900 -20.896000 -32.652400
C -13.674200 -21.161900 -29.912200
H -13.542500 -21.244900 -28.975100
C -13.505100 -22.047200 -32.140200
C -13.298900 -22.211800 -30.759100
H -13.250200 -22.744100 -32.733800
N -12.809200 -23.406000 -30.238200
H -12.402800 -23.326300 -29.408600
H -12.334600 -23.848900 -30.802800
