31
Fragment
H -14.354600 -30.733200 -29.108100
H -14.180400 -28.676800 -28.009900
C -13.539400 -30.290000 -29.037400
C -13.423900 -29.071500 -28.379000
H -12.981200 -32.594200 -30.283700
C -12.375300 -30.813700 -29.579700
N -12.233400 -32.037500 -30.285700
C -12.200300 -28.437100 -28.265100
H -12.149000 -27.629400 -27.802600
C -11.148800 -30.193400 -29.484000
C -11.039600 -28.976900 -28.823300
C -10.953200 -32.257800 -30.657300
O -10.533000 -33.225200 -31.288900
N -10.488000 -28.944600 -33.038200
H -10.222800 -28.537800 -28.757200
H -10.190200 -32.487400 -26.018600
O -10.162000 -32.294100 -27.066700
C -10.086100 -31.069500 -30.147000
C -10.012800 -29.611300 -32.249900
C -9.333400 -30.421000 -31.324900
C -9.062000 -32.098700 -27.925600
C -9.037900 -31.603200 -29.212900
C -8.003200 -30.596200 -31.564100
H -7.974000 -29.828800 -33.464200
H -7.796400 -33.129900 -26.893500
N -7.781100 -32.449200 -27.608900
C -7.703400 -31.708000 -29.547800
N -7.319900 -30.084600 -32.602100
O -7.154000 -31.289400 -30.740700
N -6.913300 -32.231600 -28.652400
H -6.674500 -30.282000 -32.632600
31
Fragment
H -20.892500 -25.625400 -34.642100
H -20.328300 -26.737200 -34.350500
N -20.176700 -26.080400 -34.386300
O -18.984700 -24.304700 -33.787100
C -18.932700 -25.593200 -34.266200
N -17.979300 -28.640500 -35.469200
C -17.904000 -27.581100 -35.079600
C -17.792100 -26.235700 -34.582900
C -17.756900 -23.701900 -33.600900
N -17.742500 -22.476100 -33.132100
C -16.537900 -24.278000 -33.890300
C -16.379800 -25.693900 -34.384700
N -16.370300 -22.254000 -33.092000
H -16.359600 -26.570000 -31.689400
H -15.978900 -21.496500 -33.040500
O -15.831100 -25.129900 -36.766500
C -15.670200 -26.928500 -32.199800
C -15.655100 -23.283000 -33.553100
C -15.586200 -25.736200 -35.744900
C -15.515600 -26.574000 -33.514400
H -14.858000 -28.110800 -30.757600
C -14.760900 -27.844900 -31.643800
N -14.530700 -26.582300 -35.554400
C -14.480700 -27.101700 -34.245700
O -14.240800 -23.271300 -33.567500
H -14.142200 -26.821800 -36.143600
H -13.844300 -22.223600 -33.637400
C -13.732600 -28.348500 -32.398000
C -13.590500 -27.996000 -33.717100
H -13.124500 -28.936600 -32.010700
H -12.908200 -28.354500 -34.236600
62
Fragment
H -14.354600 -30.733200 -29.108100
H -14.180400 -28.676800 -28.009900
C -13.539400 -30.290000 -29.037400
C -13.423900 -29.071500 -28.379000
H -12.981200 -32.594200 -30.283700
C -12.375300 -30.813700 -29.579700
N -12.233400 -32.037500 -30.285700
C -12.200300 -28.437100 -28.265100
H -12.149000 -27.629400 -27.802600
C -11.148800 -30.193400 -29.484000
C -11.039600 -28.976900 -28.823300
C -10.953200 -32.257800 -30.657300
O -10.533000 -33.225200 -31.288900
N -10.488000 -28.944600 -33.038200
H -10.222800 -28.537800 -28.757200
H -10.190200 -32.487400 -26.018600
O -10.162000 -32.294100 -27.066700
C -10.086100 -31.069500 -30.147000
C -10.012800 -29.611300 -32.249900
C -9.333400 -30.421000 -31.324900
C -9.062000 -32.098700 -27.925600
C -9.037900 -31.603200 -29.212900
C -8.003200 -30.596200 -31.564100
H -7.974000 -29.828800 -33.464200
H -7.796400 -33.129900 -26.893500
N -7.781100 -32.449200 -27.608900
C -7.703400 -31.708000 -29.547800
N -7.319900 -30.084600 -32.602100
O -7.154000 -31.289400 -30.740700
N -6.913300 -32.231600 -28.652400
H -6.674500 -30.282000 -32.632600
H -20.892500 -25.625400 -34.642100
H -20.328300 -26.737200 -34.350500
N -20.176700 -26.080400 -34.386300
O -18.984700 -24.304700 -33.787100
C -18.932700 -25.593200 -34.266200
N -17.979300 -28.640500 -35.469200
C -17.904000 -27.581100 -35.079600
C -17.792100 -26.235700 -34.582900
C -17.756900 -23.701900 -33.600900
N -17.742500 -22.476100 -33.132100
C -16.537900 -24.278000 -33.890300
C -16.379800 -25.693900 -34.384700
N -16.370300 -22.254000 -33.092000
H -16.359600 -26.570000 -31.689400
H -15.978900 -21.496500 -33.040500
O -15.831100 -25.129900 -36.766500
C -15.670200 -26.928500 -32.199800
C -15.655100 -23.283000 -33.553100
C -15.586200 -25.736200 -35.744900
C -15.515600 -26.574000 -33.514400
H -14.858000 -28.110800 -30.757600
C -14.760900 -27.844900 -31.643800
N -14.530700 -26.582300 -35.554400
C -14.480700 -27.101700 -34.245700
O -14.240800 -23.271300 -33.567500
H -14.142200 -26.821800 -36.143600
H -13.844300 -22.223600 -33.637400
C -13.732600 -28.348500 -32.398000
C -13.590500 -27.996000 -33.717100
H -13.124500 -28.936600 -32.010700
H -12.908200 -28.354500 -34.236600
