31
Fragment
H -14.354600 -30.733200 -29.108100
H -14.180400 -28.676800 -28.009900
C -13.539400 -30.290000 -29.037400
C -13.423900 -29.071500 -28.379000
H -12.981200 -32.594200 -30.283700
C -12.375300 -30.813700 -29.579700
N -12.233400 -32.037500 -30.285700
C -12.200300 -28.437100 -28.265100
H -12.149000 -27.629400 -27.802600
C -11.148800 -30.193400 -29.484000
C -11.039600 -28.976900 -28.823300
C -10.953200 -32.257800 -30.657300
O -10.533000 -33.225200 -31.288900
N -10.488000 -28.944600 -33.038200
H -10.222800 -28.537800 -28.757200
H -10.190200 -32.487400 -26.018600
O -10.162000 -32.294100 -27.066700
C -10.086100 -31.069500 -30.147000
C -10.012800 -29.611300 -32.249900
C -9.333400 -30.421000 -31.324900
C -9.062000 -32.098700 -27.925600
C -9.037900 -31.603200 -29.212900
C -8.003200 -30.596200 -31.564100
H -7.974000 -29.828800 -33.464200
H -7.796400 -33.129900 -26.893500
N -7.781100 -32.449200 -27.608900
C -7.703400 -31.708000 -29.547800
N -7.319900 -30.084600 -32.602100
O -7.154000 -31.289400 -30.740700
N -6.913300 -32.231600 -28.652400
H -6.674500 -30.282000 -32.632600
31
Fragment
H -6.008400 -30.141000 -35.717500
N -5.769600 -28.191400 -39.697800
O -5.528800 -29.133600 -37.609500
N -5.363000 -30.338400 -35.748000
C -4.979500 -28.715000 -38.802400
N -4.901800 -27.973800 -40.741300
H -4.886500 -27.293100 -41.456700
H -4.708900 -30.594200 -34.885900
C -4.679700 -29.826800 -36.786100
C -3.644900 -28.819800 -39.137300
C -3.620900 -28.324300 -40.424600
C -3.349500 -30.002000 -37.025300
C -2.670100 -30.811700 -36.100300
C -2.596800 -29.353500 -38.203200
O -2.520900 -28.128900 -41.283500
H -2.492600 -27.935600 -42.331500
H -2.460100 -31.885200 -39.593000
N -2.194900 -31.478400 -35.312000
O -2.149900 -27.197800 -37.061300
C -1.729700 -28.165200 -37.692800
C -1.643300 -31.446100 -39.526900
C -1.534100 -30.229600 -38.866200
H -0.533800 -32.793600 -40.547600
C -0.482500 -31.985900 -40.085100
N -0.449500 -28.385500 -38.064400
C -0.307600 -29.609300 -38.770500
H 0.298300 -27.828800 -38.066500
C 0.741000 -31.351500 -39.971200
C 0.856500 -30.133000 -39.312700
H 1.497500 -31.746200 -40.340300
H 1.671800 -29.689800 -39.242100
62
Fragment
H -14.354600 -30.733200 -29.108100
H -14.180400 -28.676800 -28.009900
C -13.539400 -30.290000 -29.037400
C -13.423900 -29.071500 -28.379000
H -12.981200 -32.594200 -30.283700
C -12.375300 -30.813700 -29.579700
N -12.233400 -32.037500 -30.285700
C -12.200300 -28.437100 -28.265100
H -12.149000 -27.629400 -27.802600
C -11.148800 -30.193400 -29.484000
C -11.039600 -28.976900 -28.823300
C -10.953200 -32.257800 -30.657300
O -10.533000 -33.225200 -31.288900
N -10.488000 -28.944600 -33.038200
H -10.222800 -28.537800 -28.757200
H -10.190200 -32.487400 -26.018600
O -10.162000 -32.294100 -27.066700
C -10.086100 -31.069500 -30.147000
C -10.012800 -29.611300 -32.249900
C -9.333400 -30.421000 -31.324900
C -9.062000 -32.098700 -27.925600
C -9.037900 -31.603200 -29.212900
C -8.003200 -30.596200 -31.564100
H -7.974000 -29.828800 -33.464200
H -7.796400 -33.129900 -26.893500
N -7.781100 -32.449200 -27.608900
C -7.703400 -31.708000 -29.547800
N -7.319900 -30.084600 -32.602100
O -7.154000 -31.289400 -30.740700
N -6.913300 -32.231600 -28.652400
H -6.674500 -30.282000 -32.632600
H -6.008400 -30.141000 -35.717500
N -5.769600 -28.191400 -39.697800
O -5.528800 -29.133600 -37.609500
N -5.363000 -30.338400 -35.748000
C -4.979500 -28.715000 -38.802400
N -4.901800 -27.973800 -40.741300
H -4.886500 -27.293100 -41.456700
H -4.708900 -30.594200 -34.885900
C -4.679700 -29.826800 -36.786100
C -3.644900 -28.819800 -39.137300
C -3.620900 -28.324300 -40.424600
C -3.349500 -30.002000 -37.025300
C -2.670100 -30.811700 -36.100300
C -2.596800 -29.353500 -38.203200
O -2.520900 -28.128900 -41.283500
H -2.492600 -27.935600 -42.331500
H -2.460100 -31.885200 -39.593000
N -2.194900 -31.478400 -35.312000
O -2.149900 -27.197800 -37.061300
C -1.729700 -28.165200 -37.692800
C -1.643300 -31.446100 -39.526900
C -1.534100 -30.229600 -38.866200
H -0.533800 -32.793600 -40.547600
C -0.482500 -31.985900 -40.085100
N -0.449500 -28.385500 -38.064400
C -0.307600 -29.609300 -38.770500
H 0.298300 -27.828800 -38.066500
C 0.741000 -31.351500 -39.971200
C 0.856500 -30.133000 -39.312700
H 1.497500 -31.746200 -40.340300
H 1.671800 -29.689800 -39.242100
