31
Fragment
H -14.354600 -30.733200 -29.108100
H -14.180400 -28.676800 -28.009900
C -13.539400 -30.290000 -29.037400
C -13.423900 -29.071500 -28.379000
H -12.981200 -32.594200 -30.283700
C -12.375300 -30.813700 -29.579700
N -12.233400 -32.037500 -30.285700
C -12.200300 -28.437100 -28.265100
H -12.149000 -27.629400 -27.802600
C -11.148800 -30.193400 -29.484000
C -11.039600 -28.976900 -28.823300
C -10.953200 -32.257800 -30.657300
O -10.533000 -33.225200 -31.288900
N -10.488000 -28.944600 -33.038200
H -10.222800 -28.537800 -28.757200
H -10.190200 -32.487400 -26.018600
O -10.162000 -32.294100 -27.066700
C -10.086100 -31.069500 -30.147000
C -10.012800 -29.611300 -32.249900
C -9.333400 -30.421000 -31.324900
C -9.062000 -32.098700 -27.925600
C -9.037900 -31.603200 -29.212900
C -8.003200 -30.596200 -31.564100
H -7.974000 -29.828800 -33.464200
H -7.796400 -33.129900 -26.893500
N -7.781100 -32.449200 -27.608900
C -7.703400 -31.708000 -29.547800
N -7.319900 -30.084600 -32.602100
O -7.154000 -31.289400 -30.740700
N -6.913300 -32.231600 -28.652400
H -6.674500 -30.282000 -32.632600
9
Fragment
H -12.964700 -25.609300 -31.037800
H -12.786200 -23.579100 -32.072200
O -12.256000 -23.860800 -31.438800
C -12.178000 -25.234700 -31.463900
H -12.164300 -25.536800 -32.386600
H -11.087100 -25.552900 -29.848500
C -11.002900 -25.714000 -30.791800
H -10.906500 -26.654600 -30.949000
H -10.231100 -25.250800 -31.126700
40
Fragment
H -14.354600 -30.733200 -29.108100
H -14.180400 -28.676800 -28.009900
C -13.539400 -30.290000 -29.037400
C -13.423900 -29.071500 -28.379000
H -12.981200 -32.594200 -30.283700
C -12.375300 -30.813700 -29.579700
N -12.233400 -32.037500 -30.285700
C -12.200300 -28.437100 -28.265100
H -12.149000 -27.629400 -27.802600
C -11.148800 -30.193400 -29.484000
C -11.039600 -28.976900 -28.823300
C -10.953200 -32.257800 -30.657300
O -10.533000 -33.225200 -31.288900
N -10.488000 -28.944600 -33.038200
H -10.222800 -28.537800 -28.757200
H -10.190200 -32.487400 -26.018600
O -10.162000 -32.294100 -27.066700
C -10.086100 -31.069500 -30.147000
C -10.012800 -29.611300 -32.249900
C -9.333400 -30.421000 -31.324900
C -9.062000 -32.098700 -27.925600
C -9.037900 -31.603200 -29.212900
C -8.003200 -30.596200 -31.564100
H -7.974000 -29.828800 -33.464200
H -7.796400 -33.129900 -26.893500
N -7.781100 -32.449200 -27.608900
C -7.703400 -31.708000 -29.547800
N -7.319900 -30.084600 -32.602100
O -7.154000 -31.289400 -30.740700
N -6.913300 -32.231600 -28.652400
H -6.674500 -30.282000 -32.632600
H -12.964700 -25.609300 -31.037800
H -12.786200 -23.579100 -32.072200
O -12.256000 -23.860800 -31.438800
C -12.178000 -25.234700 -31.463900
H -12.164300 -25.536800 -32.386600
H -11.087100 -25.552900 -29.848500
C -11.002900 -25.714000 -30.791800
H -10.906500 -26.654600 -30.949000
H -10.231100 -25.250800 -31.126700
