31
Fragment
H -14.354600 -30.733200 -29.108100
H -14.180400 -28.676800 -28.009900
C -13.539400 -30.290000 -29.037400
C -13.423900 -29.071500 -28.379000
H -12.981200 -32.594200 -30.283700
C -12.375300 -30.813700 -29.579700
N -12.233400 -32.037500 -30.285700
C -12.200300 -28.437100 -28.265100
H -12.149000 -27.629400 -27.802600
C -11.148800 -30.193400 -29.484000
C -11.039600 -28.976900 -28.823300
C -10.953200 -32.257800 -30.657300
O -10.533000 -33.225200 -31.288900
N -10.488000 -28.944600 -33.038200
H -10.222800 -28.537800 -28.757200
H -10.190200 -32.487400 -26.018600
O -10.162000 -32.294100 -27.066700
C -10.086100 -31.069500 -30.147000
C -10.012800 -29.611300 -32.249900
C -9.333400 -30.421000 -31.324900
C -9.062000 -32.098700 -27.925600
C -9.037900 -31.603200 -29.212900
C -8.003200 -30.596200 -31.564100
H -7.974000 -29.828800 -33.464200
H -7.796400 -33.129900 -26.893500
N -7.781100 -32.449200 -27.608900
C -7.703400 -31.708000 -29.547800
N -7.319900 -30.084600 -32.602100
O -7.154000 -31.289400 -30.740700
N -6.913300 -32.231600 -28.652400
H -6.674500 -30.282000 -32.632600
9
Fragment
H -15.212600 -34.791600 -28.173900
H -15.093200 -33.472300 -29.654900
O -14.405300 -33.830400 -29.688400
C -14.320500 -34.519700 -28.440500
H -14.204400 -32.892300 -27.260300
H -13.792000 -35.323300 -28.561300
H -13.771200 -34.209500 -26.529000
C -13.722200 -33.718000 -27.351500
H -12.804500 -33.530700 -27.558800
40
Fragment
H -14.354600 -30.733200 -29.108100
H -14.180400 -28.676800 -28.009900
C -13.539400 -30.290000 -29.037400
C -13.423900 -29.071500 -28.379000
H -12.981200 -32.594200 -30.283700
C -12.375300 -30.813700 -29.579700
N -12.233400 -32.037500 -30.285700
C -12.200300 -28.437100 -28.265100
H -12.149000 -27.629400 -27.802600
C -11.148800 -30.193400 -29.484000
C -11.039600 -28.976900 -28.823300
C -10.953200 -32.257800 -30.657300
O -10.533000 -33.225200 -31.288900
N -10.488000 -28.944600 -33.038200
H -10.222800 -28.537800 -28.757200
H -10.190200 -32.487400 -26.018600
O -10.162000 -32.294100 -27.066700
C -10.086100 -31.069500 -30.147000
C -10.012800 -29.611300 -32.249900
C -9.333400 -30.421000 -31.324900
C -9.062000 -32.098700 -27.925600
C -9.037900 -31.603200 -29.212900
C -8.003200 -30.596200 -31.564100
H -7.974000 -29.828800 -33.464200
H -7.796400 -33.129900 -26.893500
N -7.781100 -32.449200 -27.608900
C -7.703400 -31.708000 -29.547800
N -7.319900 -30.084600 -32.602100
O -7.154000 -31.289400 -30.740700
N -6.913300 -32.231600 -28.652400
H -6.674500 -30.282000 -32.632600
H -15.212600 -34.791600 -28.173900
H -15.093200 -33.472300 -29.654900
O -14.405300 -33.830400 -29.688400
C -14.320500 -34.519700 -28.440500
H -14.204400 -32.892300 -27.260300
H -13.792000 -35.323300 -28.561300
H -13.771200 -34.209500 -26.529000
C -13.722200 -33.718000 -27.351500
H -12.804500 -33.530700 -27.558800
