23
Fragment
O -30.976900 -7.572600 -19.773700
C -29.794200 -7.653300 -19.993900
H -29.727000 -7.665700 -21.923000
N -29.217600 -7.659500 -21.218100
H -28.784600 -8.589800 -18.484700
C -28.690000 -7.771100 -18.981000
H -28.628000 -6.977200 -18.446500
C -27.824500 -7.733900 -21.164600
N -27.521100 -7.839300 -19.831000
O -27.073300 -7.702900 -22.092300
H -26.572600 -7.119900 -17.624400
N -26.214800 -7.864100 -19.445400
C -25.961700 -7.535400 -18.235300
H -24.705100 -7.907600 -15.720800
C -24.625500 -7.696700 -17.733900
C -24.130700 -7.870300 -16.488100
O -23.597200 -7.647100 -18.633600
C -22.737800 -7.932400 -16.581000
C -22.482000 -7.795900 -17.891700
H -22.047100 -8.087400 -15.932000
O -21.294400 -7.715300 -19.813200
N -21.261200 -7.783500 -18.591600
O -20.228000 -7.876500 -17.942600
23
Fragment
O -30.041500 -7.932400 -26.136400
C -28.858900 -7.851700 -26.356500
H -28.791600 -7.839300 -28.285600
N -28.282200 -7.845500 -27.580700
H -27.849300 -6.915200 -24.847300
C -27.754700 -7.733900 -25.343600
H -27.692600 -8.527800 -24.809100
C -26.889200 -7.771100 -27.527200
N -26.585800 -7.665700 -26.193600
O -26.138000 -7.802100 -28.454900
H -25.637300 -8.385100 -23.987100
N -25.279400 -7.640900 -25.808000
C -25.026400 -7.969600 -24.597900
H -23.769700 -7.597400 -22.083400
C -23.690100 -7.808300 -24.096500
C -23.195400 -7.634700 -22.850700
O -22.661800 -7.857900 -24.996200
C -21.802400 -7.572600 -22.943600
C -21.546600 -7.709100 -24.254300
H -21.111700 -7.417600 -22.294600
O -20.359000 -7.789700 -26.175800
N -20.325900 -7.721500 -24.954200
O -19.292600 -7.628500 -24.305200
46
Fragment
O -30.976900 -7.572600 -19.773700
C -29.794200 -7.653300 -19.993900
H -29.727000 -7.665700 -21.923000
N -29.217600 -7.659500 -21.218100
H -28.784600 -8.589800 -18.484700
C -28.690000 -7.771100 -18.981000
H -28.628000 -6.977200 -18.446500
C -27.824500 -7.733900 -21.164600
N -27.521100 -7.839300 -19.831000
O -27.073300 -7.702900 -22.092300
H -26.572600 -7.119900 -17.624400
N -26.214800 -7.864100 -19.445400
C -25.961700 -7.535400 -18.235300
H -24.705100 -7.907600 -15.720800
C -24.625500 -7.696700 -17.733900
C -24.130700 -7.870300 -16.488100
O -23.597200 -7.647100 -18.633600
C -22.737800 -7.932400 -16.581000
C -22.482000 -7.795900 -17.891700
H -22.047100 -8.087400 -15.932000
O -21.294400 -7.715300 -19.813200
N -21.261200 -7.783500 -18.591600
O -20.228000 -7.876500 -17.942600
O -30.041500 -7.932400 -26.136400
C -28.858900 -7.851700 -26.356500
H -28.791600 -7.839300 -28.285600
N -28.282200 -7.845500 -27.580700
H -27.849300 -6.915200 -24.847300
C -27.754700 -7.733900 -25.343600
H -27.692600 -8.527800 -24.809100
C -26.889200 -7.771100 -27.527200
N -26.585800 -7.665700 -26.193600
O -26.138000 -7.802100 -28.454900
H -25.637300 -8.385100 -23.987100
N -25.279400 -7.640900 -25.808000
C -25.026400 -7.969600 -24.597900
H -23.769700 -7.597400 -22.083400
C -23.690100 -7.808300 -24.096500
C -23.195400 -7.634700 -22.850700
O -22.661800 -7.857900 -24.996200
C -21.802400 -7.572600 -22.943600
C -21.546600 -7.709100 -24.254300
H -21.111700 -7.417600 -22.294600
O -20.359000 -7.789700 -26.175800
N -20.325900 -7.721500 -24.954200
O -19.292600 -7.628500 -24.305200
