23
Fragment
O -30.976900 -7.572600 -19.773700
C -29.794200 -7.653300 -19.993900
H -29.727000 -7.665700 -21.923000
N -29.217600 -7.659500 -21.218100
H -28.784600 -8.589800 -18.484700
C -28.690000 -7.771100 -18.981000
H -28.628000 -6.977200 -18.446500
C -27.824500 -7.733900 -21.164600
N -27.521100 -7.839300 -19.831000
O -27.073300 -7.702900 -22.092300
H -26.572600 -7.119900 -17.624400
N -26.214800 -7.864100 -19.445400
C -25.961700 -7.535400 -18.235300
H -24.705100 -7.907600 -15.720800
C -24.625500 -7.696700 -17.733900
C -24.130700 -7.870300 -16.488100
O -23.597200 -7.647100 -18.633600
C -22.737800 -7.932400 -16.581000
C -22.482000 -7.795900 -17.891700
H -22.047100 -8.087400 -15.932000
O -21.294400 -7.715300 -19.813200
N -21.261200 -7.783500 -18.591600
O -20.228000 -7.876500 -17.942600
12
Fragment
H -18.714300 -8.192800 -15.299500
H -18.417900 -7.988200 -13.109500
H -18.178700 -10.289100 -14.074100
H -17.866800 -6.716800 -13.841200
C -17.856300 -8.453300 -14.954700
O -17.806000 -9.836400 -14.646700
C -17.757600 -7.665700 -13.725400
H -17.388700 -8.577400 -16.872400
C -17.085500 -8.062600 -16.114000
H -17.013100 -7.138500 -16.360800
H -16.880100 -7.845500 -13.378000
H -16.227600 -8.385100 -15.817500
35
Fragment
O -30.976900 -7.572600 -19.773700
C -29.794200 -7.653300 -19.993900
H -29.727000 -7.665700 -21.923000
N -29.217600 -7.659500 -21.218100
H -28.784600 -8.589800 -18.484700
C -28.690000 -7.771100 -18.981000
H -28.628000 -6.977200 -18.446500
C -27.824500 -7.733900 -21.164600
N -27.521100 -7.839300 -19.831000
O -27.073300 -7.702900 -22.092300
H -26.572600 -7.119900 -17.624400
N -26.214800 -7.864100 -19.445400
C -25.961700 -7.535400 -18.235300
H -24.705100 -7.907600 -15.720800
C -24.625500 -7.696700 -17.733900
C -24.130700 -7.870300 -16.488100
O -23.597200 -7.647100 -18.633600
C -22.737800 -7.932400 -16.581000
C -22.482000 -7.795900 -17.891700
H -22.047100 -8.087400 -15.932000
O -21.294400 -7.715300 -19.813200
N -21.261200 -7.783500 -18.591600
O -20.228000 -7.876500 -17.942600
H -18.714300 -8.192800 -15.299500
H -18.417900 -7.988200 -13.109500
H -18.178700 -10.289100 -14.074100
H -17.866800 -6.716800 -13.841200
C -17.856300 -8.453300 -14.954700
O -17.806000 -9.836400 -14.646700
C -17.757600 -7.665700 -13.725400
H -17.388700 -8.577400 -16.872400
C -17.085500 -8.062600 -16.114000
H -17.013100 -7.138500 -16.360800
H -16.880100 -7.845500 -13.378000
H -16.227600 -8.385100 -15.817500
