33
Fragment
O -10.272200 -9.063700 -17.912900
H -9.410900 -10.871600 -16.549500
N -9.345900 -8.422100 -17.426700
O -9.158800 -7.228700 -17.656900
C -8.656900 -10.437400 -16.220900
C -8.412600 -9.118000 -16.534700
H -7.917000 -11.989800 -15.177100
O -7.778800 -17.166000 -13.078700
C -7.757500 -11.102900 -15.406800
C -7.308300 -8.442900 -16.055700
H -7.171700 -7.547900 -16.268100
C -6.712000 -17.312000 -12.530800
H -6.698700 -19.223200 -11.917900
C -6.619600 -10.465600 -14.927300
C -6.409300 -9.120800 -15.254800
N -6.257900 -18.484800 -11.915100
O -5.945200 -12.478400 -13.787000
N -5.851900 -15.118800 -12.837500
N -5.709900 -16.394300 -12.355700
H -5.657700 -8.679600 -14.930200
C -5.637400 -11.178300 -14.123200
C -5.052900 -18.336200 -11.314400
C -4.866300 -12.960900 -13.088200
C -4.863600 -14.323400 -12.637000
C -4.591900 -16.925600 -11.591700
H -4.456600 -16.428900 -10.769500
O -4.442300 -19.174700 -10.673100
C -4.408700 -10.853300 -13.642900
H -4.117900 -14.642500 -12.182000
H -3.976300 -10.035100 -13.734500
C -3.913300 -12.000000 -12.975900
H -3.772100 -16.916200 -12.110100
H -3.093400 -12.079600 -12.544300
33
Fragment
H -11.553700 -0.879400 -21.147400
H -10.875000 3.957200 -21.581500
C -10.733800 -0.959000 -20.715800
H -10.670800 -2.923900 -19.957100
H -10.529300 1.683600 -21.509700
C -10.238400 -2.105600 -20.048800
O -10.204800 6.215700 -23.018600
H -10.190500 3.470000 -22.922100
C -10.055300 3.966600 -22.099900
C -9.783500 1.364500 -21.054700
C -9.780800 0.002000 -20.603500
C -9.594200 5.377200 -22.377200
C -9.009800 -1.780700 -19.568500
H -8.989400 -4.279300 -18.761400
N -8.937200 3.435300 -21.335900
N -8.795200 2.159800 -20.854100
O -8.702000 -0.480600 -19.904700
N -8.389200 5.525800 -21.776600
C -8.237800 -3.838200 -18.436900
C -8.027500 -2.493300 -18.764400
H -7.948400 6.264200 -21.773800
C -7.935100 4.353000 -21.160800
H -7.475500 -5.411100 -17.423500
C -7.338800 -4.516000 -17.636000
C -6.889600 -1.856100 -18.284900
O -6.868400 4.207000 -20.613000
H -6.730100 -0.969200 -18.514600
C -6.234500 -3.841000 -17.156900
C -5.990200 -2.521600 -17.470800
O -5.488300 -5.730300 -16.034800
N -5.301300 -4.536900 -16.265000
H -5.236300 -2.087400 -17.142200
O -4.375000 -3.895300 -15.778800
66
Fragment
O -10.272200 -9.063700 -17.912900
H -9.410900 -10.871600 -16.549500
N -9.345900 -8.422100 -17.426700
O -9.158800 -7.228700 -17.656900
C -8.656900 -10.437400 -16.220900
C -8.412600 -9.118000 -16.534700
H -7.917000 -11.989800 -15.177100
O -7.778800 -17.166000 -13.078700
C -7.757500 -11.102900 -15.406800
C -7.308300 -8.442900 -16.055700
H -7.171700 -7.547900 -16.268100
C -6.712000 -17.312000 -12.530800
H -6.698700 -19.223200 -11.917900
C -6.619600 -10.465600 -14.927300
C -6.409300 -9.120800 -15.254800
N -6.257900 -18.484800 -11.915100
O -5.945200 -12.478400 -13.787000
N -5.851900 -15.118800 -12.837500
N -5.709900 -16.394300 -12.355700
H -5.657700 -8.679600 -14.930200
C -5.637400 -11.178300 -14.123200
C -5.052900 -18.336200 -11.314400
C -4.866300 -12.960900 -13.088200
C -4.863600 -14.323400 -12.637000
C -4.591900 -16.925600 -11.591700
H -4.456600 -16.428900 -10.769500
O -4.442300 -19.174700 -10.673100
C -4.408700 -10.853300 -13.642900
H -4.117900 -14.642500 -12.182000
H -3.976300 -10.035100 -13.734500
C -3.913300 -12.000000 -12.975900
H -3.772100 -16.916200 -12.110100
H -3.093400 -12.079600 -12.544300
H -11.553700 -0.879400 -21.147400
H -10.875000 3.957200 -21.581500
C -10.733800 -0.959000 -20.715800
H -10.670800 -2.923900 -19.957100
H -10.529300 1.683600 -21.509700
C -10.238400 -2.105600 -20.048800
O -10.204800 6.215700 -23.018600
H -10.190500 3.470000 -22.922100
C -10.055300 3.966600 -22.099900
C -9.783500 1.364500 -21.054700
C -9.780800 0.002000 -20.603500
C -9.594200 5.377200 -22.377200
C -9.009800 -1.780700 -19.568500
H -8.989400 -4.279300 -18.761400
N -8.937200 3.435300 -21.335900
N -8.795200 2.159800 -20.854100
O -8.702000 -0.480600 -19.904700
N -8.389200 5.525800 -21.776600
C -8.237800 -3.838200 -18.436900
C -8.027500 -2.493300 -18.764400
H -7.948400 6.264200 -21.773800
C -7.935100 4.353000 -21.160800
H -7.475500 -5.411100 -17.423500
C -7.338800 -4.516000 -17.636000
C -6.889600 -1.856100 -18.284900
O -6.868400 4.207000 -20.613000
H -6.730100 -0.969200 -18.514600
C -6.234500 -3.841000 -17.156900
C -5.990200 -2.521600 -17.470800
O -5.488300 -5.730300 -16.034800
N -5.301300 -4.536900 -16.265000
H -5.236300 -2.087400 -17.142200
O -4.375000 -3.895300 -15.778800
