33
Fragment
O -10.272200 -9.063700 -17.912900
H -9.410900 -10.871600 -16.549500
N -9.345900 -8.422100 -17.426700
O -9.158800 -7.228700 -17.656900
C -8.656900 -10.437400 -16.220900
C -8.412600 -9.118000 -16.534700
H -7.917000 -11.989800 -15.177100
O -7.778800 -17.166000 -13.078700
C -7.757500 -11.102900 -15.406800
C -7.308300 -8.442900 -16.055700
H -7.171700 -7.547900 -16.268100
C -6.712000 -17.312000 -12.530800
H -6.698700 -19.223200 -11.917900
C -6.619600 -10.465600 -14.927300
C -6.409300 -9.120800 -15.254800
N -6.257900 -18.484800 -11.915100
O -5.945200 -12.478400 -13.787000
N -5.851900 -15.118800 -12.837500
N -5.709900 -16.394300 -12.355700
H -5.657700 -8.679600 -14.930200
C -5.637400 -11.178300 -14.123200
C -5.052900 -18.336200 -11.314400
C -4.866300 -12.960900 -13.088200
C -4.863600 -14.323400 -12.637000
C -4.591900 -16.925600 -11.591700
H -4.456600 -16.428900 -10.769500
O -4.442300 -19.174700 -10.673100
C -4.408700 -10.853300 -13.642900
H -4.117900 -14.642500 -12.182000
H -3.976300 -10.035100 -13.734500
C -3.913300 -12.000000 -12.975900
H -3.772100 -16.916200 -12.110100
H -3.093400 -12.079600 -12.544300
33
Fragment
H -3.782100 -10.939500 -9.916800
H -3.103400 -6.102900 -10.351000
C -2.962200 -11.019100 -9.485200
H -2.899200 -12.984000 -8.726600
H -2.757600 -8.376500 -10.279100
C -2.466800 -12.165800 -8.818200
O -2.433200 -3.844400 -11.788000
H -2.418800 -6.590200 -11.691600
C -2.283600 -6.093500 -10.869400
C -2.011800 -8.695600 -9.824200
C -2.009200 -10.058200 -9.372900
C -1.822500 -4.682900 -11.146700
C -1.238100 -11.840800 -8.337900
H -1.217800 -14.339400 -7.530900
N -1.165600 -6.624800 -10.105400
N -1.023500 -7.900300 -9.623600
O -0.930300 -10.540700 -8.674100
N -0.617600 -4.534300 -10.546100
C -0.466100 -13.898300 -7.206300
C -0.255900 -12.553500 -7.533800
H -0.176800 -3.795900 -10.543200
C -0.163500 -5.707100 -9.930300
H 0.296200 -15.471200 -6.193000
C 0.432900 -14.576200 -6.405500
C 0.882100 -11.916200 -7.054400
O 0.903300 -5.853100 -9.382500
H 1.041500 -11.029300 -7.284000
C 1.537100 -13.901100 -5.926400
C 1.781500 -12.581700 -6.240300
O 2.283300 -15.790400 -4.804200
N 2.470400 -14.597000 -5.034400
H 2.535400 -12.147500 -5.911700
O 3.396700 -13.955400 -4.548300
66
Fragment
O -10.272200 -9.063700 -17.912900
H -9.410900 -10.871600 -16.549500
N -9.345900 -8.422100 -17.426700
O -9.158800 -7.228700 -17.656900
C -8.656900 -10.437400 -16.220900
C -8.412600 -9.118000 -16.534700
H -7.917000 -11.989800 -15.177100
O -7.778800 -17.166000 -13.078700
C -7.757500 -11.102900 -15.406800
C -7.308300 -8.442900 -16.055700
H -7.171700 -7.547900 -16.268100
C -6.712000 -17.312000 -12.530800
H -6.698700 -19.223200 -11.917900
C -6.619600 -10.465600 -14.927300
C -6.409300 -9.120800 -15.254800
N -6.257900 -18.484800 -11.915100
O -5.945200 -12.478400 -13.787000
N -5.851900 -15.118800 -12.837500
N -5.709900 -16.394300 -12.355700
H -5.657700 -8.679600 -14.930200
C -5.637400 -11.178300 -14.123200
C -5.052900 -18.336200 -11.314400
C -4.866300 -12.960900 -13.088200
C -4.863600 -14.323400 -12.637000
C -4.591900 -16.925600 -11.591700
H -4.456600 -16.428900 -10.769500
O -4.442300 -19.174700 -10.673100
C -4.408700 -10.853300 -13.642900
H -4.117900 -14.642500 -12.182000
H -3.976300 -10.035100 -13.734500
C -3.913300 -12.000000 -12.975900
H -3.772100 -16.916200 -12.110100
H -3.093400 -12.079600 -12.544300
H -3.782100 -10.939500 -9.916800
H -3.103400 -6.102900 -10.351000
C -2.962200 -11.019100 -9.485200
H -2.899200 -12.984000 -8.726600
H -2.757600 -8.376500 -10.279100
C -2.466800 -12.165800 -8.818200
O -2.433200 -3.844400 -11.788000
H -2.418800 -6.590200 -11.691600
C -2.283600 -6.093500 -10.869400
C -2.011800 -8.695600 -9.824200
C -2.009200 -10.058200 -9.372900
C -1.822500 -4.682900 -11.146700
C -1.238100 -11.840800 -8.337900
H -1.217800 -14.339400 -7.530900
N -1.165600 -6.624800 -10.105400
N -1.023500 -7.900300 -9.623600
O -0.930300 -10.540700 -8.674100
N -0.617600 -4.534300 -10.546100
C -0.466100 -13.898300 -7.206300
C -0.255900 -12.553500 -7.533800
H -0.176800 -3.795900 -10.543200
C -0.163500 -5.707100 -9.930300
H 0.296200 -15.471200 -6.193000
C 0.432900 -14.576200 -6.405500
C 0.882100 -11.916200 -7.054400
O 0.903300 -5.853100 -9.382500
H 1.041500 -11.029300 -7.284000
C 1.537100 -13.901100 -5.926400
C 1.781500 -12.581700 -6.240300
O 2.283300 -15.790400 -4.804200
N 2.470400 -14.597000 -5.034400
H 2.535400 -12.147500 -5.911700
O 3.396700 -13.955400 -4.548300
