33
Fragment
O -10.272200 -9.063700 -17.912900
H -9.410900 -10.871600 -16.549500
N -9.345900 -8.422100 -17.426700
O -9.158800 -7.228700 -17.656900
C -8.656900 -10.437400 -16.220900
C -8.412600 -9.118000 -16.534700
H -7.917000 -11.989800 -15.177100
O -7.778800 -17.166000 -13.078700
C -7.757500 -11.102900 -15.406800
C -7.308300 -8.442900 -16.055700
H -7.171700 -7.547900 -16.268100
C -6.712000 -17.312000 -12.530800
H -6.698700 -19.223200 -11.917900
C -6.619600 -10.465600 -14.927300
C -6.409300 -9.120800 -15.254800
N -6.257900 -18.484800 -11.915100
O -5.945200 -12.478400 -13.787000
N -5.851900 -15.118800 -12.837500
N -5.709900 -16.394300 -12.355700
H -5.657700 -8.679600 -14.930200
C -5.637400 -11.178300 -14.123200
C -5.052900 -18.336200 -11.314400
C -4.866300 -12.960900 -13.088200
C -4.863600 -14.323400 -12.637000
C -4.591900 -16.925600 -11.591700
H -4.456600 -16.428900 -10.769500
O -4.442300 -19.174700 -10.673100
C -4.408700 -10.853300 -13.642900
H -4.117900 -14.642500 -12.182000
H -3.976300 -10.035100 -13.734500
C -3.913300 -12.000000 -12.975900
H -3.772100 -16.916200 -12.110100
H -3.093400 -12.079600 -12.544300
33
Fragment
H -2.048500 -19.567400 -9.916800
H -1.369800 -14.730800 -10.351000
C -1.228600 -19.647000 -9.485200
H -1.165600 -21.611800 -8.726600
H -1.024000 -17.004400 -10.279100
C -0.733200 -20.793600 -8.818200
O -0.699600 -12.472200 -11.788000
H -0.685300 -15.218000 -11.691600
C -0.550000 -14.721300 -10.869400
C -0.278200 -17.323500 -9.824200
C -0.275600 -18.686000 -9.372900
C -0.089000 -13.310800 -11.146700
C 0.495500 -20.468700 -8.337900
H 0.515800 -22.967300 -7.530900
N 0.568000 -15.252700 -10.105400
N 0.710100 -16.528100 -9.623600
O 0.803300 -19.168600 -8.674100
N 1.116000 -13.162200 -10.546100
C 1.267400 -22.526100 -7.206300
C 1.477700 -21.181300 -7.533800
H 1.556800 -12.423700 -10.543200
C 1.570100 -14.335000 -9.930300
H 2.029800 -24.099100 -6.193000
C 2.166500 -23.204000 -6.405500
C 2.615600 -20.544000 -7.054400
O 2.636900 -14.481000 -9.382500
H 2.775100 -19.657100 -7.284000
C 3.270700 -22.529000 -5.926400
C 3.515000 -21.209500 -6.240300
O 4.016900 -24.418300 -4.804200
N 4.204000 -23.224900 -5.034400
H 4.269000 -20.775400 -5.911700
O 5.130300 -22.583300 -4.548300
66
Fragment
O -10.272200 -9.063700 -17.912900
H -9.410900 -10.871600 -16.549500
N -9.345900 -8.422100 -17.426700
O -9.158800 -7.228700 -17.656900
C -8.656900 -10.437400 -16.220900
C -8.412600 -9.118000 -16.534700
H -7.917000 -11.989800 -15.177100
O -7.778800 -17.166000 -13.078700
C -7.757500 -11.102900 -15.406800
C -7.308300 -8.442900 -16.055700
H -7.171700 -7.547900 -16.268100
C -6.712000 -17.312000 -12.530800
H -6.698700 -19.223200 -11.917900
C -6.619600 -10.465600 -14.927300
C -6.409300 -9.120800 -15.254800
N -6.257900 -18.484800 -11.915100
O -5.945200 -12.478400 -13.787000
N -5.851900 -15.118800 -12.837500
N -5.709900 -16.394300 -12.355700
H -5.657700 -8.679600 -14.930200
C -5.637400 -11.178300 -14.123200
C -5.052900 -18.336200 -11.314400
C -4.866300 -12.960900 -13.088200
C -4.863600 -14.323400 -12.637000
C -4.591900 -16.925600 -11.591700
H -4.456600 -16.428900 -10.769500
O -4.442300 -19.174700 -10.673100
C -4.408700 -10.853300 -13.642900
H -4.117900 -14.642500 -12.182000
H -3.976300 -10.035100 -13.734500
C -3.913300 -12.000000 -12.975900
H -3.772100 -16.916200 -12.110100
H -3.093400 -12.079600 -12.544300
H -2.048500 -19.567400 -9.916800
H -1.369800 -14.730800 -10.351000
C -1.228600 -19.647000 -9.485200
H -1.165600 -21.611800 -8.726600
H -1.024000 -17.004400 -10.279100
C -0.733200 -20.793600 -8.818200
O -0.699600 -12.472200 -11.788000
H -0.685300 -15.218000 -11.691600
C -0.550000 -14.721300 -10.869400
C -0.278200 -17.323500 -9.824200
C -0.275600 -18.686000 -9.372900
C -0.089000 -13.310800 -11.146700
C 0.495500 -20.468700 -8.337900
H 0.515800 -22.967300 -7.530900
N 0.568000 -15.252700 -10.105400
N 0.710100 -16.528100 -9.623600
O 0.803300 -19.168600 -8.674100
N 1.116000 -13.162200 -10.546100
C 1.267400 -22.526100 -7.206300
C 1.477700 -21.181300 -7.533800
H 1.556800 -12.423700 -10.543200
C 1.570100 -14.335000 -9.930300
H 2.029800 -24.099100 -6.193000
C 2.166500 -23.204000 -6.405500
C 2.615600 -20.544000 -7.054400
O 2.636900 -14.481000 -9.382500
H 2.775100 -19.657100 -7.284000
C 3.270700 -22.529000 -5.926400
C 3.515000 -21.209500 -6.240300
O 4.016900 -24.418300 -4.804200
N 4.204000 -23.224900 -5.034400
H 4.269000 -20.775400 -5.911700
O 5.130300 -22.583300 -4.548300
