16
Fragment
H -12.429700 -10.819900 -39.624800
H -11.963800 -12.758200 -38.453900
C -11.816800 -10.803300 -38.921700
C -11.534100 -11.943400 -38.196000
H -11.399400 -8.839300 -39.046500
C -11.205600 -9.635500 -38.561700
C -10.617400 -11.924100 -37.161200
H -10.418400 -12.721000 -36.682100
C -10.305700 -9.593800 -37.512700
C -9.993000 -10.732000 -36.787000
H -9.886500 -8.764900 -37.294400
O -9.542200 -9.947400 -34.564300
H -9.173200 -9.190300 -34.507600
C -9.027600 -10.669200 -35.653000
H -8.813900 -11.585400 -35.332600
H -8.187800 -10.236100 -35.928000
16
Fragment
H -12.429700 -17.235900 -39.624800
H -11.963800 -19.174200 -38.453900
C -11.816800 -17.219300 -38.921700
C -11.534100 -18.359400 -38.196000
H -11.399400 -15.255300 -39.046500
C -11.205600 -16.051500 -38.561700
C -10.617400 -18.340100 -37.161200
H -10.418400 -19.137000 -36.682100
C -10.305700 -16.009800 -37.512700
C -9.993000 -17.148000 -36.787000
H -9.886500 -15.180900 -37.294400
O -9.542200 -16.363400 -34.564300
H -9.173200 -15.606300 -34.507600
C -9.027600 -17.085200 -35.653000
H -8.813900 -18.001400 -35.332600
H -8.187800 -16.652100 -35.928000
32
Fragment
H -12.429700 -10.819900 -39.624800
H -11.963800 -12.758200 -38.453900
C -11.816800 -10.803300 -38.921700
C -11.534100 -11.943400 -38.196000
H -11.399400 -8.839300 -39.046500
C -11.205600 -9.635500 -38.561700
C -10.617400 -11.924100 -37.161200
H -10.418400 -12.721000 -36.682100
C -10.305700 -9.593800 -37.512700
C -9.993000 -10.732000 -36.787000
H -9.886500 -8.764900 -37.294400
O -9.542200 -9.947400 -34.564300
H -9.173200 -9.190300 -34.507600
C -9.027600 -10.669200 -35.653000
H -8.813900 -11.585400 -35.332600
H -8.187800 -10.236100 -35.928000
H -12.429700 -17.235900 -39.624800
H -11.963800 -19.174200 -38.453900
C -11.816800 -17.219300 -38.921700
C -11.534100 -18.359400 -38.196000
H -11.399400 -15.255300 -39.046500
C -11.205600 -16.051500 -38.561700
C -10.617400 -18.340100 -37.161200
H -10.418400 -19.137000 -36.682100
C -10.305700 -16.009800 -37.512700
C -9.993000 -17.148000 -36.787000
H -9.886500 -15.180900 -37.294400
O -9.542200 -16.363400 -34.564300
H -9.173200 -15.606300 -34.507600
C -9.027600 -17.085200 -35.653000
H -8.813900 -18.001400 -35.332600
H -8.187800 -16.652100 -35.928000
