33
Fragment
O -10.272200 -9.063700 -17.912900
H -9.410900 -10.871600 -16.549500
N -9.345900 -8.422100 -17.426700
O -9.158800 -7.228700 -17.656900
C -8.656900 -10.437400 -16.220900
C -8.412600 -9.118000 -16.534700
H -7.917000 -11.989800 -15.177100
O -7.778800 -17.166000 -13.078700
C -7.757500 -11.102900 -15.406800
C -7.308300 -8.442900 -16.055700
H -7.171700 -7.547900 -16.268100
C -6.712000 -17.312000 -12.530800
H -6.698700 -19.223200 -11.917900
C -6.619600 -10.465600 -14.927300
C -6.409300 -9.120800 -15.254800
N -6.257900 -18.484800 -11.915100
O -5.945200 -12.478400 -13.787000
N -5.851900 -15.118800 -12.837500
N -5.709900 -16.394300 -12.355700
H -5.657700 -8.679600 -14.930200
C -5.637400 -11.178300 -14.123200
C -5.052900 -18.336200 -11.314400
C -4.866300 -12.960900 -13.088200
C -4.863600 -14.323400 -12.637000
C -4.591900 -16.925600 -11.591700
H -4.456600 -16.428900 -10.769500
O -4.442300 -19.174700 -10.673100
C -4.408700 -10.853300 -13.642900
H -4.117900 -14.642500 -12.182000
H -3.976300 -10.035100 -13.734500
C -3.913300 -12.000000 -12.975900
H -3.772100 -16.916200 -12.110100
H -3.093400 -12.079600 -12.544300
33
Fragment
H -9.820200 -9.507200 -21.147400
H -9.141500 -4.670700 -21.581500
C -9.000300 -9.586900 -20.715800
H -8.937300 -11.551700 -19.957100
H -8.795700 -6.944300 -21.509700
C -8.504900 -10.733500 -20.048800
O -8.471200 -2.412100 -23.018600
H -8.456900 -5.157900 -22.922100
C -8.321700 -4.661200 -22.099900
C -8.049900 -7.263400 -21.054700
C -8.047200 -8.625900 -20.603500
C -7.860600 -3.250700 -22.377200
C -7.276200 -10.408600 -19.568500
H -7.255900 -12.907200 -18.761400
N -7.203700 -5.192600 -21.335900
N -7.061600 -6.468000 -20.854100
O -6.968400 -9.108400 -19.904700
N -6.655600 -3.102100 -21.776600
C -6.504200 -12.466000 -18.436900
C -6.293900 -11.121200 -18.764400
H -6.214900 -2.363600 -21.773800
C -6.201600 -4.274900 -21.160800
H -5.741900 -14.039000 -17.423500
C -5.605200 -13.143900 -17.636000
C -5.156000 -10.483900 -18.284900
O -5.134800 -4.420800 -20.613000
H -4.996500 -9.597000 -18.514600
C -4.500900 -12.468900 -17.156900
C -4.256600 -11.149400 -17.470800
O -3.754800 -14.358200 -16.034800
N -3.567700 -13.164700 -16.265000
H -3.502700 -10.715200 -17.142200
O -2.641400 -12.523100 -15.778800
66
Fragment
O -10.272200 -9.063700 -17.912900
H -9.410900 -10.871600 -16.549500
N -9.345900 -8.422100 -17.426700
O -9.158800 -7.228700 -17.656900
C -8.656900 -10.437400 -16.220900
C -8.412600 -9.118000 -16.534700
H -7.917000 -11.989800 -15.177100
O -7.778800 -17.166000 -13.078700
C -7.757500 -11.102900 -15.406800
C -7.308300 -8.442900 -16.055700
H -7.171700 -7.547900 -16.268100
C -6.712000 -17.312000 -12.530800
H -6.698700 -19.223200 -11.917900
C -6.619600 -10.465600 -14.927300
C -6.409300 -9.120800 -15.254800
N -6.257900 -18.484800 -11.915100
O -5.945200 -12.478400 -13.787000
N -5.851900 -15.118800 -12.837500
N -5.709900 -16.394300 -12.355700
H -5.657700 -8.679600 -14.930200
C -5.637400 -11.178300 -14.123200
C -5.052900 -18.336200 -11.314400
C -4.866300 -12.960900 -13.088200
C -4.863600 -14.323400 -12.637000
C -4.591900 -16.925600 -11.591700
H -4.456600 -16.428900 -10.769500
O -4.442300 -19.174700 -10.673100
C -4.408700 -10.853300 -13.642900
H -4.117900 -14.642500 -12.182000
H -3.976300 -10.035100 -13.734500
C -3.913300 -12.000000 -12.975900
H -3.772100 -16.916200 -12.110100
H -3.093400 -12.079600 -12.544300
H -9.820200 -9.507200 -21.147400
H -9.141500 -4.670700 -21.581500
C -9.000300 -9.586900 -20.715800
H -8.937300 -11.551700 -19.957100
H -8.795700 -6.944300 -21.509700
C -8.504900 -10.733500 -20.048800
O -8.471200 -2.412100 -23.018600
H -8.456900 -5.157900 -22.922100
C -8.321700 -4.661200 -22.099900
C -8.049900 -7.263400 -21.054700
C -8.047200 -8.625900 -20.603500
C -7.860600 -3.250700 -22.377200
C -7.276200 -10.408600 -19.568500
H -7.255900 -12.907200 -18.761400
N -7.203700 -5.192600 -21.335900
N -7.061600 -6.468000 -20.854100
O -6.968400 -9.108400 -19.904700
N -6.655600 -3.102100 -21.776600
C -6.504200 -12.466000 -18.436900
C -6.293900 -11.121200 -18.764400
H -6.214900 -2.363600 -21.773800
C -6.201600 -4.274900 -21.160800
H -5.741900 -14.039000 -17.423500
C -5.605200 -13.143900 -17.636000
C -5.156000 -10.483900 -18.284900
O -5.134800 -4.420800 -20.613000
H -4.996500 -9.597000 -18.514600
C -4.500900 -12.468900 -17.156900
C -4.256600 -11.149400 -17.470800
O -3.754800 -14.358200 -16.034800
N -3.567700 -13.164700 -16.265000
H -3.502700 -10.715200 -17.142200
O -2.641400 -12.523100 -15.778800
