16
Fragment
H -12.429700 -10.819900 -39.624800
H -11.963800 -12.758200 -38.453900
C -11.816800 -10.803300 -38.921700
C -11.534100 -11.943400 -38.196000
H -11.399400 -8.839300 -39.046500
C -11.205600 -9.635500 -38.561700
C -10.617400 -11.924100 -37.161200
H -10.418400 -12.721000 -36.682100
C -10.305700 -9.593800 -37.512700
C -9.993000 -10.732000 -36.787000
H -9.886500 -8.764900 -37.294400
O -9.542200 -9.947400 -34.564300
H -9.173200 -9.190300 -34.507600
C -9.027600 -10.669200 -35.653000
H -8.813900 -11.585400 -35.332600
H -8.187800 -10.236100 -35.928000
23
Fragment
O -13.456400 -11.836900 -26.685900
N -12.510700 -12.311000 -27.318100
O -12.232400 -13.565300 -27.391800
H -12.127600 -9.537400 -27.340700
C -11.692600 -11.399300 -27.990000
C -11.616900 -10.063500 -27.947400
O -10.753000 -11.890800 -28.823400
C -10.615600 -9.725400 -28.857500
H -10.289800 -8.889400 -29.092800
C -10.148000 -10.861000 -29.387600
C -9.151200 -11.114400 -30.419600
N -8.917000 -12.323900 -30.748400
H -8.757600 -10.309400 -30.793800
O -8.244200 -14.803000 -31.820000
N -7.954500 -12.514400 -31.686800
H -7.825000 -10.918100 -32.863300
C -7.727300 -13.784100 -32.168700
C -7.192700 -11.510300 -32.392700
N -6.762100 -13.638500 -33.163800
H -6.616800 -11.079100 -31.791700
C -6.405500 -12.341200 -33.348100
H -6.316500 -14.299300 -33.623100
O -5.605000 -11.953000 -34.173100
39
Fragment
H -12.429700 -10.819900 -39.624800
H -11.963800 -12.758200 -38.453900
C -11.816800 -10.803300 -38.921700
C -11.534100 -11.943400 -38.196000
H -11.399400 -8.839300 -39.046500
C -11.205600 -9.635500 -38.561700
C -10.617400 -11.924100 -37.161200
H -10.418400 -12.721000 -36.682100
C -10.305700 -9.593800 -37.512700
C -9.993000 -10.732000 -36.787000
H -9.886500 -8.764900 -37.294400
O -9.542200 -9.947400 -34.564300
H -9.173200 -9.190300 -34.507600
C -9.027600 -10.669200 -35.653000
H -8.813900 -11.585400 -35.332600
H -8.187800 -10.236100 -35.928000
O -13.456400 -11.836900 -26.685900
N -12.510700 -12.311000 -27.318100
O -12.232400 -13.565300 -27.391800
H -12.127600 -9.537400 -27.340700
C -11.692600 -11.399300 -27.990000
C -11.616900 -10.063500 -27.947400
O -10.753000 -11.890800 -28.823400
C -10.615600 -9.725400 -28.857500
H -10.289800 -8.889400 -29.092800
C -10.148000 -10.861000 -29.387600
C -9.151200 -11.114400 -30.419600
N -8.917000 -12.323900 -30.748400
H -8.757600 -10.309400 -30.793800
O -8.244200 -14.803000 -31.820000
N -7.954500 -12.514400 -31.686800
H -7.825000 -10.918100 -32.863300
C -7.727300 -13.784100 -32.168700
C -7.192700 -11.510300 -32.392700
N -6.762100 -13.638500 -33.163800
H -6.616800 -11.079100 -31.791700
C -6.405500 -12.341200 -33.348100
H -6.316500 -14.299300 -33.623100
O -5.605000 -11.953000 -34.173100
