23
Fragment
O -30.976900 -7.572600 -19.773700
C -29.794200 -7.653300 -19.993900
H -29.727000 -7.665700 -21.923000
N -29.217600 -7.659500 -21.218100
H -28.784600 -8.589800 -18.484700
C -28.690000 -7.771100 -18.981000
H -28.628000 -6.977200 -18.446500
C -27.824500 -7.733900 -21.164600
N -27.521100 -7.839300 -19.831000
O -27.073300 -7.702900 -22.092300
H -26.572600 -7.119900 -17.624400
N -26.214800 -7.864100 -19.445400
C -25.961700 -7.535400 -18.235300
H -24.705100 -7.907600 -15.720800
C -24.625500 -7.696700 -17.733900
C -24.130700 -7.870300 -16.488100
O -23.597200 -7.647100 -18.633600
C -22.737800 -7.932400 -16.581000
C -22.482000 -7.795900 -17.891700
H -22.047100 -8.087400 -15.932000
O -21.294400 -7.715300 -19.813200
N -21.261200 -7.783500 -18.591600
O -20.228000 -7.876500 -17.942600
12
Fragment
H -17.779000 -7.312200 -21.662200
H -17.482500 -7.516800 -19.472100
H -17.243300 -5.215900 -20.436700
H -16.931400 -8.788200 -20.203800
C -16.921000 -7.051700 -21.317300
O -16.870700 -5.668600 -21.009400
C -16.822200 -7.839300 -20.088100
H -16.453300 -6.927600 -23.235000
C -16.150100 -7.442400 -22.476600
H -16.077800 -8.366500 -22.723400
H -15.944700 -7.659500 -19.740700
H -15.292200 -7.119900 -22.180100
35
Fragment
O -30.976900 -7.572600 -19.773700
C -29.794200 -7.653300 -19.993900
H -29.727000 -7.665700 -21.923000
N -29.217600 -7.659500 -21.218100
H -28.784600 -8.589800 -18.484700
C -28.690000 -7.771100 -18.981000
H -28.628000 -6.977200 -18.446500
C -27.824500 -7.733900 -21.164600
N -27.521100 -7.839300 -19.831000
O -27.073300 -7.702900 -22.092300
H -26.572600 -7.119900 -17.624400
N -26.214800 -7.864100 -19.445400
C -25.961700 -7.535400 -18.235300
H -24.705100 -7.907600 -15.720800
C -24.625500 -7.696700 -17.733900
C -24.130700 -7.870300 -16.488100
O -23.597200 -7.647100 -18.633600
C -22.737800 -7.932400 -16.581000
C -22.482000 -7.795900 -17.891700
H -22.047100 -8.087400 -15.932000
O -21.294400 -7.715300 -19.813200
N -21.261200 -7.783500 -18.591600
O -20.228000 -7.876500 -17.942600
H -17.779000 -7.312200 -21.662200
H -17.482500 -7.516800 -19.472100
H -17.243300 -5.215900 -20.436700
H -16.931400 -8.788200 -20.203800
C -16.921000 -7.051700 -21.317300
O -16.870700 -5.668600 -21.009400
C -16.822200 -7.839300 -20.088100
H -16.453300 -6.927600 -23.235000
C -16.150100 -7.442400 -22.476600
H -16.077800 -8.366500 -22.723400
H -15.944700 -7.659500 -19.740700
H -15.292200 -7.119900 -22.180100
