16
Fragment
H -12.429700 -10.819900 -39.624800
H -11.963800 -12.758200 -38.453900
C -11.816800 -10.803300 -38.921700
C -11.534100 -11.943400 -38.196000
H -11.399400 -8.839300 -39.046500
C -11.205600 -9.635500 -38.561700
C -10.617400 -11.924100 -37.161200
H -10.418400 -12.721000 -36.682100
C -10.305700 -9.593800 -37.512700
C -9.993000 -10.732000 -36.787000
H -9.886500 -8.764900 -37.294400
O -9.542200 -9.947400 -34.564300
H -9.173200 -9.190300 -34.507600
C -9.027600 -10.669200 -35.653000
H -8.813900 -11.585400 -35.332600
H -8.187800 -10.236100 -35.928000
16
Fragment
H -12.429700 -4.403900 -39.624800
H -11.963800 -6.342200 -38.453900
C -11.816800 -4.387300 -38.921700
C -11.534100 -5.527400 -38.196000
H -11.399400 -2.423300 -39.046500
C -11.205600 -3.219500 -38.561700
C -10.617400 -5.508100 -37.161200
H -10.418400 -6.305000 -36.682100
C -10.305700 -3.177800 -37.512700
C -9.993000 -4.316000 -36.787000
H -9.886500 -2.348900 -37.294400
O -9.542200 -3.531400 -34.564300
H -9.173200 -2.774300 -34.507600
C -9.027600 -4.253200 -35.653000
H -8.813900 -5.169400 -35.332600
H -8.187800 -3.820100 -35.928000
32
Fragment
H -12.429700 -10.819900 -39.624800
H -11.963800 -12.758200 -38.453900
C -11.816800 -10.803300 -38.921700
C -11.534100 -11.943400 -38.196000
H -11.399400 -8.839300 -39.046500
C -11.205600 -9.635500 -38.561700
C -10.617400 -11.924100 -37.161200
H -10.418400 -12.721000 -36.682100
C -10.305700 -9.593800 -37.512700
C -9.993000 -10.732000 -36.787000
H -9.886500 -8.764900 -37.294400
O -9.542200 -9.947400 -34.564300
H -9.173200 -9.190300 -34.507600
C -9.027600 -10.669200 -35.653000
H -8.813900 -11.585400 -35.332600
H -8.187800 -10.236100 -35.928000
H -12.429700 -4.403900 -39.624800
H -11.963800 -6.342200 -38.453900
C -11.816800 -4.387300 -38.921700
C -11.534100 -5.527400 -38.196000
H -11.399400 -2.423300 -39.046500
C -11.205600 -3.219500 -38.561700
C -10.617400 -5.508100 -37.161200
H -10.418400 -6.305000 -36.682100
C -10.305700 -3.177800 -37.512700
C -9.993000 -4.316000 -36.787000
H -9.886500 -2.348900 -37.294400
O -9.542200 -3.531400 -34.564300
H -9.173200 -2.774300 -34.507600
C -9.027600 -4.253200 -35.653000
H -8.813900 -5.169400 -35.332600
H -8.187800 -3.820100 -35.928000
