16
Fragment
H -12.429700 -10.819900 -39.624800
H -11.963800 -12.758200 -38.453900
C -11.816800 -10.803300 -38.921700
C -11.534100 -11.943400 -38.196000
H -11.399400 -8.839300 -39.046500
C -11.205600 -9.635500 -38.561700
C -10.617400 -11.924100 -37.161200
H -10.418400 -12.721000 -36.682100
C -10.305700 -9.593800 -37.512700
C -9.993000 -10.732000 -36.787000
H -9.886500 -8.764900 -37.294400
O -9.542200 -9.947400 -34.564300
H -9.173200 -9.190300 -34.507600
C -9.027600 -10.669200 -35.653000
H -8.813900 -11.585400 -35.332600
H -8.187800 -10.236100 -35.928000
16
Fragment
H -8.026700 -14.844100 -39.624800
H -7.560800 -12.905800 -38.453900
C -7.413800 -14.860700 -38.921700
C -7.131100 -13.720600 -38.196000
H -6.996400 -16.824700 -39.046500
C -6.802600 -16.028500 -38.561700
C -6.214400 -13.739900 -37.161200
H -6.015400 -12.943000 -36.682100
C -5.902700 -16.070200 -37.512700
C -5.590000 -14.932000 -36.787000
H -5.483500 -16.899100 -37.294400
O -5.139200 -15.716600 -34.564300
H -4.770200 -16.473700 -34.507600
C -4.624600 -14.994800 -35.653000
H -4.410900 -14.078600 -35.332600
H -3.784800 -15.427900 -35.928000
32
Fragment
H -12.429700 -10.819900 -39.624800
H -11.963800 -12.758200 -38.453900
C -11.816800 -10.803300 -38.921700
C -11.534100 -11.943400 -38.196000
H -11.399400 -8.839300 -39.046500
C -11.205600 -9.635500 -38.561700
C -10.617400 -11.924100 -37.161200
H -10.418400 -12.721000 -36.682100
C -10.305700 -9.593800 -37.512700
C -9.993000 -10.732000 -36.787000
H -9.886500 -8.764900 -37.294400
O -9.542200 -9.947400 -34.564300
H -9.173200 -9.190300 -34.507600
C -9.027600 -10.669200 -35.653000
H -8.813900 -11.585400 -35.332600
H -8.187800 -10.236100 -35.928000
H -8.026700 -14.844100 -39.624800
H -7.560800 -12.905800 -38.453900
C -7.413800 -14.860700 -38.921700
C -7.131100 -13.720600 -38.196000
H -6.996400 -16.824700 -39.046500
C -6.802600 -16.028500 -38.561700
C -6.214400 -13.739900 -37.161200
H -6.015400 -12.943000 -36.682100
C -5.902700 -16.070200 -37.512700
C -5.590000 -14.932000 -36.787000
H -5.483500 -16.899100 -37.294400
O -5.139200 -15.716600 -34.564300
H -4.770200 -16.473700 -34.507600
C -4.624600 -14.994800 -35.653000
H -4.410900 -14.078600 -35.332600
H -3.784800 -15.427900 -35.928000
