16
Fragment
H -12.429700 -10.819900 -39.624800
H -11.963800 -12.758200 -38.453900
C -11.816800 -10.803300 -38.921700
C -11.534100 -11.943400 -38.196000
H -11.399400 -8.839300 -39.046500
C -11.205600 -9.635500 -38.561700
C -10.617400 -11.924100 -37.161200
H -10.418400 -12.721000 -36.682100
C -10.305700 -9.593800 -37.512700
C -9.993000 -10.732000 -36.787000
H -9.886500 -8.764900 -37.294400
O -9.542200 -9.947400 -34.564300
H -9.173200 -9.190300 -34.507600
C -9.027600 -10.669200 -35.653000
H -8.813900 -11.585400 -35.332600
H -8.187800 -10.236100 -35.928000
23
Fragment
O -17.859400 -13.827100 -26.685900
N -16.913700 -13.353000 -27.318100
O -16.635400 -12.098700 -27.391800
H -16.530600 -16.126600 -27.340700
C -16.095600 -14.264700 -27.990000
C -16.019900 -15.600500 -27.947400
O -15.156000 -13.773200 -28.823400
C -15.018600 -15.938600 -28.857500
H -14.692800 -16.774600 -29.092800
C -14.551000 -14.803000 -29.387600
C -13.554200 -14.549600 -30.419600
N -13.320000 -13.340100 -30.748400
H -13.160600 -15.354600 -30.793800
O -12.647200 -10.861000 -31.820000
N -12.357500 -13.149600 -31.686800
H -12.228000 -14.745900 -32.863300
C -12.130300 -11.879900 -32.168700
C -11.595700 -14.153700 -32.392700
N -11.165100 -12.025500 -33.163800
H -11.019800 -14.584900 -31.791700
C -10.808500 -13.322800 -33.348100
H -10.719500 -11.364700 -33.623100
O -10.008000 -13.711000 -34.173100
39
Fragment
H -12.429700 -10.819900 -39.624800
H -11.963800 -12.758200 -38.453900
C -11.816800 -10.803300 -38.921700
C -11.534100 -11.943400 -38.196000
H -11.399400 -8.839300 -39.046500
C -11.205600 -9.635500 -38.561700
C -10.617400 -11.924100 -37.161200
H -10.418400 -12.721000 -36.682100
C -10.305700 -9.593800 -37.512700
C -9.993000 -10.732000 -36.787000
H -9.886500 -8.764900 -37.294400
O -9.542200 -9.947400 -34.564300
H -9.173200 -9.190300 -34.507600
C -9.027600 -10.669200 -35.653000
H -8.813900 -11.585400 -35.332600
H -8.187800 -10.236100 -35.928000
O -17.859400 -13.827100 -26.685900
N -16.913700 -13.353000 -27.318100
O -16.635400 -12.098700 -27.391800
H -16.530600 -16.126600 -27.340700
C -16.095600 -14.264700 -27.990000
C -16.019900 -15.600500 -27.947400
O -15.156000 -13.773200 -28.823400
C -15.018600 -15.938600 -28.857500
H -14.692800 -16.774600 -29.092800
C -14.551000 -14.803000 -29.387600
C -13.554200 -14.549600 -30.419600
N -13.320000 -13.340100 -30.748400
H -13.160600 -15.354600 -30.793800
O -12.647200 -10.861000 -31.820000
N -12.357500 -13.149600 -31.686800
H -12.228000 -14.745900 -32.863300
C -12.130300 -11.879900 -32.168700
C -11.595700 -14.153700 -32.392700
N -11.165100 -12.025500 -33.163800
H -11.019800 -14.584900 -31.791700
C -10.808500 -13.322800 -33.348100
H -10.719500 -11.364700 -33.623100
O -10.008000 -13.711000 -34.173100
