33
Fragment
O -7.874200 -12.733200 -57.020700
H -7.166700 -15.135700 -57.394000
C -7.038200 -13.380400 -56.416600
N -6.762400 -14.681300 -56.647400
H -6.661300 -12.599100 -54.544900
C -6.151100 -12.863600 -55.299100
C -5.761300 -15.106900 -55.782800
H -5.597600 -12.143800 -55.577100
N -5.381000 -14.051800 -55.009600
O -5.347400 -16.249400 -55.805700
H -4.610900 -12.379400 -53.661200
N -4.432900 -14.198000 -54.030700
C -4.123400 -13.111300 -53.375500
H -3.340300 -11.172500 -51.379600
C -3.167000 -13.014500 -52.288800
C -2.902300 -12.013400 -51.398600
O -2.382500 -14.086300 -52.011900
C -1.891500 -12.431500 -50.534000
C -1.597900 -13.679300 -50.912200
H -1.496900 -11.938000 -49.821700
H -0.847100 -16.016600 -51.924300
C -0.669000 -14.657100 -50.414000
C -0.409100 -15.849000 -51.099300
H -0.182900 -13.586200 -48.717100
C -0.004800 -14.396400 -49.181800
C 0.462100 -16.761600 -50.590800
H 0.640100 -17.581100 -51.040600
C 0.871200 -15.299600 -48.656200
C 1.078100 -16.463600 -49.383300
H 1.338000 -15.141300 -47.848700
O 1.992600 -18.596100 -49.311300
N 2.002200 -17.460000 -48.828300
O 2.733800 -17.106100 -47.905800
33
Fragment
O -12.687300 -12.733200 -57.020700
H -11.979800 -15.135700 -57.394000
C -11.851300 -13.380400 -56.416600
N -11.575500 -14.681300 -56.647400
H -11.474400 -12.599100 -54.544900
C -10.964200 -12.863600 -55.299100
C -10.574400 -15.106900 -55.782800
H -10.410700 -12.143800 -55.577100
N -10.194100 -14.051800 -55.009600
O -10.160500 -16.249400 -55.805700
H -9.424000 -12.379400 -53.661200
N -9.246000 -14.198000 -54.030700
C -8.936500 -13.111300 -53.375500
H -8.153400 -11.172500 -51.379600
C -7.980100 -13.014500 -52.288800
C -7.715400 -12.013400 -51.398600
O -7.195600 -14.086300 -52.011900
C -6.704600 -12.431500 -50.534000
C -6.411000 -13.679300 -50.912200
H -6.310000 -11.938000 -49.821700
H -5.660200 -16.016600 -51.924300
C -5.482100 -14.657100 -50.414000
C -5.222200 -15.849000 -51.099300
H -4.996000 -13.586200 -48.717100
C -4.817900 -14.396400 -49.181800
C -4.351000 -16.761600 -50.590800
H -4.173000 -17.581100 -51.040600
C -3.941900 -15.299600 -48.656200
C -3.735000 -16.463600 -49.383300
H -3.475100 -15.141300 -47.848700
O -2.820500 -18.596100 -49.311300
N -2.810900 -17.460000 -48.828300
O -2.079300 -17.106100 -47.905800
66
Fragment
O -7.874200 -12.733200 -57.020700
H -7.166700 -15.135700 -57.394000
C -7.038200 -13.380400 -56.416600
N -6.762400 -14.681300 -56.647400
H -6.661300 -12.599100 -54.544900
C -6.151100 -12.863600 -55.299100
C -5.761300 -15.106900 -55.782800
H -5.597600 -12.143800 -55.577100
N -5.381000 -14.051800 -55.009600
O -5.347400 -16.249400 -55.805700
H -4.610900 -12.379400 -53.661200
N -4.432900 -14.198000 -54.030700
C -4.123400 -13.111300 -53.375500
H -3.340300 -11.172500 -51.379600
C -3.167000 -13.014500 -52.288800
C -2.902300 -12.013400 -51.398600
O -2.382500 -14.086300 -52.011900
C -1.891500 -12.431500 -50.534000
C -1.597900 -13.679300 -50.912200
H -1.496900 -11.938000 -49.821700
H -0.847100 -16.016600 -51.924300
C -0.669000 -14.657100 -50.414000
C -0.409100 -15.849000 -51.099300
H -0.182900 -13.586200 -48.717100
C -0.004800 -14.396400 -49.181800
C 0.462100 -16.761600 -50.590800
H 0.640100 -17.581100 -51.040600
C 0.871200 -15.299600 -48.656200
C 1.078100 -16.463600 -49.383300
H 1.338000 -15.141300 -47.848700
O 1.992600 -18.596100 -49.311300
N 2.002200 -17.460000 -48.828300
O 2.733800 -17.106100 -47.905800
O -12.687300 -12.733200 -57.020700
H -11.979800 -15.135700 -57.394000
C -11.851300 -13.380400 -56.416600
N -11.575500 -14.681300 -56.647400
H -11.474400 -12.599100 -54.544900
C -10.964200 -12.863600 -55.299100
C -10.574400 -15.106900 -55.782800
H -10.410700 -12.143800 -55.577100
N -10.194100 -14.051800 -55.009600
O -10.160500 -16.249400 -55.805700
H -9.424000 -12.379400 -53.661200
N -9.246000 -14.198000 -54.030700
C -8.936500 -13.111300 -53.375500
H -8.153400 -11.172500 -51.379600
C -7.980100 -13.014500 -52.288800
C -7.715400 -12.013400 -51.398600
O -7.195600 -14.086300 -52.011900
C -6.704600 -12.431500 -50.534000
C -6.411000 -13.679300 -50.912200
H -6.310000 -11.938000 -49.821700
H -5.660200 -16.016600 -51.924300
C -5.482100 -14.657100 -50.414000
C -5.222200 -15.849000 -51.099300
H -4.996000 -13.586200 -48.717100
C -4.817900 -14.396400 -49.181800
C -4.351000 -16.761600 -50.590800
H -4.173000 -17.581100 -51.040600
C -3.941900 -15.299600 -48.656200
C -3.735000 -16.463600 -49.383300
H -3.475100 -15.141300 -47.848700
O -2.820500 -18.596100 -49.311300
N -2.810900 -17.460000 -48.828300
O -2.079300 -17.106100 -47.905800
