33
Fragment
O -7.874200 -12.733200 -57.020700
H -7.166700 -15.135700 -57.394000
C -7.038200 -13.380400 -56.416600
N -6.762400 -14.681300 -56.647400
H -6.661300 -12.599100 -54.544900
C -6.151100 -12.863600 -55.299100
C -5.761300 -15.106900 -55.782800
H -5.597600 -12.143800 -55.577100
N -5.381000 -14.051800 -55.009600
O -5.347400 -16.249400 -55.805700
H -4.610900 -12.379400 -53.661200
N -4.432900 -14.198000 -54.030700
C -4.123400 -13.111300 -53.375500
H -3.340300 -11.172500 -51.379600
C -3.167000 -13.014500 -52.288800
C -2.902300 -12.013400 -51.398600
O -2.382500 -14.086300 -52.011900
C -1.891500 -12.431500 -50.534000
C -1.597900 -13.679300 -50.912200
H -1.496900 -11.938000 -49.821700
H -0.847100 -16.016600 -51.924300
C -0.669000 -14.657100 -50.414000
C -0.409100 -15.849000 -51.099300
H -0.182900 -13.586200 -48.717100
C -0.004800 -14.396400 -49.181800
C 0.462100 -16.761600 -50.590800
H 0.640100 -17.581100 -51.040600
C 0.871200 -15.299600 -48.656200
C 1.078100 -16.463600 -49.383300
H 1.338000 -15.141300 -47.848700
O 1.992600 -18.596100 -49.311300
N 2.002200 -17.460000 -48.828300
O 2.733800 -17.106100 -47.905800
33
Fragment
O -5.467700 -19.858800 -57.249300
H -4.760200 -17.456300 -56.876000
C -4.631600 -19.211600 -57.853400
N -4.355900 -17.910700 -57.622600
H -4.254800 -19.992900 -59.725100
C -3.744600 -19.728400 -58.970900
C -3.354700 -17.485100 -58.487200
H -3.191100 -20.448200 -58.692900
N -2.974500 -18.540200 -59.260400
O -2.940800 -16.342600 -58.464300
H -2.204400 -20.212600 -60.608800
N -2.026300 -18.394000 -60.239300
C -1.716800 -19.480700 -60.894500
H -0.933700 -21.419500 -62.890400
C -0.760500 -19.577500 -61.981200
C -0.495700 -20.578600 -62.871400
O 0.024100 -18.505700 -62.258100
C 0.515000 -20.160500 -63.736000
C 0.808600 -18.912700 -63.357800
H 0.909700 -20.654000 -64.448300
H 1.559400 -16.575400 -62.345700
C 1.737500 -17.934900 -63.856000
C 1.997400 -16.743000 -63.170700
H 2.223700 -19.005800 -65.552900
C 2.401700 -18.195600 -65.088200
C 2.868600 -15.830400 -63.679200
H 3.046700 -15.010900 -63.229400
C 3.277700 -17.292400 -65.613800
C 3.484700 -16.128400 -64.886700
H 3.744600 -17.450700 -66.421300
O 4.399200 -13.995900 -64.958700
N 4.408800 -15.132000 -65.441700
O 5.140400 -15.485900 -66.364200
66
Fragment
O -7.874200 -12.733200 -57.020700
H -7.166700 -15.135700 -57.394000
C -7.038200 -13.380400 -56.416600
N -6.762400 -14.681300 -56.647400
H -6.661300 -12.599100 -54.544900
C -6.151100 -12.863600 -55.299100
C -5.761300 -15.106900 -55.782800
H -5.597600 -12.143800 -55.577100
N -5.381000 -14.051800 -55.009600
O -5.347400 -16.249400 -55.805700
H -4.610900 -12.379400 -53.661200
N -4.432900 -14.198000 -54.030700
C -4.123400 -13.111300 -53.375500
H -3.340300 -11.172500 -51.379600
C -3.167000 -13.014500 -52.288800
C -2.902300 -12.013400 -51.398600
O -2.382500 -14.086300 -52.011900
C -1.891500 -12.431500 -50.534000
C -1.597900 -13.679300 -50.912200
H -1.496900 -11.938000 -49.821700
H -0.847100 -16.016600 -51.924300
C -0.669000 -14.657100 -50.414000
C -0.409100 -15.849000 -51.099300
H -0.182900 -13.586200 -48.717100
C -0.004800 -14.396400 -49.181800
C 0.462100 -16.761600 -50.590800
H 0.640100 -17.581100 -51.040600
C 0.871200 -15.299600 -48.656200
C 1.078100 -16.463600 -49.383300
H 1.338000 -15.141300 -47.848700
O 1.992600 -18.596100 -49.311300
N 2.002200 -17.460000 -48.828300
O 2.733800 -17.106100 -47.905800
O -5.467700 -19.858800 -57.249300
H -4.760200 -17.456300 -56.876000
C -4.631600 -19.211600 -57.853400
N -4.355900 -17.910700 -57.622600
H -4.254800 -19.992900 -59.725100
C -3.744600 -19.728400 -58.970900
C -3.354700 -17.485100 -58.487200
H -3.191100 -20.448200 -58.692900
N -2.974500 -18.540200 -59.260400
O -2.940800 -16.342600 -58.464300
H -2.204400 -20.212600 -60.608800
N -2.026300 -18.394000 -60.239300
C -1.716800 -19.480700 -60.894500
H -0.933700 -21.419500 -62.890400
C -0.760500 -19.577500 -61.981200
C -0.495700 -20.578600 -62.871400
O 0.024100 -18.505700 -62.258100
C 0.515000 -20.160500 -63.736000
C 0.808600 -18.912700 -63.357800
H 0.909700 -20.654000 -64.448300
H 1.559400 -16.575400 -62.345700
C 1.737500 -17.934900 -63.856000
C 1.997400 -16.743000 -63.170700
H 2.223700 -19.005800 -65.552900
C 2.401700 -18.195600 -65.088200
C 2.868600 -15.830400 -63.679200
H 3.046700 -15.010900 -63.229400
C 3.277700 -17.292400 -65.613800
C 3.484700 -16.128400 -64.886700
H 3.744600 -17.450700 -66.421300
O 4.399200 -13.995900 -64.958700
N 4.408800 -15.132000 -65.441700
O 5.140400 -15.485900 -66.364200
