28
Fragment
H -19.948500 -19.874800 -11.618500
H -19.707500 -18.994800 -10.303800
C -19.269000 -19.470000 -11.039900
H -18.744000 -24.334000 -10.996000
H -18.730400 -18.838000 -11.561400
N -18.654400 -21.788200 -10.716100
C -18.386800 -20.535800 -10.488400
C -18.034300 -24.076300 -10.420100
C -17.797100 -22.737900 -10.168700
H -17.406000 -25.957900 -9.999500
N -17.328000 -20.108200 -9.751600
H -17.272400 -19.234400 -9.542700
C -17.232900 -25.039800 -9.831000
C -16.696500 -22.361700 -9.344300
C -16.473300 -20.983000 -9.124900
C -16.187600 -24.687300 -9.001700
C -15.822200 -23.335100 -8.755200
N -15.578800 -25.783600 -8.267700
C -15.443800 -20.539800 -8.314400
O -15.425300 -26.863400 -8.851300
H -15.340100 -19.614500 -8.125700
O -15.292100 -25.603000 -7.093700
C -14.725400 -22.808000 -8.028200
C -14.570600 -21.465500 -7.785100
H -13.847900 -21.168900 -7.243400
N -13.599600 -23.642400 -7.636100
O -13.245600 -24.547400 -8.405600
O -13.007200 -23.380800 -6.588800
6
Fragment
N -12.356200 -24.584400 -2.855000
C -11.770900 -23.639300 -3.102900
H -11.558800 -21.770900 -3.820800
C -10.986800 -22.439400 -3.387000
H -10.635300 -22.072600 -2.548600
H -10.243400 -22.668600 -3.981700
34
Fragment
H -19.948500 -19.874800 -11.618500
H -19.707500 -18.994800 -10.303800
C -19.269000 -19.470000 -11.039900
H -18.744000 -24.334000 -10.996000
H -18.730400 -18.838000 -11.561400
N -18.654400 -21.788200 -10.716100
C -18.386800 -20.535800 -10.488400
C -18.034300 -24.076300 -10.420100
C -17.797100 -22.737900 -10.168700
H -17.406000 -25.957900 -9.999500
N -17.328000 -20.108200 -9.751600
H -17.272400 -19.234400 -9.542700
C -17.232900 -25.039800 -9.831000
C -16.696500 -22.361700 -9.344300
C -16.473300 -20.983000 -9.124900
C -16.187600 -24.687300 -9.001700
C -15.822200 -23.335100 -8.755200
N -15.578800 -25.783600 -8.267700
C -15.443800 -20.539800 -8.314400
O -15.425300 -26.863400 -8.851300
H -15.340100 -19.614500 -8.125700
O -15.292100 -25.603000 -7.093700
C -14.725400 -22.808000 -8.028200
C -14.570600 -21.465500 -7.785100
H -13.847900 -21.168900 -7.243400
N -13.599600 -23.642400 -7.636100
O -13.245600 -24.547400 -8.405600
O -13.007200 -23.380800 -6.588800
N -12.356200 -24.584400 -2.855000
C -11.770900 -23.639300 -3.102900
H -11.558800 -21.770900 -3.820800
C -10.986800 -22.439400 -3.387000
H -10.635300 -22.072600 -2.548600
H -10.243400 -22.668600 -3.981700
