28
Fragment
H -19.948500 -19.874800 -11.618500
H -19.707500 -18.994800 -10.303800
C -19.269000 -19.470000 -11.039900
H -18.744000 -24.334000 -10.996000
H -18.730400 -18.838000 -11.561400
N -18.654400 -21.788200 -10.716100
C -18.386800 -20.535800 -10.488400
C -18.034300 -24.076300 -10.420100
C -17.797100 -22.737900 -10.168700
H -17.406000 -25.957900 -9.999500
N -17.328000 -20.108200 -9.751600
H -17.272400 -19.234400 -9.542700
C -17.232900 -25.039800 -9.831000
C -16.696500 -22.361700 -9.344300
C -16.473300 -20.983000 -9.124900
C -16.187600 -24.687300 -9.001700
C -15.822200 -23.335100 -8.755200
N -15.578800 -25.783600 -8.267700
C -15.443800 -20.539800 -8.314400
O -15.425300 -26.863400 -8.851300
H -15.340100 -19.614500 -8.125700
O -15.292100 -25.603000 -7.093700
C -14.725400 -22.808000 -8.028200
C -14.570600 -21.465500 -7.785100
H -13.847900 -21.168900 -7.243400
N -13.599600 -23.642400 -7.636100
O -13.245600 -24.547400 -8.405600
O -13.007200 -23.380800 -6.588800
28
Fragment
H -18.900600 -24.495200 -15.100300
H -18.659600 -25.375200 -13.785600
C -18.221100 -24.900000 -14.521600
H -17.696100 -20.036000 -14.477700
H -17.682500 -25.532000 -15.043200
N -17.606600 -22.581800 -14.197800
C -17.339000 -23.834200 -13.970100
C -16.986400 -20.293700 -13.901800
C -16.749200 -21.632100 -13.650500
H -16.358100 -18.412100 -13.481300
N -16.280100 -24.261800 -13.233400
H -16.224600 -25.135600 -13.024500
C -16.185000 -19.330200 -13.312700
C -15.648600 -22.008300 -12.826000
C -15.425400 -23.387000 -12.606600
C -15.139700 -19.682700 -12.483400
C -14.774300 -21.034900 -12.236900
N -14.531000 -18.586400 -11.749400
C -14.395900 -23.830200 -11.796100
O -14.377400 -17.506600 -12.333000
H -14.292200 -24.755500 -11.607400
O -14.244300 -18.767000 -10.575400
C -13.677500 -21.562000 -11.509900
C -13.522700 -22.904500 -11.266900
H -12.800100 -23.201100 -10.725100
N -12.551700 -20.727600 -11.117900
O -12.197700 -19.822600 -11.887300
O -11.959300 -20.989200 -10.070600
56
Fragment
H -19.948500 -19.874800 -11.618500
H -19.707500 -18.994800 -10.303800
C -19.269000 -19.470000 -11.039900
H -18.744000 -24.334000 -10.996000
H -18.730400 -18.838000 -11.561400
N -18.654400 -21.788200 -10.716100
C -18.386800 -20.535800 -10.488400
C -18.034300 -24.076300 -10.420100
C -17.797100 -22.737900 -10.168700
H -17.406000 -25.957900 -9.999500
N -17.328000 -20.108200 -9.751600
H -17.272400 -19.234400 -9.542700
C -17.232900 -25.039800 -9.831000
C -16.696500 -22.361700 -9.344300
C -16.473300 -20.983000 -9.124900
C -16.187600 -24.687300 -9.001700
C -15.822200 -23.335100 -8.755200
N -15.578800 -25.783600 -8.267700
C -15.443800 -20.539800 -8.314400
O -15.425300 -26.863400 -8.851300
H -15.340100 -19.614500 -8.125700
O -15.292100 -25.603000 -7.093700
C -14.725400 -22.808000 -8.028200
C -14.570600 -21.465500 -7.785100
H -13.847900 -21.168900 -7.243400
N -13.599600 -23.642400 -7.636100
O -13.245600 -24.547400 -8.405600
O -13.007200 -23.380800 -6.588800
H -18.900600 -24.495200 -15.100300
H -18.659600 -25.375200 -13.785600
C -18.221100 -24.900000 -14.521600
H -17.696100 -20.036000 -14.477700
H -17.682500 -25.532000 -15.043200
N -17.606600 -22.581800 -14.197800
C -17.339000 -23.834200 -13.970100
C -16.986400 -20.293700 -13.901800
C -16.749200 -21.632100 -13.650500
H -16.358100 -18.412100 -13.481300
N -16.280100 -24.261800 -13.233400
H -16.224600 -25.135600 -13.024500
C -16.185000 -19.330200 -13.312700
C -15.648600 -22.008300 -12.826000
C -15.425400 -23.387000 -12.606600
C -15.139700 -19.682700 -12.483400
C -14.774300 -21.034900 -12.236900
N -14.531000 -18.586400 -11.749400
C -14.395900 -23.830200 -11.796100
O -14.377400 -17.506600 -12.333000
H -14.292200 -24.755500 -11.607400
O -14.244300 -18.767000 -10.575400
C -13.677500 -21.562000 -11.509900
C -13.522700 -22.904500 -11.266900
H -12.800100 -23.201100 -10.725100
N -12.551700 -20.727600 -11.117900
O -12.197700 -19.822600 -11.887300
O -11.959300 -20.989200 -10.070600
