28
Fragment
H -19.948500 -19.874800 -11.618500
H -19.707500 -18.994800 -10.303800
C -19.269000 -19.470000 -11.039900
H -18.744000 -24.334000 -10.996000
H -18.730400 -18.838000 -11.561400
N -18.654400 -21.788200 -10.716100
C -18.386800 -20.535800 -10.488400
C -18.034300 -24.076300 -10.420100
C -17.797100 -22.737900 -10.168700
H -17.406000 -25.957900 -9.999500
N -17.328000 -20.108200 -9.751600
H -17.272400 -19.234400 -9.542700
C -17.232900 -25.039800 -9.831000
C -16.696500 -22.361700 -9.344300
C -16.473300 -20.983000 -9.124900
C -16.187600 -24.687300 -9.001700
C -15.822200 -23.335100 -8.755200
N -15.578800 -25.783600 -8.267700
C -15.443800 -20.539800 -8.314400
O -15.425300 -26.863400 -8.851300
H -15.340100 -19.614500 -8.125700
O -15.292100 -25.603000 -7.093700
C -14.725400 -22.808000 -8.028200
C -14.570600 -21.465500 -7.785100
H -13.847900 -21.168900 -7.243400
N -13.599600 -23.642400 -7.636100
O -13.245600 -24.547400 -8.405600
O -13.007200 -23.380800 -6.588800
28
Fragment
H -20.996400 -24.495200 -8.136800
H -20.755300 -25.375200 -6.822100
C -20.316900 -24.900000 -7.558100
H -19.791900 -20.036000 -7.514300
H -19.778200 -25.532000 -8.079700
N -19.702300 -22.581800 -7.234300
C -19.434700 -23.834200 -7.006600
C -19.082200 -20.293700 -6.938400
C -18.845000 -21.632100 -6.687000
H -18.453800 -18.412100 -6.517800
N -18.375800 -24.261800 -6.269900
H -18.320300 -25.135600 -6.061000
C -18.280800 -19.330200 -6.349300
C -17.744300 -22.008300 -5.862500
C -17.521200 -23.387000 -5.643200
C -17.235400 -19.682700 -5.519900
C -16.870100 -21.034900 -5.273400
N -16.626700 -18.586400 -4.786000
C -16.491600 -23.830200 -4.832600
O -16.473200 -17.506600 -5.369500
H -16.387900 -24.755500 -4.643900
O -16.340000 -18.767000 -3.611900
C -15.773300 -21.562000 -4.546400
C -15.618400 -22.904500 -4.303400
H -14.895800 -23.201100 -3.761700
N -14.647500 -20.727600 -4.154400
O -14.293400 -19.822600 -4.923900
O -14.055100 -20.989200 -3.107100
56
Fragment
H -19.948500 -19.874800 -11.618500
H -19.707500 -18.994800 -10.303800
C -19.269000 -19.470000 -11.039900
H -18.744000 -24.334000 -10.996000
H -18.730400 -18.838000 -11.561400
N -18.654400 -21.788200 -10.716100
C -18.386800 -20.535800 -10.488400
C -18.034300 -24.076300 -10.420100
C -17.797100 -22.737900 -10.168700
H -17.406000 -25.957900 -9.999500
N -17.328000 -20.108200 -9.751600
H -17.272400 -19.234400 -9.542700
C -17.232900 -25.039800 -9.831000
C -16.696500 -22.361700 -9.344300
C -16.473300 -20.983000 -9.124900
C -16.187600 -24.687300 -9.001700
C -15.822200 -23.335100 -8.755200
N -15.578800 -25.783600 -8.267700
C -15.443800 -20.539800 -8.314400
O -15.425300 -26.863400 -8.851300
H -15.340100 -19.614500 -8.125700
O -15.292100 -25.603000 -7.093700
C -14.725400 -22.808000 -8.028200
C -14.570600 -21.465500 -7.785100
H -13.847900 -21.168900 -7.243400
N -13.599600 -23.642400 -7.636100
O -13.245600 -24.547400 -8.405600
O -13.007200 -23.380800 -6.588800
H -20.996400 -24.495200 -8.136800
H -20.755300 -25.375200 -6.822100
C -20.316900 -24.900000 -7.558100
H -19.791900 -20.036000 -7.514300
H -19.778200 -25.532000 -8.079700
N -19.702300 -22.581800 -7.234300
C -19.434700 -23.834200 -7.006600
C -19.082200 -20.293700 -6.938400
C -18.845000 -21.632100 -6.687000
H -18.453800 -18.412100 -6.517800
N -18.375800 -24.261800 -6.269900
H -18.320300 -25.135600 -6.061000
C -18.280800 -19.330200 -6.349300
C -17.744300 -22.008300 -5.862500
C -17.521200 -23.387000 -5.643200
C -17.235400 -19.682700 -5.519900
C -16.870100 -21.034900 -5.273400
N -16.626700 -18.586400 -4.786000
C -16.491600 -23.830200 -4.832600
O -16.473200 -17.506600 -5.369500
H -16.387900 -24.755500 -4.643900
O -16.340000 -18.767000 -3.611900
C -15.773300 -21.562000 -4.546400
C -15.618400 -22.904500 -4.303400
H -14.895800 -23.201100 -3.761700
N -14.647500 -20.727600 -4.154400
O -14.293400 -19.822600 -4.923900
O -14.055100 -20.989200 -3.107100
