28
Fragment
H -19.948500 -19.874800 -11.618500
H -19.707500 -18.994800 -10.303800
C -19.269000 -19.470000 -11.039900
H -18.744000 -24.334000 -10.996000
H -18.730400 -18.838000 -11.561400
N -18.654400 -21.788200 -10.716100
C -18.386800 -20.535800 -10.488400
C -18.034300 -24.076300 -10.420100
C -17.797100 -22.737900 -10.168700
H -17.406000 -25.957900 -9.999500
N -17.328000 -20.108200 -9.751600
H -17.272400 -19.234400 -9.542700
C -17.232900 -25.039800 -9.831000
C -16.696500 -22.361700 -9.344300
C -16.473300 -20.983000 -9.124900
C -16.187600 -24.687300 -9.001700
C -15.822200 -23.335100 -8.755200
N -15.578800 -25.783600 -8.267700
C -15.443800 -20.539800 -8.314400
O -15.425300 -26.863400 -8.851300
H -15.340100 -19.614500 -8.125700
O -15.292100 -25.603000 -7.093700
C -14.725400 -22.808000 -8.028200
C -14.570600 -21.465500 -7.785100
H -13.847900 -21.168900 -7.243400
N -13.599600 -23.642400 -7.636100
O -13.245600 -24.547400 -8.405600
O -13.007200 -23.380800 -6.588800
28
Fragment
H -24.430800 -12.479800 -18.582000
H -24.189700 -11.599800 -17.267300
C -23.751200 -12.075000 -18.003300
H -23.226200 -16.939000 -17.959500
H -23.212600 -11.443000 -18.524900
N -23.136700 -14.393200 -17.679500
C -22.869100 -13.140800 -17.451800
C -22.516500 -16.681300 -17.383600
C -22.279300 -15.342900 -17.132200
H -21.888200 -18.562900 -16.963000
N -21.810200 -12.713200 -16.715100
H -21.754700 -11.839400 -16.506200
C -21.715100 -17.644800 -16.794500
C -21.178700 -14.966700 -16.307700
C -20.955500 -13.588000 -16.088400
C -20.669800 -17.292300 -15.965100
C -20.304400 -15.940100 -15.718600
N -20.061100 -18.388600 -15.231200
C -19.926000 -13.144800 -15.277800
O -19.907500 -19.468400 -15.814700
H -19.822300 -12.219500 -15.089100
O -19.774400 -18.208000 -14.057100
C -19.207600 -15.413000 -14.991600
C -19.052800 -14.070500 -14.748600
H -18.330200 -13.773900 -14.206800
N -18.081900 -16.247400 -14.599600
O -17.727800 -17.152400 -15.369100
O -17.489400 -15.985800 -13.552300
56
Fragment
H -19.948500 -19.874800 -11.618500
H -19.707500 -18.994800 -10.303800
C -19.269000 -19.470000 -11.039900
H -18.744000 -24.334000 -10.996000
H -18.730400 -18.838000 -11.561400
N -18.654400 -21.788200 -10.716100
C -18.386800 -20.535800 -10.488400
C -18.034300 -24.076300 -10.420100
C -17.797100 -22.737900 -10.168700
H -17.406000 -25.957900 -9.999500
N -17.328000 -20.108200 -9.751600
H -17.272400 -19.234400 -9.542700
C -17.232900 -25.039800 -9.831000
C -16.696500 -22.361700 -9.344300
C -16.473300 -20.983000 -9.124900
C -16.187600 -24.687300 -9.001700
C -15.822200 -23.335100 -8.755200
N -15.578800 -25.783600 -8.267700
C -15.443800 -20.539800 -8.314400
O -15.425300 -26.863400 -8.851300
H -15.340100 -19.614500 -8.125700
O -15.292100 -25.603000 -7.093700
C -14.725400 -22.808000 -8.028200
C -14.570600 -21.465500 -7.785100
H -13.847900 -21.168900 -7.243400
N -13.599600 -23.642400 -7.636100
O -13.245600 -24.547400 -8.405600
O -13.007200 -23.380800 -6.588800
H -24.430800 -12.479800 -18.582000
H -24.189700 -11.599800 -17.267300
C -23.751200 -12.075000 -18.003300
H -23.226200 -16.939000 -17.959500
H -23.212600 -11.443000 -18.524900
N -23.136700 -14.393200 -17.679500
C -22.869100 -13.140800 -17.451800
C -22.516500 -16.681300 -17.383600
C -22.279300 -15.342900 -17.132200
H -21.888200 -18.562900 -16.963000
N -21.810200 -12.713200 -16.715100
H -21.754700 -11.839400 -16.506200
C -21.715100 -17.644800 -16.794500
C -21.178700 -14.966700 -16.307700
C -20.955500 -13.588000 -16.088400
C -20.669800 -17.292300 -15.965100
C -20.304400 -15.940100 -15.718600
N -20.061100 -18.388600 -15.231200
C -19.926000 -13.144800 -15.277800
O -19.907500 -19.468400 -15.814700
H -19.822300 -12.219500 -15.089100
O -19.774400 -18.208000 -14.057100
C -19.207600 -15.413000 -14.991600
C -19.052800 -14.070500 -14.748600
H -18.330200 -13.773900 -14.206800
N -18.081900 -16.247400 -14.599600
O -17.727800 -17.152400 -15.369100
O -17.489400 -15.985800 -13.552300
