28
Fragment
H -19.948500 -19.874800 -11.618500
H -19.707500 -18.994800 -10.303800
C -19.269000 -19.470000 -11.039900
H -18.744000 -24.334000 -10.996000
H -18.730400 -18.838000 -11.561400
N -18.654400 -21.788200 -10.716100
C -18.386800 -20.535800 -10.488400
C -18.034300 -24.076300 -10.420100
C -17.797100 -22.737900 -10.168700
H -17.406000 -25.957900 -9.999500
N -17.328000 -20.108200 -9.751600
H -17.272400 -19.234400 -9.542700
C -17.232900 -25.039800 -9.831000
C -16.696500 -22.361700 -9.344300
C -16.473300 -20.983000 -9.124900
C -16.187600 -24.687300 -9.001700
C -15.822200 -23.335100 -8.755200
N -15.578800 -25.783600 -8.267700
C -15.443800 -20.539800 -8.314400
O -15.425300 -26.863400 -8.851300
H -15.340100 -19.614500 -8.125700
O -15.292100 -25.603000 -7.093700
C -14.725400 -22.808000 -8.028200
C -14.570600 -21.465500 -7.785100
H -13.847900 -21.168900 -7.243400
N -13.599600 -23.642400 -7.636100
O -13.245600 -24.547400 -8.405600
O -13.007200 -23.380800 -6.588800
28
Fragment
H -13.370500 -27.269800 -11.618500
H -13.129500 -26.389800 -10.303800
C -12.691000 -26.865000 -11.039900
H -12.166000 -31.729000 -10.996000
H -12.152400 -26.233000 -11.561400
N -12.076400 -29.183200 -10.716100
C -11.808800 -27.930800 -10.488400
C -11.456300 -31.471300 -10.420100
C -11.219100 -30.132900 -10.168700
H -10.828000 -33.352900 -9.999500
N -10.750000 -27.503200 -9.751600
H -10.694400 -26.629400 -9.542700
C -10.654900 -32.434800 -9.831000
C -10.118500 -29.756700 -9.344300
C -9.895300 -28.378000 -9.124900
C -9.609600 -32.082300 -9.001700
C -9.244200 -30.730100 -8.755200
N -9.000800 -33.178600 -8.267700
C -8.865800 -27.934800 -8.314400
O -8.847300 -34.258400 -8.851300
H -8.762100 -27.009500 -8.125700
O -8.714100 -32.998000 -7.093700
C -8.147400 -30.203000 -8.028200
C -7.992600 -28.860500 -7.785100
H -7.269900 -28.563900 -7.243400
N -7.021600 -31.037400 -7.636100
O -6.667600 -31.942400 -8.405600
O -6.429200 -30.775800 -6.588800
56
Fragment
H -19.948500 -19.874800 -11.618500
H -19.707500 -18.994800 -10.303800
C -19.269000 -19.470000 -11.039900
H -18.744000 -24.334000 -10.996000
H -18.730400 -18.838000 -11.561400
N -18.654400 -21.788200 -10.716100
C -18.386800 -20.535800 -10.488400
C -18.034300 -24.076300 -10.420100
C -17.797100 -22.737900 -10.168700
H -17.406000 -25.957900 -9.999500
N -17.328000 -20.108200 -9.751600
H -17.272400 -19.234400 -9.542700
C -17.232900 -25.039800 -9.831000
C -16.696500 -22.361700 -9.344300
C -16.473300 -20.983000 -9.124900
C -16.187600 -24.687300 -9.001700
C -15.822200 -23.335100 -8.755200
N -15.578800 -25.783600 -8.267700
C -15.443800 -20.539800 -8.314400
O -15.425300 -26.863400 -8.851300
H -15.340100 -19.614500 -8.125700
O -15.292100 -25.603000 -7.093700
C -14.725400 -22.808000 -8.028200
C -14.570600 -21.465500 -7.785100
H -13.847900 -21.168900 -7.243400
N -13.599600 -23.642400 -7.636100
O -13.245600 -24.547400 -8.405600
O -13.007200 -23.380800 -6.588800
H -13.370500 -27.269800 -11.618500
H -13.129500 -26.389800 -10.303800
C -12.691000 -26.865000 -11.039900
H -12.166000 -31.729000 -10.996000
H -12.152400 -26.233000 -11.561400
N -12.076400 -29.183200 -10.716100
C -11.808800 -27.930800 -10.488400
C -11.456300 -31.471300 -10.420100
C -11.219100 -30.132900 -10.168700
H -10.828000 -33.352900 -9.999500
N -10.750000 -27.503200 -9.751600
H -10.694400 -26.629400 -9.542700
C -10.654900 -32.434800 -9.831000
C -10.118500 -29.756700 -9.344300
C -9.895300 -28.378000 -9.124900
C -9.609600 -32.082300 -9.001700
C -9.244200 -30.730100 -8.755200
N -9.000800 -33.178600 -8.267700
C -8.865800 -27.934800 -8.314400
O -8.847300 -34.258400 -8.851300
H -8.762100 -27.009500 -8.125700
O -8.714100 -32.998000 -7.093700
C -8.147400 -30.203000 -8.028200
C -7.992600 -28.860500 -7.785100
H -7.269900 -28.563900 -7.243400
N -7.021600 -31.037400 -7.636100
O -6.667600 -31.942400 -8.405600
O -6.429200 -30.775800 -6.588800
