28
Fragment
H -19.948500 -19.874800 -11.618500
H -19.707500 -18.994800 -10.303800
C -19.269000 -19.470000 -11.039900
H -18.744000 -24.334000 -10.996000
H -18.730400 -18.838000 -11.561400
N -18.654400 -21.788200 -10.716100
C -18.386800 -20.535800 -10.488400
C -18.034300 -24.076300 -10.420100
C -17.797100 -22.737900 -10.168700
H -17.406000 -25.957900 -9.999500
N -17.328000 -20.108200 -9.751600
H -17.272400 -19.234400 -9.542700
C -17.232900 -25.039800 -9.831000
C -16.696500 -22.361700 -9.344300
C -16.473300 -20.983000 -9.124900
C -16.187600 -24.687300 -9.001700
C -15.822200 -23.335100 -8.755200
N -15.578800 -25.783600 -8.267700
C -15.443800 -20.539800 -8.314400
O -15.425300 -26.863400 -8.851300
H -15.340100 -19.614500 -8.125700
O -15.292100 -25.603000 -7.093700
C -14.725400 -22.808000 -8.028200
C -14.570600 -21.465500 -7.785100
H -13.847900 -21.168900 -7.243400
N -13.599600 -23.642400 -7.636100
O -13.245600 -24.547400 -8.405600
O -13.007200 -23.380800 -6.588800
28
Fragment
H -14.418400 -17.100200 -8.136800
H -14.177300 -17.980200 -6.822100
C -13.738900 -17.505000 -7.558100
H -13.213900 -12.641000 -7.514300
H -13.200200 -18.137000 -8.079700
N -13.124300 -15.186800 -7.234300
C -12.856700 -16.439200 -7.006600
C -12.504200 -12.898700 -6.938400
C -12.267000 -14.237100 -6.687000
H -11.875800 -11.017100 -6.517800
N -11.797800 -16.866800 -6.269900
H -11.742300 -17.740600 -6.061000
C -11.702800 -11.935200 -6.349300
C -11.166300 -14.613300 -5.862500
C -10.943200 -15.992000 -5.643200
C -10.657400 -12.287700 -5.519900
C -10.292100 -13.639900 -5.273400
N -10.048700 -11.191400 -4.786000
C -9.913600 -16.435200 -4.832600
O -9.895200 -10.111600 -5.369500
H -9.809900 -17.360500 -4.643900
O -9.762000 -11.372000 -3.611900
C -9.195300 -14.167000 -4.546400
C -9.040400 -15.509500 -4.303400
H -8.317800 -15.806100 -3.761700
N -8.069500 -13.332600 -4.154400
O -7.715400 -12.427600 -4.923900
O -7.477100 -13.594200 -3.107100
56
Fragment
H -19.948500 -19.874800 -11.618500
H -19.707500 -18.994800 -10.303800
C -19.269000 -19.470000 -11.039900
H -18.744000 -24.334000 -10.996000
H -18.730400 -18.838000 -11.561400
N -18.654400 -21.788200 -10.716100
C -18.386800 -20.535800 -10.488400
C -18.034300 -24.076300 -10.420100
C -17.797100 -22.737900 -10.168700
H -17.406000 -25.957900 -9.999500
N -17.328000 -20.108200 -9.751600
H -17.272400 -19.234400 -9.542700
C -17.232900 -25.039800 -9.831000
C -16.696500 -22.361700 -9.344300
C -16.473300 -20.983000 -9.124900
C -16.187600 -24.687300 -9.001700
C -15.822200 -23.335100 -8.755200
N -15.578800 -25.783600 -8.267700
C -15.443800 -20.539800 -8.314400
O -15.425300 -26.863400 -8.851300
H -15.340100 -19.614500 -8.125700
O -15.292100 -25.603000 -7.093700
C -14.725400 -22.808000 -8.028200
C -14.570600 -21.465500 -7.785100
H -13.847900 -21.168900 -7.243400
N -13.599600 -23.642400 -7.636100
O -13.245600 -24.547400 -8.405600
O -13.007200 -23.380800 -6.588800
H -14.418400 -17.100200 -8.136800
H -14.177300 -17.980200 -6.822100
C -13.738900 -17.505000 -7.558100
H -13.213900 -12.641000 -7.514300
H -13.200200 -18.137000 -8.079700
N -13.124300 -15.186800 -7.234300
C -12.856700 -16.439200 -7.006600
C -12.504200 -12.898700 -6.938400
C -12.267000 -14.237100 -6.687000
H -11.875800 -11.017100 -6.517800
N -11.797800 -16.866800 -6.269900
H -11.742300 -17.740600 -6.061000
C -11.702800 -11.935200 -6.349300
C -11.166300 -14.613300 -5.862500
C -10.943200 -15.992000 -5.643200
C -10.657400 -12.287700 -5.519900
C -10.292100 -13.639900 -5.273400
N -10.048700 -11.191400 -4.786000
C -9.913600 -16.435200 -4.832600
O -9.895200 -10.111600 -5.369500
H -9.809900 -17.360500 -4.643900
O -9.762000 -11.372000 -3.611900
C -9.195300 -14.167000 -4.546400
C -9.040400 -15.509500 -4.303400
H -8.317800 -15.806100 -3.761700
N -8.069500 -13.332600 -4.154400
O -7.715400 -12.427600 -4.923900
O -7.477100 -13.594200 -3.107100
