28
Fragment
O -17.879000 -23.688000 -12.071400
O -17.665200 -24.697500 -10.172100
N -17.341600 -23.818400 -10.989900
H -17.279500 -21.355900 -11.532000
C -16.585000 -21.545100 -10.913100
C -16.315100 -22.860700 -10.573300
H -16.027800 -19.598800 -10.616600
C -15.855500 -20.497800 -10.364000
O -15.418200 -25.531000 -11.398800
C -15.243700 -23.226700 -9.719200
N -15.145500 -25.688800 -10.207700
O -15.091200 -26.795100 -9.657800
C -14.867500 -20.803800 -9.431000
C -14.771200 -24.520900 -9.389900
C -14.546500 -22.145200 -9.097500
H -14.283800 -19.070800 -9.185400
N -14.145800 -19.811800 -8.807900
C -13.785300 -24.735600 -8.438800
H -13.531200 -25.625300 -8.222500
C -13.513400 -22.367300 -8.133900
C -13.180900 -20.088400 -7.893200
C -13.161200 -23.666200 -7.794100
H -13.114800 -18.215800 -7.086500
N -12.840700 -21.302800 -7.531700
H -12.501300 -23.825700 -7.129800
C -12.464800 -18.911000 -7.320300
H -11.977100 -19.185200 -6.516500
H -11.834200 -18.559000 -7.981800
28
Fragment
O -24.014500 -27.644700 -15.560300
O -23.800700 -26.635200 -13.660900
N -23.477100 -27.514400 -14.478700
H -23.415000 -29.976900 -15.020900
C -22.720400 -29.787700 -14.402000
C -22.450600 -28.472100 -14.062100
H -22.163200 -31.733900 -14.105400
C -21.991000 -30.835000 -13.852800
O -21.553700 -25.801700 -14.887600
C -21.379100 -28.106000 -13.208100
N -21.281000 -25.643900 -13.696500
O -21.226700 -24.537600 -13.146700
C -21.003000 -30.528900 -12.919900
C -20.906700 -26.811800 -12.878700
C -20.682000 -29.187500 -12.586400
H -20.419300 -32.261900 -12.674300
N -20.281300 -31.520900 -12.296800
C -19.920800 -26.597100 -11.927700
H -19.666700 -25.707400 -11.711400
C -19.648900 -28.965500 -11.622700
C -19.316400 -31.244300 -11.382000
C -19.296700 -27.666600 -11.282900
H -19.250300 -33.117000 -10.575400
N -18.976200 -30.030000 -11.020600
H -18.636800 -27.507000 -10.618700
C -18.600200 -32.421800 -10.809100
H -18.112500 -32.147500 -10.005300
H -17.969700 -32.773800 -11.470600
56
Fragment
O -17.879000 -23.688000 -12.071400
O -17.665200 -24.697500 -10.172100
N -17.341600 -23.818400 -10.989900
H -17.279500 -21.355900 -11.532000
C -16.585000 -21.545100 -10.913100
C -16.315100 -22.860700 -10.573300
H -16.027800 -19.598800 -10.616600
C -15.855500 -20.497800 -10.364000
O -15.418200 -25.531000 -11.398800
C -15.243700 -23.226700 -9.719200
N -15.145500 -25.688800 -10.207700
O -15.091200 -26.795100 -9.657800
C -14.867500 -20.803800 -9.431000
C -14.771200 -24.520900 -9.389900
C -14.546500 -22.145200 -9.097500
H -14.283800 -19.070800 -9.185400
N -14.145800 -19.811800 -8.807900
C -13.785300 -24.735600 -8.438800
H -13.531200 -25.625300 -8.222500
C -13.513400 -22.367300 -8.133900
C -13.180900 -20.088400 -7.893200
C -13.161200 -23.666200 -7.794100
H -13.114800 -18.215800 -7.086500
N -12.840700 -21.302800 -7.531700
H -12.501300 -23.825700 -7.129800
C -12.464800 -18.911000 -7.320300
H -11.977100 -19.185200 -6.516500
H -11.834200 -18.559000 -7.981800
O -24.014500 -27.644700 -15.560300
O -23.800700 -26.635200 -13.660900
N -23.477100 -27.514400 -14.478700
H -23.415000 -29.976900 -15.020900
C -22.720400 -29.787700 -14.402000
C -22.450600 -28.472100 -14.062100
H -22.163200 -31.733900 -14.105400
C -21.991000 -30.835000 -13.852800
O -21.553700 -25.801700 -14.887600
C -21.379100 -28.106000 -13.208100
N -21.281000 -25.643900 -13.696500
O -21.226700 -24.537600 -13.146700
C -21.003000 -30.528900 -12.919900
C -20.906700 -26.811800 -12.878700
C -20.682000 -29.187500 -12.586400
H -20.419300 -32.261900 -12.674300
N -20.281300 -31.520900 -12.296800
C -19.920800 -26.597100 -11.927700
H -19.666700 -25.707400 -11.711400
C -19.648900 -28.965500 -11.622700
C -19.316400 -31.244300 -11.382000
C -19.296700 -27.666600 -11.282900
H -19.250300 -33.117000 -10.575400
N -18.976200 -30.030000 -11.020600
H -18.636800 -27.507000 -10.618700
C -18.600200 -32.421800 -10.809100
H -18.112500 -32.147500 -10.005300
H -17.969700 -32.773800 -11.470600
