28
Fragment
O -17.879000 -23.688000 -12.071400
O -17.665200 -24.697500 -10.172100
N -17.341600 -23.818400 -10.989900
H -17.279500 -21.355900 -11.532000
C -16.585000 -21.545100 -10.913100
C -16.315100 -22.860700 -10.573300
H -16.027800 -19.598800 -10.616600
C -15.855500 -20.497800 -10.364000
O -15.418200 -25.531000 -11.398800
C -15.243700 -23.226700 -9.719200
N -15.145500 -25.688800 -10.207700
O -15.091200 -26.795100 -9.657800
C -14.867500 -20.803800 -9.431000
C -14.771200 -24.520900 -9.389900
C -14.546500 -22.145200 -9.097500
H -14.283800 -19.070800 -9.185400
N -14.145800 -19.811800 -8.807900
C -13.785300 -24.735600 -8.438800
H -13.531200 -25.625300 -8.222500
C -13.513400 -22.367300 -8.133900
C -13.180900 -20.088400 -7.893200
C -13.161200 -23.666200 -7.794100
H -13.114800 -18.215800 -7.086500
N -12.840700 -21.302800 -7.531700
H -12.501300 -23.825700 -7.129800
C -12.464800 -18.911000 -7.320300
H -11.977100 -19.185200 -6.516500
H -11.834200 -18.559000 -7.981800
12
Fragment
H -23.904100 -22.564400 -11.546700
H -23.193600 -24.240800 -10.298400
H -23.049400 -21.212200 -11.603200
C -23.024900 -22.181600 -11.749000
H -22.796600 -22.364900 -12.684100
C -22.308100 -23.906400 -10.233500
N -22.019500 -22.780700 -10.874700
O -21.494000 -24.546400 -9.557300
H -20.733900 -21.247400 -10.842600
C -20.683400 -22.224100 -10.914500
H -20.253200 -22.466100 -11.760900
H -20.158400 -22.579100 -10.167200
40
Fragment
O -17.879000 -23.688000 -12.071400
O -17.665200 -24.697500 -10.172100
N -17.341600 -23.818400 -10.989900
H -17.279500 -21.355900 -11.532000
C -16.585000 -21.545100 -10.913100
C -16.315100 -22.860700 -10.573300
H -16.027800 -19.598800 -10.616600
C -15.855500 -20.497800 -10.364000
O -15.418200 -25.531000 -11.398800
C -15.243700 -23.226700 -9.719200
N -15.145500 -25.688800 -10.207700
O -15.091200 -26.795100 -9.657800
C -14.867500 -20.803800 -9.431000
C -14.771200 -24.520900 -9.389900
C -14.546500 -22.145200 -9.097500
H -14.283800 -19.070800 -9.185400
N -14.145800 -19.811800 -8.807900
C -13.785300 -24.735600 -8.438800
H -13.531200 -25.625300 -8.222500
C -13.513400 -22.367300 -8.133900
C -13.180900 -20.088400 -7.893200
C -13.161200 -23.666200 -7.794100
H -13.114800 -18.215800 -7.086500
N -12.840700 -21.302800 -7.531700
H -12.501300 -23.825700 -7.129800
C -12.464800 -18.911000 -7.320300
H -11.977100 -19.185200 -6.516500
H -11.834200 -18.559000 -7.981800
H -23.904100 -22.564400 -11.546700
H -23.193600 -24.240800 -10.298400
H -23.049400 -21.212200 -11.603200
C -23.024900 -22.181600 -11.749000
H -22.796600 -22.364900 -12.684100
C -22.308100 -23.906400 -10.233500
N -22.019500 -22.780700 -10.874700
O -21.494000 -24.546400 -9.557300
H -20.733900 -21.247400 -10.842600
C -20.683400 -22.224100 -10.914500
H -20.253200 -22.466100 -11.760900
H -20.158400 -22.579100 -10.167200
