28
Fragment
O -17.879000 -23.688000 -12.071400
O -17.665200 -24.697500 -10.172100
N -17.341600 -23.818400 -10.989900
H -17.279500 -21.355900 -11.532000
C -16.585000 -21.545100 -10.913100
C -16.315100 -22.860700 -10.573300
H -16.027800 -19.598800 -10.616600
C -15.855500 -20.497800 -10.364000
O -15.418200 -25.531000 -11.398800
C -15.243700 -23.226700 -9.719200
N -15.145500 -25.688800 -10.207700
O -15.091200 -26.795100 -9.657800
C -14.867500 -20.803800 -9.431000
C -14.771200 -24.520900 -9.389900
C -14.546500 -22.145200 -9.097500
H -14.283800 -19.070800 -9.185400
N -14.145800 -19.811800 -8.807900
C -13.785300 -24.735600 -8.438800
H -13.531200 -25.625300 -8.222500
C -13.513400 -22.367300 -8.133900
C -13.180900 -20.088400 -7.893200
C -13.161200 -23.666200 -7.794100
H -13.114800 -18.215800 -7.086500
N -12.840700 -21.302800 -7.531700
H -12.501300 -23.825700 -7.129800
C -12.464800 -18.911000 -7.320300
H -11.977100 -19.185200 -6.516500
H -11.834200 -18.559000 -7.981800
28
Fragment
O -25.310100 -31.021300 -12.071400
O -25.096300 -32.030800 -10.172100
N -24.772700 -31.151600 -10.989900
H -24.710600 -28.689100 -11.532000
C -24.016100 -28.878300 -10.913100
C -23.746200 -30.193900 -10.573300
H -23.458900 -26.932100 -10.616600
C -23.286600 -27.831000 -10.364000
O -22.849300 -32.864300 -11.398800
C -22.674800 -30.560000 -9.719200
N -22.576600 -33.022100 -10.207700
O -22.522300 -34.128400 -9.657800
C -22.298600 -28.137100 -9.431000
C -22.202300 -31.854200 -9.389900
C -21.977600 -29.478500 -9.097500
H -21.714900 -26.404100 -9.185400
N -21.576900 -27.145100 -8.807900
C -21.216400 -32.068900 -8.438800
H -20.962300 -32.958600 -8.222500
C -20.944500 -29.700500 -8.133900
C -20.612000 -27.421700 -7.893200
C -20.592300 -30.999400 -7.794100
H -20.545900 -25.549000 -7.086500
N -20.271800 -28.636000 -7.531700
H -19.932400 -31.159000 -7.129800
C -19.895900 -26.244200 -7.320300
H -19.408200 -26.518500 -6.516500
H -19.265300 -25.892200 -7.981800
56
Fragment
O -17.879000 -23.688000 -12.071400
O -17.665200 -24.697500 -10.172100
N -17.341600 -23.818400 -10.989900
H -17.279500 -21.355900 -11.532000
C -16.585000 -21.545100 -10.913100
C -16.315100 -22.860700 -10.573300
H -16.027800 -19.598800 -10.616600
C -15.855500 -20.497800 -10.364000
O -15.418200 -25.531000 -11.398800
C -15.243700 -23.226700 -9.719200
N -15.145500 -25.688800 -10.207700
O -15.091200 -26.795100 -9.657800
C -14.867500 -20.803800 -9.431000
C -14.771200 -24.520900 -9.389900
C -14.546500 -22.145200 -9.097500
H -14.283800 -19.070800 -9.185400
N -14.145800 -19.811800 -8.807900
C -13.785300 -24.735600 -8.438800
H -13.531200 -25.625300 -8.222500
C -13.513400 -22.367300 -8.133900
C -13.180900 -20.088400 -7.893200
C -13.161200 -23.666200 -7.794100
H -13.114800 -18.215800 -7.086500
N -12.840700 -21.302800 -7.531700
H -12.501300 -23.825700 -7.129800
C -12.464800 -18.911000 -7.320300
H -11.977100 -19.185200 -6.516500
H -11.834200 -18.559000 -7.981800
O -25.310100 -31.021300 -12.071400
O -25.096300 -32.030800 -10.172100
N -24.772700 -31.151600 -10.989900
H -24.710600 -28.689100 -11.532000
C -24.016100 -28.878300 -10.913100
C -23.746200 -30.193900 -10.573300
H -23.458900 -26.932100 -10.616600
C -23.286600 -27.831000 -10.364000
O -22.849300 -32.864300 -11.398800
C -22.674800 -30.560000 -9.719200
N -22.576600 -33.022100 -10.207700
O -22.522300 -34.128400 -9.657800
C -22.298600 -28.137100 -9.431000
C -22.202300 -31.854200 -9.389900
C -21.977600 -29.478500 -9.097500
H -21.714900 -26.404100 -9.185400
N -21.576900 -27.145100 -8.807900
C -21.216400 -32.068900 -8.438800
H -20.962300 -32.958600 -8.222500
C -20.944500 -29.700500 -8.133900
C -20.612000 -27.421700 -7.893200
C -20.592300 -30.999400 -7.794100
H -20.545900 -25.549000 -7.086500
N -20.271800 -28.636000 -7.531700
H -19.932400 -31.159000 -7.129800
C -19.895900 -26.244200 -7.320300
H -19.408200 -26.518500 -6.516500
H -19.265300 -25.892200 -7.981800
