28
Fragment
O -17.879000 -23.688000 -12.071400
O -17.665200 -24.697500 -10.172100
N -17.341600 -23.818400 -10.989900
H -17.279500 -21.355900 -11.532000
C -16.585000 -21.545100 -10.913100
C -16.315100 -22.860700 -10.573300
H -16.027800 -19.598800 -10.616600
C -15.855500 -20.497800 -10.364000
O -15.418200 -25.531000 -11.398800
C -15.243700 -23.226700 -9.719200
N -15.145500 -25.688800 -10.207700
O -15.091200 -26.795100 -9.657800
C -14.867500 -20.803800 -9.431000
C -14.771200 -24.520900 -9.389900
C -14.546500 -22.145200 -9.097500
H -14.283800 -19.070800 -9.185400
N -14.145800 -19.811800 -8.807900
C -13.785300 -24.735600 -8.438800
H -13.531200 -25.625300 -8.222500
C -13.513400 -22.367300 -8.133900
C -13.180900 -20.088400 -7.893200
C -13.161200 -23.666200 -7.794100
H -13.114800 -18.215800 -7.086500
N -12.840700 -21.302800 -7.531700
H -12.501300 -23.825700 -7.129800
C -12.464800 -18.911000 -7.320300
H -11.977100 -19.185200 -6.516500
H -11.834200 -18.559000 -7.981800
12
Fragment
H -10.337500 -21.435100 -8.057800
H -9.627000 -19.758700 -6.809500
H -9.482800 -22.787300 -8.114400
C -9.458400 -21.817900 -8.260200
H -9.230000 -21.634600 -9.195200
C -8.741500 -20.093100 -6.744600
N -8.452900 -21.218800 -7.385900
O -7.927500 -19.453100 -6.068500
H -7.167300 -22.752100 -7.353800
C -7.116800 -21.775400 -7.425700
H -6.686600 -21.533400 -8.272100
H -6.591800 -21.420400 -6.678300
40
Fragment
O -17.879000 -23.688000 -12.071400
O -17.665200 -24.697500 -10.172100
N -17.341600 -23.818400 -10.989900
H -17.279500 -21.355900 -11.532000
C -16.585000 -21.545100 -10.913100
C -16.315100 -22.860700 -10.573300
H -16.027800 -19.598800 -10.616600
C -15.855500 -20.497800 -10.364000
O -15.418200 -25.531000 -11.398800
C -15.243700 -23.226700 -9.719200
N -15.145500 -25.688800 -10.207700
O -15.091200 -26.795100 -9.657800
C -14.867500 -20.803800 -9.431000
C -14.771200 -24.520900 -9.389900
C -14.546500 -22.145200 -9.097500
H -14.283800 -19.070800 -9.185400
N -14.145800 -19.811800 -8.807900
C -13.785300 -24.735600 -8.438800
H -13.531200 -25.625300 -8.222500
C -13.513400 -22.367300 -8.133900
C -13.180900 -20.088400 -7.893200
C -13.161200 -23.666200 -7.794100
H -13.114800 -18.215800 -7.086500
N -12.840700 -21.302800 -7.531700
H -12.501300 -23.825700 -7.129800
C -12.464800 -18.911000 -7.320300
H -11.977100 -19.185200 -6.516500
H -11.834200 -18.559000 -7.981800
H -10.337500 -21.435100 -8.057800
H -9.627000 -19.758700 -6.809500
H -9.482800 -22.787300 -8.114400
C -9.458400 -21.817900 -8.260200
H -9.230000 -21.634600 -9.195200
C -8.741500 -20.093100 -6.744600
N -8.452900 -21.218800 -7.385900
O -7.927500 -19.453100 -6.068500
H -7.167300 -22.752100 -7.353800
C -7.116800 -21.775400 -7.425700
H -6.686600 -21.533400 -8.272100
H -6.591800 -21.420400 -6.678300
