32
Fragment
H -22.573600 -24.657900 -13.431900
H -22.223800 -22.814800 -11.722400
N -21.770600 -24.799300 -13.295800
N -21.466000 -25.792400 -14.231700
C -21.457300 -22.925800 -11.918600
H -21.262000 -26.841000 -13.789500
H -21.028800 -25.391600 -14.679100
C -20.913700 -23.976200 -12.706200
O -20.839400 -18.869200 -10.510000
H -20.795700 -17.911900 -10.946100
H -20.781100 -21.293900 -10.719300
C -20.572700 -22.063300 -11.371700
H -20.373100 -19.397100 -8.730700
C -20.037900 -18.840600 -9.339500
H -19.790100 -18.090800 -9.027300
N -19.602100 -24.151500 -12.879800
N -19.242200 -22.233300 -11.551400
H -19.148900 -19.701300 -12.158500
O -18.819600 -20.898400 -9.678800
C -18.748200 -23.290800 -12.285800
C -18.695700 -19.463300 -9.483400
C -18.311000 -21.272400 -10.926900
H -18.230800 -19.415000 -8.826700
C -18.181300 -19.966100 -11.729300
H -17.997700 -18.072900 -10.989700
C -17.816900 -18.974800 -10.627800
O -17.503600 -23.419700 -12.415800
H -17.371000 -20.399200 -13.475500
H -17.341900 -21.741200 -11.042100
O -17.225300 -20.009100 -12.742800
O -16.468900 -19.100100 -10.204700
H -15.855400 -18.985500 -10.885100
32
Fragment
H -15.287100 -20.077100 -12.734100
H -14.937300 -21.920100 -14.443600
N -14.484100 -19.935700 -12.870200
N -14.179500 -18.942600 -11.934300
C -14.170800 -21.809200 -14.247400
H -13.975500 -17.894000 -12.376500
H -13.742300 -19.343400 -11.486900
C -13.627200 -20.758800 -13.459800
O -13.552900 -25.865800 -15.656000
H -13.509200 -26.823100 -15.219900
H -13.494600 -23.441100 -15.446700
C -13.286200 -22.671700 -14.794300
H -13.086600 -25.337900 -17.435300
C -12.751400 -25.894400 -16.826500
H -12.503600 -26.644200 -17.138700
N -12.315600 -20.583500 -13.286200
N -11.955700 -22.501700 -14.614600
H -11.862400 -25.033700 -14.007500
O -11.533100 -23.836600 -16.487200
C -11.461700 -21.444200 -13.880200
C -11.409200 -25.271700 -16.682600
C -11.024500 -23.462600 -15.239100
H -10.944300 -25.320000 -17.339300
C -10.894800 -24.768900 -14.436700
H -10.711200 -26.662100 -15.176300
C -10.530400 -25.760200 -15.538200
O -10.217100 -21.315300 -13.750200
H -10.084500 -24.335800 -12.690500
H -10.055400 -22.993800 -15.123900
O -9.938800 -24.725900 -13.423200
O -9.182400 -25.634900 -15.961300
H -8.568900 -25.749500 -15.280900
64
Fragment
H -22.573600 -24.657900 -13.431900
H -22.223800 -22.814800 -11.722400
N -21.770600 -24.799300 -13.295800
N -21.466000 -25.792400 -14.231700
C -21.457300 -22.925800 -11.918600
H -21.262000 -26.841000 -13.789500
H -21.028800 -25.391600 -14.679100
C -20.913700 -23.976200 -12.706200
O -20.839400 -18.869200 -10.510000
H -20.795700 -17.911900 -10.946100
H -20.781100 -21.293900 -10.719300
C -20.572700 -22.063300 -11.371700
H -20.373100 -19.397100 -8.730700
C -20.037900 -18.840600 -9.339500
H -19.790100 -18.090800 -9.027300
N -19.602100 -24.151500 -12.879800
N -19.242200 -22.233300 -11.551400
H -19.148900 -19.701300 -12.158500
O -18.819600 -20.898400 -9.678800
C -18.748200 -23.290800 -12.285800
C -18.695700 -19.463300 -9.483400
C -18.311000 -21.272400 -10.926900
H -18.230800 -19.415000 -8.826700
C -18.181300 -19.966100 -11.729300
H -17.997700 -18.072900 -10.989700
C -17.816900 -18.974800 -10.627800
O -17.503600 -23.419700 -12.415800
H -17.371000 -20.399200 -13.475500
H -17.341900 -21.741200 -11.042100
O -17.225300 -20.009100 -12.742800
O -16.468900 -19.100100 -10.204700
H -15.855400 -18.985500 -10.885100
H -15.287100 -20.077100 -12.734100
H -14.937300 -21.920100 -14.443600
N -14.484100 -19.935700 -12.870200
N -14.179500 -18.942600 -11.934300
C -14.170800 -21.809200 -14.247400
H -13.975500 -17.894000 -12.376500
H -13.742300 -19.343400 -11.486900
C -13.627200 -20.758800 -13.459800
O -13.552900 -25.865800 -15.656000
H -13.509200 -26.823100 -15.219900
H -13.494600 -23.441100 -15.446700
C -13.286200 -22.671700 -14.794300
H -13.086600 -25.337900 -17.435300
C -12.751400 -25.894400 -16.826500
H -12.503600 -26.644200 -17.138700
N -12.315600 -20.583500 -13.286200
N -11.955700 -22.501700 -14.614600
H -11.862400 -25.033700 -14.007500
O -11.533100 -23.836600 -16.487200
C -11.461700 -21.444200 -13.880200
C -11.409200 -25.271700 -16.682600
C -11.024500 -23.462600 -15.239100
H -10.944300 -25.320000 -17.339300
C -10.894800 -24.768900 -14.436700
H -10.711200 -26.662100 -15.176300
C -10.530400 -25.760200 -15.538200
O -10.217100 -21.315300 -13.750200
H -10.084500 -24.335800 -12.690500
H -10.055400 -22.993800 -15.123900
O -9.938800 -24.725900 -13.423200
O -9.182400 -25.634900 -15.961300
H -8.568900 -25.749500 -15.280900
