32
Fragment
H -22.573600 -24.657900 -13.431900
H -22.223800 -22.814800 -11.722400
N -21.770600 -24.799300 -13.295800
N -21.466000 -25.792400 -14.231700
C -21.457300 -22.925800 -11.918600
H -21.262000 -26.841000 -13.789500
H -21.028800 -25.391600 -14.679100
C -20.913700 -23.976200 -12.706200
O -20.839400 -18.869200 -10.510000
H -20.795700 -17.911900 -10.946100
H -20.781100 -21.293900 -10.719300
C -20.572700 -22.063300 -11.371700
H -20.373100 -19.397100 -8.730700
C -20.037900 -18.840600 -9.339500
H -19.790100 -18.090800 -9.027300
N -19.602100 -24.151500 -12.879800
N -19.242200 -22.233300 -11.551400
H -19.148900 -19.701300 -12.158500
O -18.819600 -20.898400 -9.678800
C -18.748200 -23.290800 -12.285800
C -18.695700 -19.463300 -9.483400
C -18.311000 -21.272400 -10.926900
H -18.230800 -19.415000 -8.826700
C -18.181300 -19.966100 -11.729300
H -17.997700 -18.072900 -10.989700
C -17.816900 -18.974800 -10.627800
O -17.503600 -23.419700 -12.415800
H -17.371000 -20.399200 -13.475500
H -17.341900 -21.741200 -11.042100
O -17.225300 -20.009100 -12.742800
O -16.468900 -19.100100 -10.204700
H -15.855400 -18.985500 -10.885100
3
Fragment
H -16.569500 -20.023400 -6.934000
H -15.826300 -19.236000 -8.460300
O -15.735900 -19.325500 -7.447700
35
Fragment
H -22.573600 -24.657900 -13.431900
H -22.223800 -22.814800 -11.722400
N -21.770600 -24.799300 -13.295800
N -21.466000 -25.792400 -14.231700
C -21.457300 -22.925800 -11.918600
H -21.262000 -26.841000 -13.789500
H -21.028800 -25.391600 -14.679100
C -20.913700 -23.976200 -12.706200
O -20.839400 -18.869200 -10.510000
H -20.795700 -17.911900 -10.946100
H -20.781100 -21.293900 -10.719300
C -20.572700 -22.063300 -11.371700
H -20.373100 -19.397100 -8.730700
C -20.037900 -18.840600 -9.339500
H -19.790100 -18.090800 -9.027300
N -19.602100 -24.151500 -12.879800
N -19.242200 -22.233300 -11.551400
H -19.148900 -19.701300 -12.158500
O -18.819600 -20.898400 -9.678800
C -18.748200 -23.290800 -12.285800
C -18.695700 -19.463300 -9.483400
C -18.311000 -21.272400 -10.926900
H -18.230800 -19.415000 -8.826700
C -18.181300 -19.966100 -11.729300
H -17.997700 -18.072900 -10.989700
C -17.816900 -18.974800 -10.627800
O -17.503600 -23.419700 -12.415800
H -17.371000 -20.399200 -13.475500
H -17.341900 -21.741200 -11.042100
O -17.225300 -20.009100 -12.742800
O -16.468900 -19.100100 -10.204700
H -15.855400 -18.985500 -10.885100
H -16.569500 -20.023400 -6.934000
H -15.826300 -19.236000 -8.460300
O -15.735900 -19.325500 -7.447700
