32
Fragment
H -22.573600 -24.657900 -13.431900
H -22.223800 -22.814800 -11.722400
N -21.770600 -24.799300 -13.295800
N -21.466000 -25.792400 -14.231700
C -21.457300 -22.925800 -11.918600
H -21.262000 -26.841000 -13.789500
H -21.028800 -25.391600 -14.679100
C -20.913700 -23.976200 -12.706200
O -20.839400 -18.869200 -10.510000
H -20.795700 -17.911900 -10.946100
H -20.781100 -21.293900 -10.719300
C -20.572700 -22.063300 -11.371700
H -20.373100 -19.397100 -8.730700
C -20.037900 -18.840600 -9.339500
H -19.790100 -18.090800 -9.027300
N -19.602100 -24.151500 -12.879800
N -19.242200 -22.233300 -11.551400
H -19.148900 -19.701300 -12.158500
O -18.819600 -20.898400 -9.678800
C -18.748200 -23.290800 -12.285800
C -18.695700 -19.463300 -9.483400
C -18.311000 -21.272400 -10.926900
H -18.230800 -19.415000 -8.826700
C -18.181300 -19.966100 -11.729300
H -17.997700 -18.072900 -10.989700
C -17.816900 -18.974800 -10.627800
O -17.503600 -23.419700 -12.415800
H -17.371000 -20.399200 -13.475500
H -17.341900 -21.741200 -11.042100
O -17.225300 -20.009100 -12.742800
O -16.468900 -19.100100 -10.204700
H -15.855400 -18.985500 -10.885100
32
Fragment
H -23.069100 -20.613900 -6.009500
H -22.311300 -22.457000 -7.256700
N -22.118900 -20.422400 -5.636200
N -21.879900 -19.300500 -4.811100
H -21.815800 -19.629700 -3.890000
C -21.480600 -22.256600 -7.016800
H -21.378600 -18.949700 -5.111100
C -21.167300 -21.143600 -6.207400
H -20.518800 -23.727400 -8.076600
H -20.475100 -26.751500 -8.251000
C -20.447400 -22.938300 -7.556700
O -19.973800 -26.137800 -8.073100
N -19.892100 -20.753500 -5.985000
H -19.819300 -25.677900 -10.012900
C -19.313600 -26.128800 -9.321200
N -19.156200 -22.566100 -7.302900
H -19.119800 -26.930500 -9.620400
C -18.895400 -21.462100 -6.548500
O -18.469800 -23.861600 -9.125000
H -18.420300 -24.872700 -6.471700
C -18.092400 -25.257400 -9.238300
C -18.038500 -23.348100 -7.901300
O -17.688700 -21.134600 -6.350500
C -17.610000 -24.530900 -7.024700
H -17.356400 -25.284200 -10.213500
H -17.225300 -22.671700 -7.971900
H -17.210700 -26.501000 -7.727700
C -17.185900 -25.549100 -8.080900
H -16.992100 -23.906400 -5.163400
O -16.573900 -24.248200 -6.133300
O -15.840900 -25.309300 -8.497000
H -15.257900 -25.516800 -7.649200
64
Fragment
H -22.573600 -24.657900 -13.431900
H -22.223800 -22.814800 -11.722400
N -21.770600 -24.799300 -13.295800
N -21.466000 -25.792400 -14.231700
C -21.457300 -22.925800 -11.918600
H -21.262000 -26.841000 -13.789500
H -21.028800 -25.391600 -14.679100
C -20.913700 -23.976200 -12.706200
O -20.839400 -18.869200 -10.510000
H -20.795700 -17.911900 -10.946100
H -20.781100 -21.293900 -10.719300
C -20.572700 -22.063300 -11.371700
H -20.373100 -19.397100 -8.730700
C -20.037900 -18.840600 -9.339500
H -19.790100 -18.090800 -9.027300
N -19.602100 -24.151500 -12.879800
N -19.242200 -22.233300 -11.551400
H -19.148900 -19.701300 -12.158500
O -18.819600 -20.898400 -9.678800
C -18.748200 -23.290800 -12.285800
C -18.695700 -19.463300 -9.483400
C -18.311000 -21.272400 -10.926900
H -18.230800 -19.415000 -8.826700
C -18.181300 -19.966100 -11.729300
H -17.997700 -18.072900 -10.989700
C -17.816900 -18.974800 -10.627800
O -17.503600 -23.419700 -12.415800
H -17.371000 -20.399200 -13.475500
H -17.341900 -21.741200 -11.042100
O -17.225300 -20.009100 -12.742800
O -16.468900 -19.100100 -10.204700
H -15.855400 -18.985500 -10.885100
H -23.069100 -20.613900 -6.009500
H -22.311300 -22.457000 -7.256700
N -22.118900 -20.422400 -5.636200
N -21.879900 -19.300500 -4.811100
H -21.815800 -19.629700 -3.890000
C -21.480600 -22.256600 -7.016800
H -21.378600 -18.949700 -5.111100
C -21.167300 -21.143600 -6.207400
H -20.518800 -23.727400 -8.076600
H -20.475100 -26.751500 -8.251000
C -20.447400 -22.938300 -7.556700
O -19.973800 -26.137800 -8.073100
N -19.892100 -20.753500 -5.985000
H -19.819300 -25.677900 -10.012900
C -19.313600 -26.128800 -9.321200
N -19.156200 -22.566100 -7.302900
H -19.119800 -26.930500 -9.620400
C -18.895400 -21.462100 -6.548500
O -18.469800 -23.861600 -9.125000
H -18.420300 -24.872700 -6.471700
C -18.092400 -25.257400 -9.238300
C -18.038500 -23.348100 -7.901300
O -17.688700 -21.134600 -6.350500
C -17.610000 -24.530900 -7.024700
H -17.356400 -25.284200 -10.213500
H -17.225300 -22.671700 -7.971900
H -17.210700 -26.501000 -7.727700
C -17.185900 -25.549100 -8.080900
H -16.992100 -23.906400 -5.163400
O -16.573900 -24.248200 -6.133300
O -15.840900 -25.309300 -8.497000
H -15.257900 -25.516800 -7.649200
