32
Fragment
H -22.573600 -24.657900 -13.431900
H -22.223800 -22.814800 -11.722400
N -21.770600 -24.799300 -13.295800
N -21.466000 -25.792400 -14.231700
C -21.457300 -22.925800 -11.918600
H -21.262000 -26.841000 -13.789500
H -21.028800 -25.391600 -14.679100
C -20.913700 -23.976200 -12.706200
O -20.839400 -18.869200 -10.510000
H -20.795700 -17.911900 -10.946100
H -20.781100 -21.293900 -10.719300
C -20.572700 -22.063300 -11.371700
H -20.373100 -19.397100 -8.730700
C -20.037900 -18.840600 -9.339500
H -19.790100 -18.090800 -9.027300
N -19.602100 -24.151500 -12.879800
N -19.242200 -22.233300 -11.551400
H -19.148900 -19.701300 -12.158500
O -18.819600 -20.898400 -9.678800
C -18.748200 -23.290800 -12.285800
C -18.695700 -19.463300 -9.483400
C -18.311000 -21.272400 -10.926900
H -18.230800 -19.415000 -8.826700
C -18.181300 -19.966100 -11.729300
H -17.997700 -18.072900 -10.989700
C -17.816900 -18.974800 -10.627800
O -17.503600 -23.419700 -12.415800
H -17.371000 -20.399200 -13.475500
H -17.341900 -21.741200 -11.042100
O -17.225300 -20.009100 -12.742800
O -16.468900 -19.100100 -10.204700
H -15.855400 -18.985500 -10.885100
32
Fragment
H -27.863600 -27.932500 -10.919900
O -27.250100 -28.047100 -11.600300
O -26.493700 -28.956100 -9.062200
H -26.377100 -30.688200 -10.762900
H -26.348000 -29.346200 -8.329500
O -26.215400 -32.366700 -9.389200
C -25.902100 -27.921800 -11.177200
H -25.721300 -27.019900 -10.815300
C -25.537700 -28.913100 -10.075700
H -25.488200 -28.362000 -12.978300
C -25.408000 -30.219400 -10.878100
C -25.023300 -28.410300 -12.321600
C -24.970800 -32.237800 -9.519200
O -24.899400 -29.845400 -12.126200
H -24.570100 -28.648300 -9.646500
N -24.476800 -31.180300 -10.253600
N -24.116900 -33.098500 -8.925200
H -23.928900 -27.037800 -12.777700
C -23.681100 -27.787600 -12.465500
H -23.345900 -28.344100 -13.074300
C -23.146300 -31.010300 -10.433300
H -22.937900 -30.240900 -11.085700
H -22.923300 -26.858900 -10.858900
O -22.879600 -27.816200 -11.295000
C -22.805300 -32.923200 -9.098800
H -22.690200 -34.338600 -7.125900
H -22.457000 -35.788000 -8.015500
C -22.261700 -31.872800 -9.886400
N -22.253000 -34.739400 -7.573300
N -21.948400 -33.746300 -8.509200
H -21.495200 -31.761800 -10.082600
H -21.145400 -33.604900 -8.373100
64
Fragment
H -22.573600 -24.657900 -13.431900
H -22.223800 -22.814800 -11.722400
N -21.770600 -24.799300 -13.295800
N -21.466000 -25.792400 -14.231700
C -21.457300 -22.925800 -11.918600
H -21.262000 -26.841000 -13.789500
H -21.028800 -25.391600 -14.679100
C -20.913700 -23.976200 -12.706200
O -20.839400 -18.869200 -10.510000
H -20.795700 -17.911900 -10.946100
H -20.781100 -21.293900 -10.719300
C -20.572700 -22.063300 -11.371700
H -20.373100 -19.397100 -8.730700
C -20.037900 -18.840600 -9.339500
H -19.790100 -18.090800 -9.027300
N -19.602100 -24.151500 -12.879800
N -19.242200 -22.233300 -11.551400
H -19.148900 -19.701300 -12.158500
O -18.819600 -20.898400 -9.678800
C -18.748200 -23.290800 -12.285800
C -18.695700 -19.463300 -9.483400
C -18.311000 -21.272400 -10.926900
H -18.230800 -19.415000 -8.826700
C -18.181300 -19.966100 -11.729300
H -17.997700 -18.072900 -10.989700
C -17.816900 -18.974800 -10.627800
O -17.503600 -23.419700 -12.415800
H -17.371000 -20.399200 -13.475500
H -17.341900 -21.741200 -11.042100
O -17.225300 -20.009100 -12.742800
O -16.468900 -19.100100 -10.204700
H -15.855400 -18.985500 -10.885100
H -27.863600 -27.932500 -10.919900
O -27.250100 -28.047100 -11.600300
O -26.493700 -28.956100 -9.062200
H -26.377100 -30.688200 -10.762900
H -26.348000 -29.346200 -8.329500
O -26.215400 -32.366700 -9.389200
C -25.902100 -27.921800 -11.177200
H -25.721300 -27.019900 -10.815300
C -25.537700 -28.913100 -10.075700
H -25.488200 -28.362000 -12.978300
C -25.408000 -30.219400 -10.878100
C -25.023300 -28.410300 -12.321600
C -24.970800 -32.237800 -9.519200
O -24.899400 -29.845400 -12.126200
H -24.570100 -28.648300 -9.646500
N -24.476800 -31.180300 -10.253600
N -24.116900 -33.098500 -8.925200
H -23.928900 -27.037800 -12.777700
C -23.681100 -27.787600 -12.465500
H -23.345900 -28.344100 -13.074300
C -23.146300 -31.010300 -10.433300
H -22.937900 -30.240900 -11.085700
H -22.923300 -26.858900 -10.858900
O -22.879600 -27.816200 -11.295000
C -22.805300 -32.923200 -9.098800
H -22.690200 -34.338600 -7.125900
H -22.457000 -35.788000 -8.015500
C -22.261700 -31.872800 -9.886400
N -22.253000 -34.739400 -7.573300
N -21.948400 -33.746300 -8.509200
H -21.495200 -31.761800 -10.082600
H -21.145400 -33.604900 -8.373100
