32
Fragment
H -22.573600 -24.657900 -13.431900
H -22.223800 -22.814800 -11.722400
N -21.770600 -24.799300 -13.295800
N -21.466000 -25.792400 -14.231700
C -21.457300 -22.925800 -11.918600
H -21.262000 -26.841000 -13.789500
H -21.028800 -25.391600 -14.679100
C -20.913700 -23.976200 -12.706200
O -20.839400 -18.869200 -10.510000
H -20.795700 -17.911900 -10.946100
H -20.781100 -21.293900 -10.719300
C -20.572700 -22.063300 -11.371700
H -20.373100 -19.397100 -8.730700
C -20.037900 -18.840600 -9.339500
H -19.790100 -18.090800 -9.027300
N -19.602100 -24.151500 -12.879800
N -19.242200 -22.233300 -11.551400
H -19.148900 -19.701300 -12.158500
O -18.819600 -20.898400 -9.678800
C -18.748200 -23.290800 -12.285800
C -18.695700 -19.463300 -9.483400
C -18.311000 -21.272400 -10.926900
H -18.230800 -19.415000 -8.826700
C -18.181300 -19.966100 -11.729300
H -17.997700 -18.072900 -10.989700
C -17.816900 -18.974800 -10.627800
O -17.503600 -23.419700 -12.415800
H -17.371000 -20.399200 -13.475500
H -17.341900 -21.741200 -11.042100
O -17.225300 -20.009100 -12.742800
O -16.468900 -19.100100 -10.204700
H -15.855400 -18.985500 -10.885100
32
Fragment
H -28.461100 -34.463800 -14.155800
O -27.878100 -34.256300 -13.308000
O -27.145100 -33.195200 -15.671700
H -26.726900 -32.853400 -16.641600
C -26.533100 -34.496100 -13.724100
H -26.508300 -35.448000 -14.077300
H -26.493700 -31.618700 -13.833100
H -26.362600 -34.231200 -11.591500
C -26.109000 -33.477900 -14.780300
O -26.030300 -30.081600 -15.454500
C -25.680500 -32.295100 -13.903700
C -25.626600 -34.204400 -12.566700
H -25.298700 -33.819700 -15.333300
O -25.249200 -32.808600 -12.680000
C -24.823600 -30.409100 -15.256500
H -24.599200 -35.877500 -12.184600
N -24.562800 -31.513100 -14.502100
C -24.405400 -35.075800 -12.483800
H -23.899700 -34.624900 -11.792100
N -23.826900 -29.700500 -15.820000
O -23.745200 -35.084800 -13.731900
C -23.271600 -31.885300 -14.248300
H -23.243900 -35.698500 -13.554000
H -23.200200 -32.674400 -13.728400
C -22.551700 -30.090600 -15.597600
H -22.340400 -27.896700 -16.693900
C -22.238400 -31.203600 -14.788200
H -21.903200 -28.576700 -17.915000
N -21.839100 -28.247500 -16.993900
N -21.600100 -29.369400 -16.168800
H -21.407700 -31.404000 -14.548300
H -20.649900 -29.560900 -15.795500
64
Fragment
H -22.573600 -24.657900 -13.431900
H -22.223800 -22.814800 -11.722400
N -21.770600 -24.799300 -13.295800
N -21.466000 -25.792400 -14.231700
C -21.457300 -22.925800 -11.918600
H -21.262000 -26.841000 -13.789500
H -21.028800 -25.391600 -14.679100
C -20.913700 -23.976200 -12.706200
O -20.839400 -18.869200 -10.510000
H -20.795700 -17.911900 -10.946100
H -20.781100 -21.293900 -10.719300
C -20.572700 -22.063300 -11.371700
H -20.373100 -19.397100 -8.730700
C -20.037900 -18.840600 -9.339500
H -19.790100 -18.090800 -9.027300
N -19.602100 -24.151500 -12.879800
N -19.242200 -22.233300 -11.551400
H -19.148900 -19.701300 -12.158500
O -18.819600 -20.898400 -9.678800
C -18.748200 -23.290800 -12.285800
C -18.695700 -19.463300 -9.483400
C -18.311000 -21.272400 -10.926900
H -18.230800 -19.415000 -8.826700
C -18.181300 -19.966100 -11.729300
H -17.997700 -18.072900 -10.989700
C -17.816900 -18.974800 -10.627800
O -17.503600 -23.419700 -12.415800
H -17.371000 -20.399200 -13.475500
H -17.341900 -21.741200 -11.042100
O -17.225300 -20.009100 -12.742800
O -16.468900 -19.100100 -10.204700
H -15.855400 -18.985500 -10.885100
H -28.461100 -34.463800 -14.155800
O -27.878100 -34.256300 -13.308000
O -27.145100 -33.195200 -15.671700
H -26.726900 -32.853400 -16.641600
C -26.533100 -34.496100 -13.724100
H -26.508300 -35.448000 -14.077300
H -26.493700 -31.618700 -13.833100
H -26.362600 -34.231200 -11.591500
C -26.109000 -33.477900 -14.780300
O -26.030300 -30.081600 -15.454500
C -25.680500 -32.295100 -13.903700
C -25.626600 -34.204400 -12.566700
H -25.298700 -33.819700 -15.333300
O -25.249200 -32.808600 -12.680000
C -24.823600 -30.409100 -15.256500
H -24.599200 -35.877500 -12.184600
N -24.562800 -31.513100 -14.502100
C -24.405400 -35.075800 -12.483800
H -23.899700 -34.624900 -11.792100
N -23.826900 -29.700500 -15.820000
O -23.745200 -35.084800 -13.731900
C -23.271600 -31.885300 -14.248300
H -23.243900 -35.698500 -13.554000
H -23.200200 -32.674400 -13.728400
C -22.551700 -30.090600 -15.597600
H -22.340400 -27.896700 -16.693900
C -22.238400 -31.203600 -14.788200
H -21.903200 -28.576700 -17.915000
N -21.839100 -28.247500 -16.993900
N -21.600100 -29.369400 -16.168800
H -21.407700 -31.404000 -14.548300
H -20.649900 -29.560900 -15.795500
