34
Fragment
H -12.767400 -18.680100 -44.283400
H -12.707200 -20.768900 -45.186000
C -12.386600 -18.803600 -45.123100
C -12.362200 -20.053300 -45.670600
H -12.147000 -16.252300 -44.384700
H -12.137700 -22.309800 -47.068500
C -11.840100 -17.689700 -45.810900
C -11.824300 -20.284400 -46.958000
C -11.821400 -21.580800 -47.552200
C -11.803500 -16.385500 -45.238100
H -11.378200 -22.616200 -49.180300
C -11.362400 -21.762100 -48.811900
C -11.324400 -19.185400 -47.691300
C -11.318000 -17.881400 -47.112600
C -11.281400 -15.341600 -45.911300
H -11.249800 -14.506800 -45.501700
C -10.855400 -20.681800 -49.591400
C -10.833900 -19.371600 -49.023600
C -10.799400 -16.774900 -47.853000
C -10.772200 -15.486200 -47.244500
H -10.379900 -21.716400 -51.265400
C -10.374200 -20.865700 -50.890100
C -10.340400 -18.276700 -49.780800
C -10.323200 -16.942000 -49.180300
C -10.260800 -14.405900 -47.965600
H -10.214200 -13.566900 -47.568900
C -9.890100 -19.800400 -51.621600
C -9.868500 -18.525300 -51.075000
C -9.851300 -15.819100 -49.865700
C -9.826900 -14.571100 -49.255700
H -9.576600 -19.938300 -52.486600
H -9.549400 -15.908000 -50.741100
H -9.532200 -17.820300 -51.578100
H -9.511400 -13.836500 -49.731400
20
Fragment
N -11.832200 -15.420300 -41.689000
H -11.573300 -18.278300 -42.308600
C -11.439900 -16.190600 -40.930700
H -11.430600 -20.429900 -42.957900
N -11.330200 -23.217900 -43.983800
C -11.259900 -18.915500 -41.707200
C -11.176000 -20.196500 -42.095300
C -11.007400 -22.940500 -42.915900
C -10.961500 -17.181200 -40.013000
C -10.876900 -18.506500 -40.383800
C -10.698300 -21.217000 -41.197600
C -10.613000 -22.531300 -41.600900
C -10.578600 -16.725000 -38.704700
C -10.406400 -19.528600 -39.477700
C -10.320400 -20.808500 -39.865200
N -10.278000 -16.373300 -37.658600
H -10.159700 -19.295100 -38.612100
C -10.139600 -23.537000 -40.692100
H -10.010500 -21.446700 -39.264400
N -9.760200 -24.300400 -39.930200
54
Fragment
H -12.767400 -18.680100 -44.283400
H -12.707200 -20.768900 -45.186000
C -12.386600 -18.803600 -45.123100
C -12.362200 -20.053300 -45.670600
H -12.147000 -16.252300 -44.384700
H -12.137700 -22.309800 -47.068500
C -11.840100 -17.689700 -45.810900
C -11.824300 -20.284400 -46.958000
C -11.821400 -21.580800 -47.552200
C -11.803500 -16.385500 -45.238100
H -11.378200 -22.616200 -49.180300
C -11.362400 -21.762100 -48.811900
C -11.324400 -19.185400 -47.691300
C -11.318000 -17.881400 -47.112600
C -11.281400 -15.341600 -45.911300
H -11.249800 -14.506800 -45.501700
C -10.855400 -20.681800 -49.591400
C -10.833900 -19.371600 -49.023600
C -10.799400 -16.774900 -47.853000
C -10.772200 -15.486200 -47.244500
H -10.379900 -21.716400 -51.265400
C -10.374200 -20.865700 -50.890100
C -10.340400 -18.276700 -49.780800
C -10.323200 -16.942000 -49.180300
C -10.260800 -14.405900 -47.965600
H -10.214200 -13.566900 -47.568900
C -9.890100 -19.800400 -51.621600
C -9.868500 -18.525300 -51.075000
C -9.851300 -15.819100 -49.865700
C -9.826900 -14.571100 -49.255700
H -9.576600 -19.938300 -52.486600
H -9.549400 -15.908000 -50.741100
H -9.532200 -17.820300 -51.578100
H -9.511400 -13.836500 -49.731400
N -11.832200 -15.420300 -41.689000
H -11.573300 -18.278300 -42.308600
C -11.439900 -16.190600 -40.930700
H -11.430600 -20.429900 -42.957900
N -11.330200 -23.217900 -43.983800
C -11.259900 -18.915500 -41.707200
C -11.176000 -20.196500 -42.095300
C -11.007400 -22.940500 -42.915900
C -10.961500 -17.181200 -40.013000
C -10.876900 -18.506500 -40.383800
C -10.698300 -21.217000 -41.197600
C -10.613000 -22.531300 -41.600900
C -10.578600 -16.725000 -38.704700
C -10.406400 -19.528600 -39.477700
C -10.320400 -20.808500 -39.865200
N -10.278000 -16.373300 -37.658600
H -10.159700 -19.295100 -38.612100
C -10.139600 -23.537000 -40.692100
H -10.010500 -21.446700 -39.264400
N -9.760200 -24.300400 -39.930200
