34
Fragment
H -12.767400 -18.680100 -44.283400
H -12.707200 -20.768900 -45.186000
C -12.386600 -18.803600 -45.123100
C -12.362200 -20.053300 -45.670600
H -12.147000 -16.252300 -44.384700
H -12.137700 -22.309800 -47.068500
C -11.840100 -17.689700 -45.810900
C -11.824300 -20.284400 -46.958000
C -11.821400 -21.580800 -47.552200
C -11.803500 -16.385500 -45.238100
H -11.378200 -22.616200 -49.180300
C -11.362400 -21.762100 -48.811900
C -11.324400 -19.185400 -47.691300
C -11.318000 -17.881400 -47.112600
C -11.281400 -15.341600 -45.911300
H -11.249800 -14.506800 -45.501700
C -10.855400 -20.681800 -49.591400
C -10.833900 -19.371600 -49.023600
C -10.799400 -16.774900 -47.853000
C -10.772200 -15.486200 -47.244500
H -10.379900 -21.716400 -51.265400
C -10.374200 -20.865700 -50.890100
C -10.340400 -18.276700 -49.780800
C -10.323200 -16.942000 -49.180300
C -10.260800 -14.405900 -47.965600
H -10.214200 -13.566900 -47.568900
C -9.890100 -19.800400 -51.621600
C -9.868500 -18.525300 -51.075000
C -9.851300 -15.819100 -49.865700
C -9.826900 -14.571100 -49.255700
H -9.576600 -19.938300 -52.486600
H -9.549400 -15.908000 -50.741100
H -9.532200 -17.820300 -51.578100
H -9.511400 -13.836500 -49.731400
34
Fragment
H -12.004300 -19.250700 -54.521000
H -11.983500 -23.234500 -52.674300
H -11.966300 -21.322200 -53.511300
H -11.939100 -25.352500 -51.765800
C -11.688800 -19.985300 -54.996700
C -11.664400 -21.233300 -54.386700
C -11.647200 -23.939500 -53.177400
C -11.625600 -25.214600 -52.630800
H -11.301500 -18.981100 -56.683500
C -11.254900 -19.820100 -56.286800
C -11.192500 -22.356200 -55.072100
C -11.175300 -23.690900 -54.471600
C -11.141500 -26.279900 -53.362300
H -11.135800 -27.130600 -52.987000
C -10.743500 -20.900400 -57.007900
C -10.716300 -22.189100 -56.399400
C -10.681800 -24.785800 -55.228800
C -10.660300 -26.096000 -54.661000
H -10.265900 -19.921000 -58.750700
C -10.234300 -20.755800 -58.341100
C -10.197700 -23.295600 -57.139800
C -10.191300 -24.599600 -56.561100
C -10.153300 -27.176300 -55.440500
H -10.137500 -28.030400 -55.072100
C -9.712200 -21.799700 -59.014300
C -9.694300 -26.995000 -56.700200
C -9.691400 -25.698600 -57.294400
C -9.675600 -23.103900 -58.441500
H -9.378000 -27.724000 -57.183900
H -9.368700 -21.666500 -59.867700
C -9.153500 -25.467500 -58.581800
C -9.129100 -24.217800 -59.129300
H -8.808500 -26.183100 -59.066400
H -8.748300 -24.094300 -59.969000
68
Fragment
H -12.767400 -18.680100 -44.283400
H -12.707200 -20.768900 -45.186000
C -12.386600 -18.803600 -45.123100
C -12.362200 -20.053300 -45.670600
H -12.147000 -16.252300 -44.384700
H -12.137700 -22.309800 -47.068500
C -11.840100 -17.689700 -45.810900
C -11.824300 -20.284400 -46.958000
C -11.821400 -21.580800 -47.552200
C -11.803500 -16.385500 -45.238100
H -11.378200 -22.616200 -49.180300
C -11.362400 -21.762100 -48.811900
C -11.324400 -19.185400 -47.691300
C -11.318000 -17.881400 -47.112600
C -11.281400 -15.341600 -45.911300
H -11.249800 -14.506800 -45.501700
C -10.855400 -20.681800 -49.591400
C -10.833900 -19.371600 -49.023600
C -10.799400 -16.774900 -47.853000
C -10.772200 -15.486200 -47.244500
H -10.379900 -21.716400 -51.265400
C -10.374200 -20.865700 -50.890100
C -10.340400 -18.276700 -49.780800
C -10.323200 -16.942000 -49.180300
C -10.260800 -14.405900 -47.965600
H -10.214200 -13.566900 -47.568900
C -9.890100 -19.800400 -51.621600
C -9.868500 -18.525300 -51.075000
C -9.851300 -15.819100 -49.865700
C -9.826900 -14.571100 -49.255700
H -9.576600 -19.938300 -52.486600
H -9.549400 -15.908000 -50.741100
H -9.532200 -17.820300 -51.578100
H -9.511400 -13.836500 -49.731400
H -12.004300 -19.250700 -54.521000
H -11.983500 -23.234500 -52.674300
H -11.966300 -21.322200 -53.511300
H -11.939100 -25.352500 -51.765800
C -11.688800 -19.985300 -54.996700
C -11.664400 -21.233300 -54.386700
C -11.647200 -23.939500 -53.177400
C -11.625600 -25.214600 -52.630800
H -11.301500 -18.981100 -56.683500
C -11.254900 -19.820100 -56.286800
C -11.192500 -22.356200 -55.072100
C -11.175300 -23.690900 -54.471600
C -11.141500 -26.279900 -53.362300
H -11.135800 -27.130600 -52.987000
C -10.743500 -20.900400 -57.007900
C -10.716300 -22.189100 -56.399400
C -10.681800 -24.785800 -55.228800
C -10.660300 -26.096000 -54.661000
H -10.265900 -19.921000 -58.750700
C -10.234300 -20.755800 -58.341100
C -10.197700 -23.295600 -57.139800
C -10.191300 -24.599600 -56.561100
C -10.153300 -27.176300 -55.440500
H -10.137500 -28.030400 -55.072100
C -9.712200 -21.799700 -59.014300
C -9.694300 -26.995000 -56.700200
C -9.691400 -25.698600 -57.294400
C -9.675600 -23.103900 -58.441500
H -9.378000 -27.724000 -57.183900
H -9.368700 -21.666500 -59.867700
C -9.153500 -25.467500 -58.581800
C -9.129100 -24.217800 -59.129300
H -8.808500 -26.183100 -59.066400
H -8.748300 -24.094300 -59.969000
