34
Fragment
H -12.767400 -18.680100 -44.283400
H -12.707200 -20.768900 -45.186000
C -12.386600 -18.803600 -45.123100
C -12.362200 -20.053300 -45.670600
H -12.147000 -16.252300 -44.384700
H -12.137700 -22.309800 -47.068500
C -11.840100 -17.689700 -45.810900
C -11.824300 -20.284400 -46.958000
C -11.821400 -21.580800 -47.552200
C -11.803500 -16.385500 -45.238100
H -11.378200 -22.616200 -49.180300
C -11.362400 -21.762100 -48.811900
C -11.324400 -19.185400 -47.691300
C -11.318000 -17.881400 -47.112600
C -11.281400 -15.341600 -45.911300
H -11.249800 -14.506800 -45.501700
C -10.855400 -20.681800 -49.591400
C -10.833900 -19.371600 -49.023600
C -10.799400 -16.774900 -47.853000
C -10.772200 -15.486200 -47.244500
H -10.379900 -21.716400 -51.265400
C -10.374200 -20.865700 -50.890100
C -10.340400 -18.276700 -49.780800
C -10.323200 -16.942000 -49.180300
C -10.260800 -14.405900 -47.965600
H -10.214200 -13.566900 -47.568900
C -9.890100 -19.800400 -51.621600
C -9.868500 -18.525300 -51.075000
C -9.851300 -15.819100 -49.865700
C -9.826900 -14.571100 -49.255700
H -9.576600 -19.938300 -52.486600
H -9.549400 -15.908000 -50.741100
H -9.532200 -17.820300 -51.578100
H -9.511400 -13.836500 -49.731400
34
Fragment
H -12.767400 -7.851700 -44.283400
H -12.707200 -9.940500 -45.186000
C -12.386600 -7.975200 -45.123100
C -12.362200 -9.224900 -45.670600
H -12.147000 -5.423900 -44.384700
H -12.137700 -11.481400 -47.068500
C -11.840100 -6.861300 -45.810900
C -11.824300 -9.456000 -46.958000
C -11.821400 -10.752400 -47.552200
C -11.803500 -5.557100 -45.238100
H -11.378200 -11.787800 -49.180300
C -11.362400 -10.933700 -48.811900
C -11.324400 -8.357000 -47.691300
C -11.318000 -7.053000 -47.112600
C -11.281400 -4.513200 -45.911300
H -11.249800 -3.678400 -45.501700
C -10.855400 -9.853400 -49.591400
C -10.833900 -8.543200 -49.023600
C -10.799400 -5.946500 -47.853000
C -10.772200 -4.657800 -47.244500
H -10.379900 -10.888000 -51.265400
C -10.374200 -10.037300 -50.890100
C -10.340400 -7.448300 -49.780800
C -10.323200 -6.113600 -49.180300
C -10.260800 -3.577500 -47.965600
H -10.214200 -2.738500 -47.568900
C -9.890100 -8.972000 -51.621600
C -9.868500 -7.696900 -51.075000
C -9.851300 -4.990700 -49.865700
C -9.826900 -3.742700 -49.255700
H -9.576600 -9.109900 -52.486600
H -9.549400 -5.079600 -50.741100
H -9.532200 -6.991900 -51.578100
H -9.511400 -3.008100 -49.731400
68
Fragment
H -12.767400 -18.680100 -44.283400
H -12.707200 -20.768900 -45.186000
C -12.386600 -18.803600 -45.123100
C -12.362200 -20.053300 -45.670600
H -12.147000 -16.252300 -44.384700
H -12.137700 -22.309800 -47.068500
C -11.840100 -17.689700 -45.810900
C -11.824300 -20.284400 -46.958000
C -11.821400 -21.580800 -47.552200
C -11.803500 -16.385500 -45.238100
H -11.378200 -22.616200 -49.180300
C -11.362400 -21.762100 -48.811900
C -11.324400 -19.185400 -47.691300
C -11.318000 -17.881400 -47.112600
C -11.281400 -15.341600 -45.911300
H -11.249800 -14.506800 -45.501700
C -10.855400 -20.681800 -49.591400
C -10.833900 -19.371600 -49.023600
C -10.799400 -16.774900 -47.853000
C -10.772200 -15.486200 -47.244500
H -10.379900 -21.716400 -51.265400
C -10.374200 -20.865700 -50.890100
C -10.340400 -18.276700 -49.780800
C -10.323200 -16.942000 -49.180300
C -10.260800 -14.405900 -47.965600
H -10.214200 -13.566900 -47.568900
C -9.890100 -19.800400 -51.621600
C -9.868500 -18.525300 -51.075000
C -9.851300 -15.819100 -49.865700
C -9.826900 -14.571100 -49.255700
H -9.576600 -19.938300 -52.486600
H -9.549400 -15.908000 -50.741100
H -9.532200 -17.820300 -51.578100
H -9.511400 -13.836500 -49.731400
H -12.767400 -7.851700 -44.283400
H -12.707200 -9.940500 -45.186000
C -12.386600 -7.975200 -45.123100
C -12.362200 -9.224900 -45.670600
H -12.147000 -5.423900 -44.384700
H -12.137700 -11.481400 -47.068500
C -11.840100 -6.861300 -45.810900
C -11.824300 -9.456000 -46.958000
C -11.821400 -10.752400 -47.552200
C -11.803500 -5.557100 -45.238100
H -11.378200 -11.787800 -49.180300
C -11.362400 -10.933700 -48.811900
C -11.324400 -8.357000 -47.691300
C -11.318000 -7.053000 -47.112600
C -11.281400 -4.513200 -45.911300
H -11.249800 -3.678400 -45.501700
C -10.855400 -9.853400 -49.591400
C -10.833900 -8.543200 -49.023600
C -10.799400 -5.946500 -47.853000
C -10.772200 -4.657800 -47.244500
H -10.379900 -10.888000 -51.265400
C -10.374200 -10.037300 -50.890100
C -10.340400 -7.448300 -49.780800
C -10.323200 -6.113600 -49.180300
C -10.260800 -3.577500 -47.965600
H -10.214200 -2.738500 -47.568900
C -9.890100 -8.972000 -51.621600
C -9.868500 -7.696900 -51.075000
C -9.851300 -4.990700 -49.865700
C -9.826900 -3.742700 -49.255700
H -9.576600 -9.109900 -52.486600
H -9.549400 -5.079600 -50.741100
H -9.532200 -6.991900 -51.578100
H -9.511400 -3.008100 -49.731400
