34
Fragment
H -12.767400 -18.680100 -44.283400
H -12.707200 -20.768900 -45.186000
C -12.386600 -18.803600 -45.123100
C -12.362200 -20.053300 -45.670600
H -12.147000 -16.252300 -44.384700
H -12.137700 -22.309800 -47.068500
C -11.840100 -17.689700 -45.810900
C -11.824300 -20.284400 -46.958000
C -11.821400 -21.580800 -47.552200
C -11.803500 -16.385500 -45.238100
H -11.378200 -22.616200 -49.180300
C -11.362400 -21.762100 -48.811900
C -11.324400 -19.185400 -47.691300
C -11.318000 -17.881400 -47.112600
C -11.281400 -15.341600 -45.911300
H -11.249800 -14.506800 -45.501700
C -10.855400 -20.681800 -49.591400
C -10.833900 -19.371600 -49.023600
C -10.799400 -16.774900 -47.853000
C -10.772200 -15.486200 -47.244500
H -10.379900 -21.716400 -51.265400
C -10.374200 -20.865700 -50.890100
C -10.340400 -18.276700 -49.780800
C -10.323200 -16.942000 -49.180300
C -10.260800 -14.405900 -47.965600
H -10.214200 -13.566900 -47.568900
C -9.890100 -19.800400 -51.621600
C -9.868500 -18.525300 -51.075000
C -9.851300 -15.819100 -49.865700
C -9.826900 -14.571100 -49.255700
H -9.576600 -19.938300 -52.486600
H -9.549400 -15.908000 -50.741100
H -9.532200 -17.820300 -51.578100
H -9.511400 -13.836500 -49.731400
34
Fragment
H -9.181500 -19.219300 -45.075800
H -9.121200 -17.130500 -44.173200
C -8.800600 -19.095800 -44.236100
C -8.776300 -17.846100 -43.688600
H -8.561100 -21.647100 -44.974500
H -8.551800 -15.589600 -42.290700
C -8.254100 -20.209700 -43.548300
C -8.238400 -17.615000 -42.401200
C -8.235500 -16.318600 -41.807000
C -8.217600 -21.513900 -44.121100
H -7.792300 -15.283200 -40.178900
C -7.776500 -16.137300 -40.547300
C -7.738500 -18.714000 -41.667900
C -7.732000 -20.018000 -42.246600
C -7.695400 -22.557800 -43.447900
H -7.663900 -23.392600 -43.857500
C -7.269400 -17.217600 -39.767800
C -7.247900 -18.527800 -40.335600
C -7.213500 -21.124500 -41.506200
C -7.186200 -22.413200 -42.114700
H -6.793900 -16.183000 -38.093800
C -6.788200 -17.033700 -38.469100
C -6.754500 -19.622700 -39.578400
C -6.737300 -20.957400 -40.178900
C -6.674900 -23.493500 -41.393600
H -6.628300 -24.332500 -41.790300
C -6.304100 -18.099000 -37.737600
C -6.282600 -19.374100 -38.284200
C -6.265400 -22.080300 -39.493500
C -6.241000 -23.328300 -40.103500
H -5.990700 -17.961100 -36.872600
H -5.963400 -21.991400 -38.618100
H -5.946200 -20.079100 -37.781100
H -5.925400 -24.062900 -39.627800
68
Fragment
H -12.767400 -18.680100 -44.283400
H -12.707200 -20.768900 -45.186000
C -12.386600 -18.803600 -45.123100
C -12.362200 -20.053300 -45.670600
H -12.147000 -16.252300 -44.384700
H -12.137700 -22.309800 -47.068500
C -11.840100 -17.689700 -45.810900
C -11.824300 -20.284400 -46.958000
C -11.821400 -21.580800 -47.552200
C -11.803500 -16.385500 -45.238100
H -11.378200 -22.616200 -49.180300
C -11.362400 -21.762100 -48.811900
C -11.324400 -19.185400 -47.691300
C -11.318000 -17.881400 -47.112600
C -11.281400 -15.341600 -45.911300
H -11.249800 -14.506800 -45.501700
C -10.855400 -20.681800 -49.591400
C -10.833900 -19.371600 -49.023600
C -10.799400 -16.774900 -47.853000
C -10.772200 -15.486200 -47.244500
H -10.379900 -21.716400 -51.265400
C -10.374200 -20.865700 -50.890100
C -10.340400 -18.276700 -49.780800
C -10.323200 -16.942000 -49.180300
C -10.260800 -14.405900 -47.965600
H -10.214200 -13.566900 -47.568900
C -9.890100 -19.800400 -51.621600
C -9.868500 -18.525300 -51.075000
C -9.851300 -15.819100 -49.865700
C -9.826900 -14.571100 -49.255700
H -9.576600 -19.938300 -52.486600
H -9.549400 -15.908000 -50.741100
H -9.532200 -17.820300 -51.578100
H -9.511400 -13.836500 -49.731400
H -9.181500 -19.219300 -45.075800
H -9.121200 -17.130500 -44.173200
C -8.800600 -19.095800 -44.236100
C -8.776300 -17.846100 -43.688600
H -8.561100 -21.647100 -44.974500
H -8.551800 -15.589600 -42.290700
C -8.254100 -20.209700 -43.548300
C -8.238400 -17.615000 -42.401200
C -8.235500 -16.318600 -41.807000
C -8.217600 -21.513900 -44.121100
H -7.792300 -15.283200 -40.178900
C -7.776500 -16.137300 -40.547300
C -7.738500 -18.714000 -41.667900
C -7.732000 -20.018000 -42.246600
C -7.695400 -22.557800 -43.447900
H -7.663900 -23.392600 -43.857500
C -7.269400 -17.217600 -39.767800
C -7.247900 -18.527800 -40.335600
C -7.213500 -21.124500 -41.506200
C -7.186200 -22.413200 -42.114700
H -6.793900 -16.183000 -38.093800
C -6.788200 -17.033700 -38.469100
C -6.754500 -19.622700 -39.578400
C -6.737300 -20.957400 -40.178900
C -6.674900 -23.493500 -41.393600
H -6.628300 -24.332500 -41.790300
C -6.304100 -18.099000 -37.737600
C -6.282600 -19.374100 -38.284200
C -6.265400 -22.080300 -39.493500
C -6.241000 -23.328300 -40.103500
H -5.990700 -17.961100 -36.872600
H -5.963400 -21.991400 -38.618100
H -5.946200 -20.079100 -37.781100
H -5.925400 -24.062900 -39.627800
