34
Fragment
H -12.767400 -18.680100 -44.283400
H -12.707200 -20.768900 -45.186000
C -12.386600 -18.803600 -45.123100
C -12.362200 -20.053300 -45.670600
H -12.147000 -16.252300 -44.384700
H -12.137700 -22.309800 -47.068500
C -11.840100 -17.689700 -45.810900
C -11.824300 -20.284400 -46.958000
C -11.821400 -21.580800 -47.552200
C -11.803500 -16.385500 -45.238100
H -11.378200 -22.616200 -49.180300
C -11.362400 -21.762100 -48.811900
C -11.324400 -19.185400 -47.691300
C -11.318000 -17.881400 -47.112600
C -11.281400 -15.341600 -45.911300
H -11.249800 -14.506800 -45.501700
C -10.855400 -20.681800 -49.591400
C -10.833900 -19.371600 -49.023600
C -10.799400 -16.774900 -47.853000
C -10.772200 -15.486200 -47.244500
H -10.379900 -21.716400 -51.265400
C -10.374200 -20.865700 -50.890100
C -10.340400 -18.276700 -49.780800
C -10.323200 -16.942000 -49.180300
C -10.260800 -14.405900 -47.965600
H -10.214200 -13.566900 -47.568900
C -9.890100 -19.800400 -51.621600
C -9.868500 -18.525300 -51.075000
C -9.851300 -15.819100 -49.865700
C -9.826900 -14.571100 -49.255700
H -9.576600 -19.938300 -52.486600
H -9.549400 -15.908000 -50.741100
H -9.532200 -17.820300 -51.578100
H -9.511400 -13.836500 -49.731400
20
Fragment
N -8.169500 -8.184800 -54.823400
H -7.919200 -11.038500 -54.157600
C -7.790100 -8.948200 -55.585300
H -7.770000 -13.190100 -53.505300
N -7.651700 -16.111900 -52.551800
C -7.609400 -11.676700 -54.758400
C -7.523300 -12.956600 -54.370900
C -7.351200 -15.760200 -53.597900
C -7.316800 -9.953900 -56.494100
C -7.231400 -11.268200 -56.090800
C -7.052800 -13.978700 -55.277000
C -6.968200 -15.304000 -54.906200
C -6.922300 -9.544700 -57.809100
C -6.753800 -12.288700 -56.988500
C -6.669900 -13.569700 -56.600400
N -6.599600 -9.267300 -58.877000
H -6.499200 -12.055300 -57.851100
C -6.489900 -16.294600 -55.823900
H -6.356500 -14.206900 -57.201800
N -6.097500 -17.064900 -56.582200
54
Fragment
H -12.767400 -18.680100 -44.283400
H -12.707200 -20.768900 -45.186000
C -12.386600 -18.803600 -45.123100
C -12.362200 -20.053300 -45.670600
H -12.147000 -16.252300 -44.384700
H -12.137700 -22.309800 -47.068500
C -11.840100 -17.689700 -45.810900
C -11.824300 -20.284400 -46.958000
C -11.821400 -21.580800 -47.552200
C -11.803500 -16.385500 -45.238100
H -11.378200 -22.616200 -49.180300
C -11.362400 -21.762100 -48.811900
C -11.324400 -19.185400 -47.691300
C -11.318000 -17.881400 -47.112600
C -11.281400 -15.341600 -45.911300
H -11.249800 -14.506800 -45.501700
C -10.855400 -20.681800 -49.591400
C -10.833900 -19.371600 -49.023600
C -10.799400 -16.774900 -47.853000
C -10.772200 -15.486200 -47.244500
H -10.379900 -21.716400 -51.265400
C -10.374200 -20.865700 -50.890100
C -10.340400 -18.276700 -49.780800
C -10.323200 -16.942000 -49.180300
C -10.260800 -14.405900 -47.965600
H -10.214200 -13.566900 -47.568900
C -9.890100 -19.800400 -51.621600
C -9.868500 -18.525300 -51.075000
C -9.851300 -15.819100 -49.865700
C -9.826900 -14.571100 -49.255700
H -9.576600 -19.938300 -52.486600
H -9.549400 -15.908000 -50.741100
H -9.532200 -17.820300 -51.578100
H -9.511400 -13.836500 -49.731400
N -8.169500 -8.184800 -54.823400
H -7.919200 -11.038500 -54.157600
C -7.790100 -8.948200 -55.585300
H -7.770000 -13.190100 -53.505300
N -7.651700 -16.111900 -52.551800
C -7.609400 -11.676700 -54.758400
C -7.523300 -12.956600 -54.370900
C -7.351200 -15.760200 -53.597900
C -7.316800 -9.953900 -56.494100
C -7.231400 -11.268200 -56.090800
C -7.052800 -13.978700 -55.277000
C -6.968200 -15.304000 -54.906200
C -6.922300 -9.544700 -57.809100
C -6.753800 -12.288700 -56.988500
C -6.669900 -13.569700 -56.600400
N -6.599600 -9.267300 -58.877000
H -6.499200 -12.055300 -57.851100
C -6.489900 -16.294600 -55.823900
H -6.356500 -14.206900 -57.201800
N -6.097500 -17.064900 -56.582200
