37
Fragment
H -16.392400 -22.783600 -22.365300
H -16.236100 -22.256700 -24.591900
C -15.527500 -22.762600 -22.780400
C -15.447300 -22.452800 -24.080300
H -14.397100 -23.303000 -21.101900
C -14.387800 -23.047000 -22.026700
C -14.241300 -22.368900 -24.750300
H -14.196000 -22.135400 -25.680600
C -13.139000 -22.972200 -22.700300
C -13.085600 -22.648800 -24.054800
Br -12.715600 -26.490400 -15.209200
N -12.561000 -25.956900 -17.963300
C -12.471600 -25.482400 -16.758100
O -12.376500 -25.603600 -21.034500
C -12.284200 -24.870200 -18.757000
H -12.230600 -22.626400 -24.493600
C -12.227700 -24.757900 -20.164300
N -12.154900 -24.165100 -16.690700
C -12.032300 -23.762500 -17.981500
N -11.949200 -23.436200 -20.555700
C -11.855300 -23.207200 -22.014000
H -11.781700 -23.702600 -15.846000
N -11.724200 -22.499200 -18.392900
C -11.693600 -22.359900 -19.691000
H -11.647700 -19.110300 -22.070400
N -11.436900 -21.231300 -20.375500
H -11.259700 -17.592500 -18.880800
C -11.137000 -20.159600 -19.676400
H -11.080700 -20.241900 -18.777100
N -10.844200 -19.011500 -20.257200
O -10.788400 -23.244600 -22.549200
C -10.783500 -18.897700 -21.710000
H -10.549100 -17.998100 -21.948400
C -10.518100 -17.823000 -19.443400
H -10.329500 -17.095500 -20.040500
H -10.131400 -19.505500 -22.065000
H -9.745700 -17.999600 -18.900900
37
Fragment
H -10.013300 -26.905900 -17.510000
H -9.627600 -25.400000 -14.345900
H -9.429500 -27.810000 -16.370300
C -9.240900 -27.082500 -16.967400
H -9.210000 -26.907400 -14.462400
C -8.975500 -26.007800 -14.700900
O -8.970600 -21.660900 -13.861600
N -8.914800 -25.894000 -16.153700
H -8.678400 -24.663600 -17.633800
C -8.622100 -24.745900 -16.734400
H -8.499300 -27.313000 -17.530000
N -8.322100 -23.674200 -16.035300
H -8.111300 -25.795200 -14.340400
C -8.065400 -22.545600 -16.719800
N -8.034900 -22.406300 -18.017900
H -7.977300 -21.202900 -20.564800
C -7.903700 -21.698300 -14.396800
N -7.809900 -21.469300 -15.855100
C -7.726700 -21.143000 -18.429300
N -7.604100 -20.740400 -19.720100
C -7.531300 -20.147600 -16.246500
H -7.528500 -22.279100 -11.917300
C -7.474800 -20.035300 -17.653800
O -7.382500 -19.301900 -15.376300
C -7.287400 -19.423100 -19.652700
N -7.198000 -18.948600 -18.447500
Br -7.043400 -18.415100 -21.201700
C -6.673500 -22.256700 -12.356000
C -6.620100 -21.933300 -13.710500
H -5.563100 -22.770100 -10.730300
C -5.517700 -22.536600 -11.660600
C -5.371200 -21.858500 -14.384100
H -5.361900 -21.602500 -15.308900
C -4.311700 -22.452800 -12.330500
C -4.231600 -22.142900 -13.630400
H -3.522900 -22.648800 -11.819000
H -3.366600 -22.121900 -14.045500
74
Fragment
H -16.392400 -22.783600 -22.365300
H -16.236100 -22.256700 -24.591900
C -15.527500 -22.762600 -22.780400
C -15.447300 -22.452800 -24.080300
H -14.397100 -23.303000 -21.101900
C -14.387800 -23.047000 -22.026700
C -14.241300 -22.368900 -24.750300
H -14.196000 -22.135400 -25.680600
C -13.139000 -22.972200 -22.700300
C -13.085600 -22.648800 -24.054800
Br -12.715600 -26.490400 -15.209200
N -12.561000 -25.956900 -17.963300
C -12.471600 -25.482400 -16.758100
O -12.376500 -25.603600 -21.034500
C -12.284200 -24.870200 -18.757000
H -12.230600 -22.626400 -24.493600
C -12.227700 -24.757900 -20.164300
N -12.154900 -24.165100 -16.690700
C -12.032300 -23.762500 -17.981500
N -11.949200 -23.436200 -20.555700
C -11.855300 -23.207200 -22.014000
H -11.781700 -23.702600 -15.846000
N -11.724200 -22.499200 -18.392900
C -11.693600 -22.359900 -19.691000
H -11.647700 -19.110300 -22.070400
N -11.436900 -21.231300 -20.375500
H -11.259700 -17.592500 -18.880800
C -11.137000 -20.159600 -19.676400
H -11.080700 -20.241900 -18.777100
N -10.844200 -19.011500 -20.257200
O -10.788400 -23.244600 -22.549200
C -10.783500 -18.897700 -21.710000
H -10.549100 -17.998100 -21.948400
C -10.518100 -17.823000 -19.443400
H -10.329500 -17.095500 -20.040500
H -10.131400 -19.505500 -22.065000
H -9.745700 -17.999600 -18.900900
H -10.013300 -26.905900 -17.510000
H -9.627600 -25.400000 -14.345900
H -9.429500 -27.810000 -16.370300
C -9.240900 -27.082500 -16.967400
H -9.210000 -26.907400 -14.462400
C -8.975500 -26.007800 -14.700900
O -8.970600 -21.660900 -13.861600
N -8.914800 -25.894000 -16.153700
H -8.678400 -24.663600 -17.633800
C -8.622100 -24.745900 -16.734400
H -8.499300 -27.313000 -17.530000
N -8.322100 -23.674200 -16.035300
H -8.111300 -25.795200 -14.340400
C -8.065400 -22.545600 -16.719800
N -8.034900 -22.406300 -18.017900
H -7.977300 -21.202900 -20.564800
C -7.903700 -21.698300 -14.396800
N -7.809900 -21.469300 -15.855100
C -7.726700 -21.143000 -18.429300
N -7.604100 -20.740400 -19.720100
C -7.531300 -20.147600 -16.246500
H -7.528500 -22.279100 -11.917300
C -7.474800 -20.035300 -17.653800
O -7.382500 -19.301900 -15.376300
C -7.287400 -19.423100 -19.652700
N -7.198000 -18.948600 -18.447500
Br -7.043400 -18.415100 -21.201700
C -6.673500 -22.256700 -12.356000
C -6.620100 -21.933300 -13.710500
H -5.563100 -22.770100 -10.730300
C -5.517700 -22.536600 -11.660600
C -5.371200 -21.858500 -14.384100
H -5.361900 -21.602500 -15.308900
C -4.311700 -22.452800 -12.330500
C -4.231600 -22.142900 -13.630400
H -3.522900 -22.648800 -11.819000
H -3.366600 -22.121900 -14.045500
