37
Fragment
H -16.392400 -22.783600 -22.365300
H -16.236100 -22.256700 -24.591900
C -15.527500 -22.762600 -22.780400
C -15.447300 -22.452800 -24.080300
H -14.397100 -23.303000 -21.101900
C -14.387800 -23.047000 -22.026700
C -14.241300 -22.368900 -24.750300
H -14.196000 -22.135400 -25.680600
C -13.139000 -22.972200 -22.700300
C -13.085600 -22.648800 -24.054800
Br -12.715600 -26.490400 -15.209200
N -12.561000 -25.956900 -17.963300
C -12.471600 -25.482400 -16.758100
O -12.376500 -25.603600 -21.034500
C -12.284200 -24.870200 -18.757000
H -12.230600 -22.626400 -24.493600
C -12.227700 -24.757900 -20.164300
N -12.154900 -24.165100 -16.690700
C -12.032300 -23.762500 -17.981500
N -11.949200 -23.436200 -20.555700
C -11.855300 -23.207200 -22.014000
H -11.781700 -23.702600 -15.846000
N -11.724200 -22.499200 -18.392900
C -11.693600 -22.359900 -19.691000
H -11.647700 -19.110300 -22.070400
N -11.436900 -21.231300 -20.375500
H -11.259700 -17.592500 -18.880800
C -11.137000 -20.159600 -19.676400
H -11.080700 -20.241900 -18.777100
N -10.844200 -19.011500 -20.257200
O -10.788400 -23.244600 -22.549200
C -10.783500 -18.897700 -21.710000
H -10.549100 -17.998100 -21.948400
C -10.518100 -17.823000 -19.443400
H -10.329500 -17.095500 -20.040500
H -10.131400 -19.505500 -22.065000
H -9.745700 -17.999600 -18.900900
37
Fragment
Br -16.305800 -26.575700 -16.202800
H -16.097900 -24.558800 -18.802500
C -15.934800 -24.780400 -16.485000
N -15.816000 -23.882200 -15.523800
H -15.707200 -19.194100 -22.552900
N -15.705800 -24.301400 -17.739400
O -15.601600 -18.396300 -16.339400
C -15.508600 -22.717700 -16.226500
C -15.435300 -22.972200 -17.568200
C -15.228000 -21.430400 -15.738600
O -15.206000 -21.003800 -14.575300
N -15.152200 -22.104000 -18.565900
H -15.085900 -20.888500 -20.721400
N -14.916300 -20.544300 -16.792700
C -14.903000 -20.884100 -18.125300
H -14.800900 -16.799100 -20.095100
C -14.769000 -19.016000 -22.441800
C -14.735100 -19.924600 -20.208000
C -14.658500 -19.137200 -16.461300
N -14.596200 -19.803300 -18.906300
H -14.541400 -18.201700 -22.895100
N -14.494100 -18.905200 -21.014500
H -14.260500 -19.742000 -22.811400
C -14.158600 -17.617900 -20.497500
H -13.633900 -16.758700 -16.268400
H -13.469300 -17.742200 -19.975000
H -13.383900 -17.040100 -20.932600
C -13.256400 -18.761500 -16.219200
C -12.932900 -17.402400 -16.150000
H -12.426200 -20.679000 -16.022600
C -12.274900 -19.718000 -16.044400
C -11.620900 -17.008700 -15.876900
H -11.400700 -16.074700 -15.862400
C -10.988900 -19.276400 -15.736800
C -10.691900 -17.945700 -15.671200
H -10.308100 -19.927600 -15.549200
H -9.798200 -17.659800 -15.469100
74
Fragment
H -16.392400 -22.783600 -22.365300
H -16.236100 -22.256700 -24.591900
C -15.527500 -22.762600 -22.780400
C -15.447300 -22.452800 -24.080300
H -14.397100 -23.303000 -21.101900
C -14.387800 -23.047000 -22.026700
C -14.241300 -22.368900 -24.750300
H -14.196000 -22.135400 -25.680600
C -13.139000 -22.972200 -22.700300
C -13.085600 -22.648800 -24.054800
Br -12.715600 -26.490400 -15.209200
N -12.561000 -25.956900 -17.963300
C -12.471600 -25.482400 -16.758100
O -12.376500 -25.603600 -21.034500
C -12.284200 -24.870200 -18.757000
H -12.230600 -22.626400 -24.493600
C -12.227700 -24.757900 -20.164300
N -12.154900 -24.165100 -16.690700
C -12.032300 -23.762500 -17.981500
N -11.949200 -23.436200 -20.555700
C -11.855300 -23.207200 -22.014000
H -11.781700 -23.702600 -15.846000
N -11.724200 -22.499200 -18.392900
C -11.693600 -22.359900 -19.691000
H -11.647700 -19.110300 -22.070400
N -11.436900 -21.231300 -20.375500
H -11.259700 -17.592500 -18.880800
C -11.137000 -20.159600 -19.676400
H -11.080700 -20.241900 -18.777100
N -10.844200 -19.011500 -20.257200
O -10.788400 -23.244600 -22.549200
C -10.783500 -18.897700 -21.710000
H -10.549100 -17.998100 -21.948400
C -10.518100 -17.823000 -19.443400
H -10.329500 -17.095500 -20.040500
H -10.131400 -19.505500 -22.065000
H -9.745700 -17.999600 -18.900900
Br -16.305800 -26.575700 -16.202800
H -16.097900 -24.558800 -18.802500
C -15.934800 -24.780400 -16.485000
N -15.816000 -23.882200 -15.523800
H -15.707200 -19.194100 -22.552900
N -15.705800 -24.301400 -17.739400
O -15.601600 -18.396300 -16.339400
C -15.508600 -22.717700 -16.226500
C -15.435300 -22.972200 -17.568200
C -15.228000 -21.430400 -15.738600
O -15.206000 -21.003800 -14.575300
N -15.152200 -22.104000 -18.565900
H -15.085900 -20.888500 -20.721400
N -14.916300 -20.544300 -16.792700
C -14.903000 -20.884100 -18.125300
H -14.800900 -16.799100 -20.095100
C -14.769000 -19.016000 -22.441800
C -14.735100 -19.924600 -20.208000
C -14.658500 -19.137200 -16.461300
N -14.596200 -19.803300 -18.906300
H -14.541400 -18.201700 -22.895100
N -14.494100 -18.905200 -21.014500
H -14.260500 -19.742000 -22.811400
C -14.158600 -17.617900 -20.497500
H -13.633900 -16.758700 -16.268400
H -13.469300 -17.742200 -19.975000
H -13.383900 -17.040100 -20.932600
C -13.256400 -18.761500 -16.219200
C -12.932900 -17.402400 -16.150000
H -12.426200 -20.679000 -16.022600
C -12.274900 -19.718000 -16.044400
C -11.620900 -17.008700 -15.876900
H -11.400700 -16.074700 -15.862400
C -10.988900 -19.276400 -15.736800
C -10.691900 -17.945700 -15.671200
H -10.308100 -19.927600 -15.549200
H -9.798200 -17.659800 -15.469100
