37
Fragment
H -16.392400 -22.783600 -22.365300
H -16.236100 -22.256700 -24.591900
C -15.527500 -22.762600 -22.780400
C -15.447300 -22.452800 -24.080300
H -14.397100 -23.303000 -21.101900
C -14.387800 -23.047000 -22.026700
C -14.241300 -22.368900 -24.750300
H -14.196000 -22.135400 -25.680600
C -13.139000 -22.972200 -22.700300
C -13.085600 -22.648800 -24.054800
Br -12.715600 -26.490400 -15.209200
N -12.561000 -25.956900 -17.963300
C -12.471600 -25.482400 -16.758100
O -12.376500 -25.603600 -21.034500
C -12.284200 -24.870200 -18.757000
H -12.230600 -22.626400 -24.493600
C -12.227700 -24.757900 -20.164300
N -12.154900 -24.165100 -16.690700
C -12.032300 -23.762500 -17.981500
N -11.949200 -23.436200 -20.555700
C -11.855300 -23.207200 -22.014000
H -11.781700 -23.702600 -15.846000
N -11.724200 -22.499200 -18.392900
C -11.693600 -22.359900 -19.691000
H -11.647700 -19.110300 -22.070400
N -11.436900 -21.231300 -20.375500
H -11.259700 -17.592500 -18.880800
C -11.137000 -20.159600 -19.676400
H -11.080700 -20.241900 -18.777100
N -10.844200 -19.011500 -20.257200
O -10.788400 -23.244600 -22.549200
C -10.783500 -18.897700 -21.710000
H -10.549100 -17.998100 -21.948400
C -10.518100 -17.823000 -19.443400
H -10.329500 -17.095500 -20.040500
H -10.131400 -19.505500 -22.065000
H -9.745700 -17.999600 -18.900900
37
Fragment
H -12.241000 -25.144100 -11.839000
H -11.731200 -27.411800 -11.758900
C -11.347300 -25.430000 -11.636900
C -11.050400 -26.760700 -11.571400
H -10.638500 -23.558900 -11.445700
C -10.418400 -24.493000 -11.431200
C -9.764300 -27.202300 -11.263700
H -9.613000 -28.163200 -11.285500
C -9.106300 -24.886600 -11.158100
C -8.782900 -26.245800 -11.088900
H -8.655300 -24.524400 -6.375500
H -8.569900 -25.226400 -7.333100
H -8.405300 -24.243000 -11.039800
C -7.880600 -25.102200 -6.810600
H -7.778700 -27.226200 -4.496700
N -7.545200 -26.389500 -6.293600
H -7.497900 -25.685900 -4.413000
N -7.443000 -27.287600 -8.401800
C -7.380700 -26.621500 -10.846800
C -7.304100 -27.408800 -7.100100
C -7.270200 -26.500200 -4.866300
H -7.238300 -24.283400 -7.213000
C -7.136200 -28.368300 -9.182800
N -7.123000 -28.028500 -10.515400
H -6.953300 -28.372800 -6.586700
N -6.887000 -29.588200 -8.742200
O -6.833200 -28.488000 -12.732900
C -6.811300 -28.914700 -11.569500
C -6.603900 -30.456400 -9.739900
C -6.530600 -30.201900 -11.081600
O -6.437600 -25.880500 -10.968800
N -6.333400 -31.785600 -9.568800
H -6.332000 -26.678400 -4.755300
N -6.223200 -31.366500 -11.784400
C -6.104400 -32.264600 -10.823100
H -5.941300 -32.043100 -8.505600
Br -5.733400 -34.059900 -11.105300
74
Fragment
H -16.392400 -22.783600 -22.365300
H -16.236100 -22.256700 -24.591900
C -15.527500 -22.762600 -22.780400
C -15.447300 -22.452800 -24.080300
H -14.397100 -23.303000 -21.101900
C -14.387800 -23.047000 -22.026700
C -14.241300 -22.368900 -24.750300
H -14.196000 -22.135400 -25.680600
C -13.139000 -22.972200 -22.700300
C -13.085600 -22.648800 -24.054800
Br -12.715600 -26.490400 -15.209200
N -12.561000 -25.956900 -17.963300
C -12.471600 -25.482400 -16.758100
O -12.376500 -25.603600 -21.034500
C -12.284200 -24.870200 -18.757000
H -12.230600 -22.626400 -24.493600
C -12.227700 -24.757900 -20.164300
N -12.154900 -24.165100 -16.690700
C -12.032300 -23.762500 -17.981500
N -11.949200 -23.436200 -20.555700
C -11.855300 -23.207200 -22.014000
H -11.781700 -23.702600 -15.846000
N -11.724200 -22.499200 -18.392900
C -11.693600 -22.359900 -19.691000
H -11.647700 -19.110300 -22.070400
N -11.436900 -21.231300 -20.375500
H -11.259700 -17.592500 -18.880800
C -11.137000 -20.159600 -19.676400
H -11.080700 -20.241900 -18.777100
N -10.844200 -19.011500 -20.257200
O -10.788400 -23.244600 -22.549200
C -10.783500 -18.897700 -21.710000
H -10.549100 -17.998100 -21.948400
C -10.518100 -17.823000 -19.443400
H -10.329500 -17.095500 -20.040500
H -10.131400 -19.505500 -22.065000
H -9.745700 -17.999600 -18.900900
H -12.241000 -25.144100 -11.839000
H -11.731200 -27.411800 -11.758900
C -11.347300 -25.430000 -11.636900
C -11.050400 -26.760700 -11.571400
H -10.638500 -23.558900 -11.445700
C -10.418400 -24.493000 -11.431200
C -9.764300 -27.202300 -11.263700
H -9.613000 -28.163200 -11.285500
C -9.106300 -24.886600 -11.158100
C -8.782900 -26.245800 -11.088900
H -8.655300 -24.524400 -6.375500
H -8.569900 -25.226400 -7.333100
H -8.405300 -24.243000 -11.039800
C -7.880600 -25.102200 -6.810600
H -7.778700 -27.226200 -4.496700
N -7.545200 -26.389500 -6.293600
H -7.497900 -25.685900 -4.413000
N -7.443000 -27.287600 -8.401800
C -7.380700 -26.621500 -10.846800
C -7.304100 -27.408800 -7.100100
C -7.270200 -26.500200 -4.866300
H -7.238300 -24.283400 -7.213000
C -7.136200 -28.368300 -9.182800
N -7.123000 -28.028500 -10.515400
H -6.953300 -28.372800 -6.586700
N -6.887000 -29.588200 -8.742200
O -6.833200 -28.488000 -12.732900
C -6.811300 -28.914700 -11.569500
C -6.603900 -30.456400 -9.739900
C -6.530600 -30.201900 -11.081600
O -6.437600 -25.880500 -10.968800
N -6.333400 -31.785600 -9.568800
H -6.332000 -26.678400 -4.755300
N -6.223200 -31.366500 -11.784400
C -6.104400 -32.264600 -10.823100
H -5.941300 -32.043100 -8.505600
Br -5.733400 -34.059900 -11.105300
