37
Fragment
H -16.392400 -22.783600 -22.365300
H -16.236100 -22.256700 -24.591900
C -15.527500 -22.762600 -22.780400
C -15.447300 -22.452800 -24.080300
H -14.397100 -23.303000 -21.101900
C -14.387800 -23.047000 -22.026700
C -14.241300 -22.368900 -24.750300
H -14.196000 -22.135400 -25.680600
C -13.139000 -22.972200 -22.700300
C -13.085600 -22.648800 -24.054800
Br -12.715600 -26.490400 -15.209200
N -12.561000 -25.956900 -17.963300
C -12.471600 -25.482400 -16.758100
O -12.376500 -25.603600 -21.034500
C -12.284200 -24.870200 -18.757000
H -12.230600 -22.626400 -24.493600
C -12.227700 -24.757900 -20.164300
N -12.154900 -24.165100 -16.690700
C -12.032300 -23.762500 -17.981500
N -11.949200 -23.436200 -20.555700
C -11.855300 -23.207200 -22.014000
H -11.781700 -23.702600 -15.846000
N -11.724200 -22.499200 -18.392900
C -11.693600 -22.359900 -19.691000
H -11.647700 -19.110300 -22.070400
N -11.436900 -21.231300 -20.375500
H -11.259700 -17.592500 -18.880800
C -11.137000 -20.159600 -19.676400
H -11.080700 -20.241900 -18.777100
N -10.844200 -19.011500 -20.257200
O -10.788400 -23.244600 -22.549200
C -10.783500 -18.897700 -21.710000
H -10.549100 -17.998100 -21.948400
C -10.518100 -17.823000 -19.443400
H -10.329500 -17.095500 -20.040500
H -10.131400 -19.505500 -22.065000
H -9.745700 -17.999600 -18.900900
37
Fragment
H -22.120600 -25.144100 -30.044400
H -21.610700 -27.411800 -29.964300
C -21.226800 -25.430000 -29.842300
C -20.929900 -26.760700 -29.776800
H -20.518000 -23.558900 -29.651200
C -20.297900 -24.493000 -29.636600
C -19.643800 -27.202300 -29.469100
H -19.492500 -28.163200 -29.490900
C -18.985800 -24.886600 -29.363500
C -18.662400 -26.245800 -29.294300
H -18.534800 -24.524400 -24.580900
H -18.449400 -25.226400 -25.538500
H -18.284800 -24.243000 -29.245200
C -17.760100 -25.102200 -25.016100
H -17.658200 -27.226200 -22.702100
N -17.424700 -26.389500 -24.499000
H -17.377400 -25.685900 -22.618400
N -17.322600 -27.287600 -26.607200
C -17.260300 -26.621500 -29.052200
C -17.183700 -27.408800 -25.305500
C -17.149700 -26.500200 -23.071700
H -17.117800 -24.283400 -25.418400
C -17.015700 -28.368300 -27.388200
N -17.002500 -28.028500 -28.720900
H -16.832900 -28.372800 -24.792100
N -16.766500 -29.588200 -26.947600
O -16.712700 -28.488000 -30.938300
C -16.690800 -28.914700 -29.774900
C -16.483400 -30.456400 -27.945300
C -16.410100 -30.201900 -29.287000
O -16.317100 -25.880500 -29.174200
N -16.212900 -31.785600 -27.774200
H -16.211500 -26.678400 -22.960700
N -16.102700 -31.366500 -29.989800
C -15.983900 -32.264600 -29.028500
H -15.820800 -32.043100 -26.711000
Br -15.612900 -34.059900 -29.310700
74
Fragment
H -16.392400 -22.783600 -22.365300
H -16.236100 -22.256700 -24.591900
C -15.527500 -22.762600 -22.780400
C -15.447300 -22.452800 -24.080300
H -14.397100 -23.303000 -21.101900
C -14.387800 -23.047000 -22.026700
C -14.241300 -22.368900 -24.750300
H -14.196000 -22.135400 -25.680600
C -13.139000 -22.972200 -22.700300
C -13.085600 -22.648800 -24.054800
Br -12.715600 -26.490400 -15.209200
N -12.561000 -25.956900 -17.963300
C -12.471600 -25.482400 -16.758100
O -12.376500 -25.603600 -21.034500
C -12.284200 -24.870200 -18.757000
H -12.230600 -22.626400 -24.493600
C -12.227700 -24.757900 -20.164300
N -12.154900 -24.165100 -16.690700
C -12.032300 -23.762500 -17.981500
N -11.949200 -23.436200 -20.555700
C -11.855300 -23.207200 -22.014000
H -11.781700 -23.702600 -15.846000
N -11.724200 -22.499200 -18.392900
C -11.693600 -22.359900 -19.691000
H -11.647700 -19.110300 -22.070400
N -11.436900 -21.231300 -20.375500
H -11.259700 -17.592500 -18.880800
C -11.137000 -20.159600 -19.676400
H -11.080700 -20.241900 -18.777100
N -10.844200 -19.011500 -20.257200
O -10.788400 -23.244600 -22.549200
C -10.783500 -18.897700 -21.710000
H -10.549100 -17.998100 -21.948400
C -10.518100 -17.823000 -19.443400
H -10.329500 -17.095500 -20.040500
H -10.131400 -19.505500 -22.065000
H -9.745700 -17.999600 -18.900900
H -22.120600 -25.144100 -30.044400
H -21.610700 -27.411800 -29.964300
C -21.226800 -25.430000 -29.842300
C -20.929900 -26.760700 -29.776800
H -20.518000 -23.558900 -29.651200
C -20.297900 -24.493000 -29.636600
C -19.643800 -27.202300 -29.469100
H -19.492500 -28.163200 -29.490900
C -18.985800 -24.886600 -29.363500
C -18.662400 -26.245800 -29.294300
H -18.534800 -24.524400 -24.580900
H -18.449400 -25.226400 -25.538500
H -18.284800 -24.243000 -29.245200
C -17.760100 -25.102200 -25.016100
H -17.658200 -27.226200 -22.702100
N -17.424700 -26.389500 -24.499000
H -17.377400 -25.685900 -22.618400
N -17.322600 -27.287600 -26.607200
C -17.260300 -26.621500 -29.052200
C -17.183700 -27.408800 -25.305500
C -17.149700 -26.500200 -23.071700
H -17.117800 -24.283400 -25.418400
C -17.015700 -28.368300 -27.388200
N -17.002500 -28.028500 -28.720900
H -16.832900 -28.372800 -24.792100
N -16.766500 -29.588200 -26.947600
O -16.712700 -28.488000 -30.938300
C -16.690800 -28.914700 -29.774900
C -16.483400 -30.456400 -27.945300
C -16.410100 -30.201900 -29.287000
O -16.317100 -25.880500 -29.174200
N -16.212900 -31.785600 -27.774200
H -16.211500 -26.678400 -22.960700
N -16.102700 -31.366500 -29.989800
C -15.983900 -32.264600 -29.028500
H -15.820800 -32.043100 -26.711000
Br -15.612900 -34.059900 -29.310700
