16
Fragment
H -18.734500 -13.023500 -16.976600
H -18.734500 -11.455500 -16.976600
H -18.303900 -12.239500 -15.688900
C -18.287200 -12.239500 -16.648700
H -18.166300 -13.023500 -19.433900
H -18.166300 -11.455500 -19.433900
C -17.621600 -12.239500 -19.534100
H -17.218100 -12.239500 -20.405500
C -16.867000 -12.239500 -17.122900
C -16.548800 -12.239500 -18.488900
N -15.902600 -12.239500 -16.196400
N -15.279300 -12.239500 -18.903300
C -14.631600 -12.239500 -16.628700
C -14.325200 -12.239500 -17.961700
H -13.926000 -12.239500 -15.992300
H -13.412800 -12.239500 -18.227200
8
Fragment
N -16.402600 -13.389600 -24.867700
N -16.402600 -11.089400 -24.867700
C -16.316000 -12.239500 -24.172000
H -16.313400 -13.351500 -25.749700
H -16.313400 -11.127500 -25.749700
O -16.226600 -12.239500 -22.922200
H -16.203300 -14.127900 -24.434200
H -16.203300 -10.351100 -24.434200
24
Fragment
H -18.734500 -13.023500 -16.976600
H -18.734500 -11.455500 -16.976600
H -18.303900 -12.239500 -15.688900
C -18.287200 -12.239500 -16.648700
H -18.166300 -13.023500 -19.433900
H -18.166300 -11.455500 -19.433900
C -17.621600 -12.239500 -19.534100
H -17.218100 -12.239500 -20.405500
C -16.867000 -12.239500 -17.122900
C -16.548800 -12.239500 -18.488900
N -15.902600 -12.239500 -16.196400
N -15.279300 -12.239500 -18.903300
C -14.631600 -12.239500 -16.628700
C -14.325200 -12.239500 -17.961700
H -13.926000 -12.239500 -15.992300
H -13.412800 -12.239500 -18.227200
N -16.402600 -13.389600 -24.867700
N -16.402600 -11.089400 -24.867700
C -16.316000 -12.239500 -24.172000
H -16.313400 -13.351500 -25.749700
H -16.313400 -11.127500 -25.749700
O -16.226600 -12.239500 -22.922200
H -16.203300 -14.127900 -24.434200
H -16.203300 -10.351100 -24.434200
