16
Fragment
H -18.734500 -13.023500 -16.976600
H -18.734500 -11.455500 -16.976600
H -18.303900 -12.239500 -15.688900
C -18.287200 -12.239500 -16.648700
H -18.166300 -13.023500 -19.433900
H -18.166300 -11.455500 -19.433900
C -17.621600 -12.239500 -19.534100
H -17.218100 -12.239500 -20.405500
C -16.867000 -12.239500 -17.122900
C -16.548800 -12.239500 -18.488900
N -15.902600 -12.239500 -16.196400
N -15.279300 -12.239500 -18.903300
C -14.631600 -12.239500 -16.628700
C -14.325200 -12.239500 -17.961700
H -13.926000 -12.239500 -15.992300
H -13.412800 -12.239500 -18.227200
16
Fragment
H -24.025600 -13.023500 -11.973900
H -24.025600 -11.455500 -11.973900
H -23.594900 -12.239500 -13.261600
C -23.578300 -12.239500 -12.301800
H -23.457300 -13.023500 -9.516600
H -23.457300 -11.455500 -9.516600
C -22.912700 -12.239500 -9.416400
H -22.509200 -12.239500 -8.545000
C -22.158100 -12.239500 -11.827600
C -21.839900 -12.239500 -10.461600
N -21.193600 -12.239500 -12.754100
N -20.570300 -12.239500 -10.047200
C -19.922600 -12.239500 -12.321800
C -19.616300 -12.239500 -10.988800
H -19.217100 -12.239500 -12.958200
H -18.703900 -12.239500 -10.723300
32
Fragment
H -18.734500 -13.023500 -16.976600
H -18.734500 -11.455500 -16.976600
H -18.303900 -12.239500 -15.688900
C -18.287200 -12.239500 -16.648700
H -18.166300 -13.023500 -19.433900
H -18.166300 -11.455500 -19.433900
C -17.621600 -12.239500 -19.534100
H -17.218100 -12.239500 -20.405500
C -16.867000 -12.239500 -17.122900
C -16.548800 -12.239500 -18.488900
N -15.902600 -12.239500 -16.196400
N -15.279300 -12.239500 -18.903300
C -14.631600 -12.239500 -16.628700
C -14.325200 -12.239500 -17.961700
H -13.926000 -12.239500 -15.992300
H -13.412800 -12.239500 -18.227200
H -24.025600 -13.023500 -11.973900
H -24.025600 -11.455500 -11.973900
H -23.594900 -12.239500 -13.261600
C -23.578300 -12.239500 -12.301800
H -23.457300 -13.023500 -9.516600
H -23.457300 -11.455500 -9.516600
C -22.912700 -12.239500 -9.416400
H -22.509200 -12.239500 -8.545000
C -22.158100 -12.239500 -11.827600
C -21.839900 -12.239500 -10.461600
N -21.193600 -12.239500 -12.754100
N -20.570300 -12.239500 -10.047200
C -19.922600 -12.239500 -12.321800
C -19.616300 -12.239500 -10.988800
H -19.217100 -12.239500 -12.958200
H -18.703900 -12.239500 -10.723300
