8
Fragment
H -13.949400 -30.878200 -11.751400
N -13.176100 -30.461200 -11.567300
H -13.142000 -29.886100 -11.031200
C -12.016100 -31.054600 -11.921900
O -12.010500 -32.071300 -12.642800
H -10.913100 -29.802300 -10.857300
N -10.879100 -30.456200 -11.513100
H -10.129700 -30.870600 -11.694800
13
Fragment
H -12.851300 -31.302900 -16.644000
H -12.653600 -29.402400 -14.036600
N -12.463000 -27.541500 -14.663300
C -12.436500 -28.871900 -14.793600
H -12.172400 -31.403800 -15.198700
C -12.141200 -26.852300 -15.757600
H -12.140300 -25.902300 -15.720400
C -12.107700 -29.520300 -15.981500
C -12.096100 -31.010200 -16.092200
C -11.811700 -27.472000 -16.935700
N -11.793300 -28.801200 -17.069200
H -11.588100 -26.934400 -17.686500
H -11.256700 -31.301000 -16.506900
21
Fragment
H -13.949400 -30.878200 -11.751400
N -13.176100 -30.461200 -11.567300
H -13.142000 -29.886100 -11.031200
C -12.016100 -31.054600 -11.921900
O -12.010500 -32.071300 -12.642800
H -10.913100 -29.802300 -10.857300
N -10.879100 -30.456200 -11.513100
H -10.129700 -30.870600 -11.694800
H -12.851300 -31.302900 -16.644000
H -12.653600 -29.402400 -14.036600
N -12.463000 -27.541500 -14.663300
C -12.436500 -28.871900 -14.793600
H -12.172400 -31.403800 -15.198700
C -12.141200 -26.852300 -15.757600
H -12.140300 -25.902300 -15.720400
C -12.107700 -29.520300 -15.981500
C -12.096100 -31.010200 -16.092200
C -11.811700 -27.472000 -16.935700
N -11.793300 -28.801200 -17.069200
H -11.588100 -26.934400 -17.686500
H -11.256700 -31.301000 -16.506900
