8
Fragment
H -13.949400 -30.878200 -11.751400
N -13.176100 -30.461200 -11.567300
H -13.142000 -29.886100 -11.031200
C -12.016100 -31.054600 -11.921900
O -12.010500 -32.071300 -12.642800
H -10.913100 -29.802300 -10.857300
N -10.879100 -30.456200 -11.513100
H -10.129700 -30.870600 -11.694800
8
Fragment
H -10.424900 -32.795900 -13.519700
N -9.647400 -33.111200 -13.881000
H -9.617100 -33.569000 -14.612500
O -8.502700 -32.069600 -12.223200
C -8.498500 -32.748200 -13.286000
H -7.386500 -33.557600 -14.543100
N -7.350000 -33.138800 -13.842900
H -6.574800 -32.839700 -13.462300
16
Fragment
H -13.949400 -30.878200 -11.751400
N -13.176100 -30.461200 -11.567300
H -13.142000 -29.886100 -11.031200
C -12.016100 -31.054600 -11.921900
O -12.010500 -32.071300 -12.642800
H -10.913100 -29.802300 -10.857300
N -10.879100 -30.456200 -11.513100
H -10.129700 -30.870600 -11.694800
H -10.424900 -32.795900 -13.519700
N -9.647400 -33.111200 -13.881000
H -9.617100 -33.569000 -14.612500
O -8.502700 -32.069600 -12.223200
C -8.498500 -32.748200 -13.286000
H -7.386500 -33.557600 -14.543100
N -7.350000 -33.138800 -13.842900
H -6.574800 -32.839700 -13.462300
