8
Fragment
H -13.949400 -30.878200 -11.751400
N -13.176100 -30.461200 -11.567300
H -13.142000 -29.886100 -11.031200
C -12.016100 -31.054600 -11.921900
O -12.010500 -32.071300 -12.642800
H -10.913100 -29.802300 -10.857300
N -10.879100 -30.456200 -11.513100
H -10.129700 -30.870600 -11.694800
13
Fragment
H -16.622900 -25.828000 -7.421900
H -16.291500 -30.194600 -6.242200
N -16.086300 -28.327800 -6.859600
C -16.067900 -29.657000 -6.993000
C -15.783500 -26.118800 -7.836500
C -15.771900 -27.608700 -7.947200
H -15.739300 -31.226700 -8.208400
C -15.738400 -30.276700 -8.171200
H -15.707200 -25.725200 -8.730000
C -15.443100 -28.257100 -9.135100
N -15.416600 -29.587500 -9.265500
H -15.226000 -27.726600 -9.892100
H -15.028200 -25.826100 -7.284700
21
Fragment
H -13.949400 -30.878200 -11.751400
N -13.176100 -30.461200 -11.567300
H -13.142000 -29.886100 -11.031200
C -12.016100 -31.054600 -11.921900
O -12.010500 -32.071300 -12.642800
H -10.913100 -29.802300 -10.857300
N -10.879100 -30.456200 -11.513100
H -10.129700 -30.870600 -11.694800
H -16.622900 -25.828000 -7.421900
H -16.291500 -30.194600 -6.242200
N -16.086300 -28.327800 -6.859600
C -16.067900 -29.657000 -6.993000
C -15.783500 -26.118800 -7.836500
C -15.771900 -27.608700 -7.947200
H -15.739300 -31.226700 -8.208400
C -15.738400 -30.276700 -8.171200
H -15.707200 -25.725200 -8.730000
C -15.443100 -28.257100 -9.135100
N -15.416600 -29.587500 -9.265500
H -15.226000 -27.726600 -9.892100
H -15.028200 -25.826100 -7.284700
