8
Fragment
H -13.949400 -30.878200 -11.751400
N -13.176100 -30.461200 -11.567300
H -13.142000 -29.886100 -11.031200
C -12.016100 -31.054600 -11.921900
O -12.010500 -32.071300 -12.642800
H -10.913100 -29.802300 -10.857300
N -10.879100 -30.456200 -11.513100
H -10.129700 -30.870600 -11.694800
13
Fragment
H -12.912900 -35.347600 -12.655900
H -12.715100 -37.248100 -10.048500
N -12.524500 -39.109000 -10.675200
C -12.498100 -37.778600 -10.805500
H -12.233900 -35.246700 -11.210600
C -12.202700 -39.798200 -11.769400
H -12.201800 -40.748200 -11.732300
C -12.169200 -37.130200 -11.993400
C -12.157600 -35.640300 -12.104100
C -11.873300 -39.178500 -12.947600
N -11.854800 -37.849300 -13.081100
H -11.649600 -39.716100 -13.698400
H -11.318200 -35.349500 -12.518700
21
Fragment
H -13.949400 -30.878200 -11.751400
N -13.176100 -30.461200 -11.567300
H -13.142000 -29.886100 -11.031200
C -12.016100 -31.054600 -11.921900
O -12.010500 -32.071300 -12.642800
H -10.913100 -29.802300 -10.857300
N -10.879100 -30.456200 -11.513100
H -10.129700 -30.870600 -11.694800
H -12.912900 -35.347600 -12.655900
H -12.715100 -37.248100 -10.048500
N -12.524500 -39.109000 -10.675200
C -12.498100 -37.778600 -10.805500
H -12.233900 -35.246700 -11.210600
C -12.202700 -39.798200 -11.769400
H -12.201800 -40.748200 -11.732300
C -12.169200 -37.130200 -11.993400
C -12.157600 -35.640300 -12.104100
C -11.873300 -39.178500 -12.947600
N -11.854800 -37.849300 -13.081100
H -11.649600 -39.716100 -13.698400
H -11.318200 -35.349500 -12.518700
