13
Fragment
H -11.239500 -11.113200 -46.609900
O -11.017500 -9.131000 -45.265200
N -10.429800 -10.735300 -46.743500
C -10.140500 -9.595800 -46.037800
H -9.764700 -12.077000 -48.104100
C -9.543100 -11.291000 -47.618800
N -8.933700 -9.003000 -46.180800
C -8.354000 -10.699800 -47.775200
C -8.042600 -9.520000 -47.039300
F -7.416000 -11.193300 -48.616000
N -6.866300 -8.930300 -47.192100
H -6.636900 -8.201600 -46.671000
H -6.281200 -9.252300 -47.722400
25
Fragment
H -4.438500 -9.864900 -50.113500
H -4.372800 -13.428900 -53.306000
H -4.337500 -12.384800 -51.145300
O -4.196000 -8.670500 -47.922300
H -4.056000 -7.956000 -47.401500
N -3.933300 -12.714400 -53.160300
C -3.849100 -12.113700 -51.913900
H -3.572400 -10.874900 -49.225400
C -3.540600 -10.022300 -49.727500
C -3.212900 -8.902600 -48.774300
H -3.169000 -13.036100 -55.835900
C -3.064500 -12.073000 -54.017200
C -2.962800 -11.077200 -51.951500
C -2.765700 -12.318700 -55.361900
C -2.533300 -10.149300 -50.854100
C -2.458300 -11.024400 -53.298700
H -2.372100 -9.252100 -51.240000
O -2.183400 -8.280600 -48.778900
C -1.859500 -11.472900 -55.970100
H -1.676100 -10.473800 -50.479700
H -1.635100 -11.615400 -56.882400
C -1.547300 -10.176500 -53.946300
C -1.260400 -10.408100 -55.279100
H -1.136200 -9.458700 -53.479000
H -0.649700 -9.839200 -55.733000
38
Fragment
H -11.239500 -11.113200 -46.609900
O -11.017500 -9.131000 -45.265200
N -10.429800 -10.735300 -46.743500
C -10.140500 -9.595800 -46.037800
H -9.764700 -12.077000 -48.104100
C -9.543100 -11.291000 -47.618800
N -8.933700 -9.003000 -46.180800
C -8.354000 -10.699800 -47.775200
C -8.042600 -9.520000 -47.039300
F -7.416000 -11.193300 -48.616000
N -6.866300 -8.930300 -47.192100
H -6.636900 -8.201600 -46.671000
H -6.281200 -9.252300 -47.722400
H -4.438500 -9.864900 -50.113500
H -4.372800 -13.428900 -53.306000
H -4.337500 -12.384800 -51.145300
O -4.196000 -8.670500 -47.922300
H -4.056000 -7.956000 -47.401500
N -3.933300 -12.714400 -53.160300
C -3.849100 -12.113700 -51.913900
H -3.572400 -10.874900 -49.225400
C -3.540600 -10.022300 -49.727500
C -3.212900 -8.902600 -48.774300
H -3.169000 -13.036100 -55.835900
C -3.064500 -12.073000 -54.017200
C -2.962800 -11.077200 -51.951500
C -2.765700 -12.318700 -55.361900
C -2.533300 -10.149300 -50.854100
C -2.458300 -11.024400 -53.298700
H -2.372100 -9.252100 -51.240000
O -2.183400 -8.280600 -48.778900
C -1.859500 -11.472900 -55.970100
H -1.676100 -10.473800 -50.479700
H -1.635100 -11.615400 -56.882400
C -1.547300 -10.176500 -53.946300
C -1.260400 -10.408100 -55.279100
H -1.136200 -9.458700 -53.479000
H -0.649700 -9.839200 -55.733000
