13
Fragment
H -11.239500 -11.113200 -46.609900
O -11.017500 -9.131000 -45.265200
N -10.429800 -10.735300 -46.743500
C -10.140500 -9.595800 -46.037800
H -9.764700 -12.077000 -48.104100
C -9.543100 -11.291000 -47.618800
N -8.933700 -9.003000 -46.180800
C -8.354000 -10.699800 -47.775200
C -8.042600 -9.520000 -47.039300
F -7.416000 -11.193300 -48.616000
N -6.866300 -8.930300 -47.192100
H -6.636900 -8.201600 -46.671000
H -6.281200 -9.252300 -47.722400
13
Fragment
H -8.633600 -11.656900 -43.963300
H -8.277900 -12.707600 -45.014600
N -8.048500 -11.978900 -44.493500
F -7.498800 -9.715900 -43.069600
C -6.872200 -11.389200 -44.646300
C -6.560800 -10.209400 -43.910400
N -5.981100 -11.906200 -45.504800
C -5.371700 -9.618200 -44.066900
H -5.150100 -8.832200 -43.581500
C -4.774200 -11.313400 -45.647800
N -4.485000 -10.173900 -44.942200
O -3.897300 -11.778200 -46.420400
H -3.675200 -9.796000 -45.075700
26
Fragment
H -11.239500 -11.113200 -46.609900
O -11.017500 -9.131000 -45.265200
N -10.429800 -10.735300 -46.743500
C -10.140500 -9.595800 -46.037800
H -9.764700 -12.077000 -48.104100
C -9.543100 -11.291000 -47.618800
N -8.933700 -9.003000 -46.180800
C -8.354000 -10.699800 -47.775200
C -8.042600 -9.520000 -47.039300
F -7.416000 -11.193300 -48.616000
N -6.866300 -8.930300 -47.192100
H -6.636900 -8.201600 -46.671000
H -6.281200 -9.252300 -47.722400
H -8.633600 -11.656900 -43.963300
H -8.277900 -12.707600 -45.014600
N -8.048500 -11.978900 -44.493500
F -7.498800 -9.715900 -43.069600
C -6.872200 -11.389200 -44.646300
C -6.560800 -10.209400 -43.910400
N -5.981100 -11.906200 -45.504800
C -5.371700 -9.618200 -44.066900
H -5.150100 -8.832200 -43.581500
C -4.774200 -11.313400 -45.647800
N -4.485000 -10.173900 -44.942200
O -3.897300 -11.778200 -46.420400
H -3.675200 -9.796000 -45.075700
