13
Fragment
H -11.239500 -11.113200 -46.609900
O -11.017500 -9.131000 -45.265200
N -10.429800 -10.735300 -46.743500
C -10.140500 -9.595800 -46.037800
H -9.764700 -12.077000 -48.104100
C -9.543100 -11.291000 -47.618800
N -8.933700 -9.003000 -46.180800
C -8.354000 -10.699800 -47.775200
C -8.042600 -9.520000 -47.039300
F -7.416000 -11.193300 -48.616000
N -6.866300 -8.930300 -47.192100
H -6.636900 -8.201600 -46.671000
H -6.281200 -9.252300 -47.722400
25
Fragment
H -13.530400 -15.092200 -50.113500
H -13.464700 -18.656200 -53.306000
H -13.429400 -17.612100 -51.145300
O -13.287900 -13.897800 -47.922300
H -13.147900 -13.183300 -47.401500
N -13.025200 -17.941700 -53.160300
C -12.941000 -17.341000 -51.913900
H -12.664300 -16.102200 -49.225400
C -12.632500 -15.249600 -49.727500
C -12.304800 -14.129900 -48.774300
H -12.260900 -18.263400 -55.835900
C -12.156400 -17.300300 -54.017200
C -12.054700 -16.304500 -51.951500
C -11.857600 -17.546000 -55.361900
C -11.625200 -15.376600 -50.854100
C -11.550200 -16.251700 -53.298700
H -11.464000 -14.479400 -51.240000
O -11.275300 -13.507900 -48.778900
C -10.951400 -16.700200 -55.970100
H -10.768000 -15.701100 -50.479700
H -10.727000 -16.842700 -56.882400
C -10.639200 -15.403800 -53.946300
C -10.352300 -15.635400 -55.279100
H -10.228100 -14.686000 -53.479000
H -9.741600 -15.066500 -55.733000
38
Fragment
H -11.239500 -11.113200 -46.609900
O -11.017500 -9.131000 -45.265200
N -10.429800 -10.735300 -46.743500
C -10.140500 -9.595800 -46.037800
H -9.764700 -12.077000 -48.104100
C -9.543100 -11.291000 -47.618800
N -8.933700 -9.003000 -46.180800
C -8.354000 -10.699800 -47.775200
C -8.042600 -9.520000 -47.039300
F -7.416000 -11.193300 -48.616000
N -6.866300 -8.930300 -47.192100
H -6.636900 -8.201600 -46.671000
H -6.281200 -9.252300 -47.722400
H -13.530400 -15.092200 -50.113500
H -13.464700 -18.656200 -53.306000
H -13.429400 -17.612100 -51.145300
O -13.287900 -13.897800 -47.922300
H -13.147900 -13.183300 -47.401500
N -13.025200 -17.941700 -53.160300
C -12.941000 -17.341000 -51.913900
H -12.664300 -16.102200 -49.225400
C -12.632500 -15.249600 -49.727500
C -12.304800 -14.129900 -48.774300
H -12.260900 -18.263400 -55.835900
C -12.156400 -17.300300 -54.017200
C -12.054700 -16.304500 -51.951500
C -11.857600 -17.546000 -55.361900
C -11.625200 -15.376600 -50.854100
C -11.550200 -16.251700 -53.298700
H -11.464000 -14.479400 -51.240000
O -11.275300 -13.507900 -48.778900
C -10.951400 -16.700200 -55.970100
H -10.768000 -15.701100 -50.479700
H -10.727000 -16.842700 -56.882400
C -10.639200 -15.403800 -53.946300
C -10.352300 -15.635400 -55.279100
H -10.228100 -14.686000 -53.479000
H -9.741600 -15.066500 -55.733000
