13
Fragment
H -11.239500 -11.113200 -46.609900
O -11.017500 -9.131000 -45.265200
N -10.429800 -10.735300 -46.743500
C -10.140500 -9.595800 -46.037800
H -9.764700 -12.077000 -48.104100
C -9.543100 -11.291000 -47.618800
N -8.933700 -9.003000 -46.180800
C -8.354000 -10.699800 -47.775200
C -8.042600 -9.520000 -47.039300
F -7.416000 -11.193300 -48.616000
N -6.866300 -8.930300 -47.192100
H -6.636900 -8.201600 -46.671000
H -6.281200 -9.252300 -47.722400
13
Fragment
H -11.239500 -16.340500 -46.609900
O -11.017500 -14.358300 -45.265200
N -10.429800 -15.962600 -46.743500
C -10.140500 -14.823100 -46.037800
H -9.764700 -17.304300 -48.104100
C -9.543100 -16.518300 -47.618800
N -8.933700 -14.230300 -46.180800
C -8.354000 -15.927100 -47.775200
C -8.042600 -14.747300 -47.039300
F -7.416000 -16.420600 -48.616000
N -6.866300 -14.157600 -47.192100
H -6.636900 -13.428900 -46.671000
H -6.281200 -14.479600 -47.722400
26
Fragment
H -11.239500 -11.113200 -46.609900
O -11.017500 -9.131000 -45.265200
N -10.429800 -10.735300 -46.743500
C -10.140500 -9.595800 -46.037800
H -9.764700 -12.077000 -48.104100
C -9.543100 -11.291000 -47.618800
N -8.933700 -9.003000 -46.180800
C -8.354000 -10.699800 -47.775200
C -8.042600 -9.520000 -47.039300
F -7.416000 -11.193300 -48.616000
N -6.866300 -8.930300 -47.192100
H -6.636900 -8.201600 -46.671000
H -6.281200 -9.252300 -47.722400
H -11.239500 -16.340500 -46.609900
O -11.017500 -14.358300 -45.265200
N -10.429800 -15.962600 -46.743500
C -10.140500 -14.823100 -46.037800
H -9.764700 -17.304300 -48.104100
C -9.543100 -16.518300 -47.618800
N -8.933700 -14.230300 -46.180800
C -8.354000 -15.927100 -47.775200
C -8.042600 -14.747300 -47.039300
F -7.416000 -16.420600 -48.616000
N -6.866300 -14.157600 -47.192100
H -6.636900 -13.428900 -46.671000
H -6.281200 -14.479600 -47.722400
