20
Fragment
N -16.650400 -11.315300 -28.001100
C -16.274300 -10.759600 -28.924600
C -15.808900 -10.061000 -30.081800
H -15.799600 -12.564600 -30.593000
C -15.730400 -8.647900 -29.960200
N -15.661800 -7.510200 -29.832900
C -15.542400 -12.159800 -31.307400
C -15.468200 -10.721700 -31.231400
C -15.212000 -12.816900 -32.422800
H -15.203400 -13.773100 -32.455100
C -15.023200 -10.025200 -32.405700
H -14.951700 -9.005200 -32.341100
C -14.759800 -12.111100 -33.593300
C -14.693300 -10.676400 -33.526800
N -14.587300 -15.357100 -34.775300
C -14.490400 -14.217800 -34.786700
H -14.419000 -10.247800 -34.298300
C -14.404300 -12.791700 -34.725800
C -13.956300 -12.118300 -35.904000
N -13.590100 -11.549600 -36.823700
26
Fragment
H -12.396200 -10.925600 -29.851900
C -12.061900 -10.653900 -30.695600
H -12.061200 -13.446100 -31.087000
H -11.855200 -8.547300 -30.745000
C -11.796800 -9.378600 -31.164900
C -11.787800 -12.943700 -31.805300
C -11.783300 -11.547800 -31.714100
N -11.415100 -13.616300 -32.846600
N -11.368300 -10.799700 -32.835200
C -11.364200 -9.469400 -32.464600
H -11.314500 -8.867800 -34.944400
H -11.042100 -8.787000 -33.025200
C -11.033800 -11.476200 -34.020900
C -11.025900 -12.862600 -33.943000
C -10.935600 -9.462800 -35.552400
C -10.735900 -10.821400 -35.265500
H -10.729200 -8.029300 -36.977600
C -10.649200 -8.971000 -36.789400
C -10.595800 -13.616200 -35.066000
H -10.534300 -14.624500 -34.963400
C -10.289400 -11.627600 -36.348600
C -10.200000 -13.035100 -36.223200
C -10.137000 -9.828400 -37.752800
N -9.974000 -11.115600 -37.576100
H -9.892800 -9.515200 -38.706700
H -9.808100 -13.567500 -37.072600
46
Fragment
N -16.650400 -11.315300 -28.001100
C -16.274300 -10.759600 -28.924600
C -15.808900 -10.061000 -30.081800
H -15.799600 -12.564600 -30.593000
C -15.730400 -8.647900 -29.960200
N -15.661800 -7.510200 -29.832900
C -15.542400 -12.159800 -31.307400
C -15.468200 -10.721700 -31.231400
C -15.212000 -12.816900 -32.422800
H -15.203400 -13.773100 -32.455100
C -15.023200 -10.025200 -32.405700
H -14.951700 -9.005200 -32.341100
C -14.759800 -12.111100 -33.593300
C -14.693300 -10.676400 -33.526800
N -14.587300 -15.357100 -34.775300
C -14.490400 -14.217800 -34.786700
H -14.419000 -10.247800 -34.298300
C -14.404300 -12.791700 -34.725800
C -13.956300 -12.118300 -35.904000
N -13.590100 -11.549600 -36.823700
H -12.396200 -10.925600 -29.851900
C -12.061900 -10.653900 -30.695600
H -12.061200 -13.446100 -31.087000
H -11.855200 -8.547300 -30.745000
C -11.796800 -9.378600 -31.164900
C -11.787800 -12.943700 -31.805300
C -11.783300 -11.547800 -31.714100
N -11.415100 -13.616300 -32.846600
N -11.368300 -10.799700 -32.835200
C -11.364200 -9.469400 -32.464600
H -11.314500 -8.867800 -34.944400
H -11.042100 -8.787000 -33.025200
C -11.033800 -11.476200 -34.020900
C -11.025900 -12.862600 -33.943000
C -10.935600 -9.462800 -35.552400
C -10.735900 -10.821400 -35.265500
H -10.729200 -8.029300 -36.977600
C -10.649200 -8.971000 -36.789400
C -10.595800 -13.616200 -35.066000
H -10.534300 -14.624500 -34.963400
C -10.289400 -11.627600 -36.348600
C -10.200000 -13.035100 -36.223200
C -10.137000 -9.828400 -37.752800
N -9.974000 -11.115600 -37.576100
H -9.892800 -9.515200 -38.706700
H -9.808100 -13.567500 -37.072600
