20
Fragment
N -16.650400 -11.315300 -28.001100
C -16.274300 -10.759600 -28.924600
C -15.808900 -10.061000 -30.081800
H -15.799600 -12.564600 -30.593000
C -15.730400 -8.647900 -29.960200
N -15.661800 -7.510200 -29.832900
C -15.542400 -12.159800 -31.307400
C -15.468200 -10.721700 -31.231400
C -15.212000 -12.816900 -32.422800
H -15.203400 -13.773100 -32.455100
C -15.023200 -10.025200 -32.405700
H -14.951700 -9.005200 -32.341100
C -14.759800 -12.111100 -33.593300
C -14.693300 -10.676400 -33.526800
N -14.587300 -15.357100 -34.775300
C -14.490400 -14.217800 -34.786700
H -14.419000 -10.247800 -34.298300
C -14.404300 -12.791700 -34.725800
C -13.956300 -12.118300 -35.904000
N -13.590100 -11.549600 -36.823700
26
Fragment
H -15.240800 -12.233900 -38.934800
H -15.156100 -16.286300 -37.300600
N -15.074900 -14.685800 -38.431200
C -14.911800 -15.973100 -38.254500
C -14.848900 -12.766400 -39.784100
C -14.759500 -14.173900 -39.658700
H -14.514600 -11.176900 -41.044000
C -14.453100 -12.185300 -40.941300
C -14.399700 -16.830500 -39.217900
H -14.319700 -17.772200 -39.029800
C -14.313000 -14.980100 -40.741800
C -14.113300 -16.338700 -40.454900
C -14.023000 -12.938900 -42.064400
C -14.015000 -14.325300 -41.986400
H -14.006800 -17.014500 -42.982100
H -13.734400 -16.933700 -41.063000
C -13.684700 -16.332100 -43.542700
N -13.680600 -15.001800 -43.172200
N -13.633800 -12.185200 -43.160800
C -13.265600 -14.253700 -44.293300
C -13.261100 -12.857800 -44.202100
C -13.252000 -16.422900 -44.842400
H -13.193700 -17.254200 -45.262400
H -12.987700 -12.355400 -44.920300
C -12.987000 -15.147600 -45.311800
H -12.652700 -14.875900 -46.155500
46
Fragment
N -16.650400 -11.315300 -28.001100
C -16.274300 -10.759600 -28.924600
C -15.808900 -10.061000 -30.081800
H -15.799600 -12.564600 -30.593000
C -15.730400 -8.647900 -29.960200
N -15.661800 -7.510200 -29.832900
C -15.542400 -12.159800 -31.307400
C -15.468200 -10.721700 -31.231400
C -15.212000 -12.816900 -32.422800
H -15.203400 -13.773100 -32.455100
C -15.023200 -10.025200 -32.405700
H -14.951700 -9.005200 -32.341100
C -14.759800 -12.111100 -33.593300
C -14.693300 -10.676400 -33.526800
N -14.587300 -15.357100 -34.775300
C -14.490400 -14.217800 -34.786700
H -14.419000 -10.247800 -34.298300
C -14.404300 -12.791700 -34.725800
C -13.956300 -12.118300 -35.904000
N -13.590100 -11.549600 -36.823700
H -15.240800 -12.233900 -38.934800
H -15.156100 -16.286300 -37.300600
N -15.074900 -14.685800 -38.431200
C -14.911800 -15.973100 -38.254500
C -14.848900 -12.766400 -39.784100
C -14.759500 -14.173900 -39.658700
H -14.514600 -11.176900 -41.044000
C -14.453100 -12.185300 -40.941300
C -14.399700 -16.830500 -39.217900
H -14.319700 -17.772200 -39.029800
C -14.313000 -14.980100 -40.741800
C -14.113300 -16.338700 -40.454900
C -14.023000 -12.938900 -42.064400
C -14.015000 -14.325300 -41.986400
H -14.006800 -17.014500 -42.982100
H -13.734400 -16.933700 -41.063000
C -13.684700 -16.332100 -43.542700
N -13.680600 -15.001800 -43.172200
N -13.633800 -12.185200 -43.160800
C -13.265600 -14.253700 -44.293300
C -13.261100 -12.857800 -44.202100
C -13.252000 -16.422900 -44.842400
H -13.193700 -17.254200 -45.262400
H -12.987700 -12.355400 -44.920300
C -12.987000 -15.147600 -45.311800
H -12.652700 -14.875900 -46.155500
