20
Fragment
N -16.650400 -11.315300 -28.001100
C -16.274300 -10.759600 -28.924600
C -15.808900 -10.061000 -30.081800
H -15.799600 -12.564600 -30.593000
C -15.730400 -8.647900 -29.960200
N -15.661800 -7.510200 -29.832900
C -15.542400 -12.159800 -31.307400
C -15.468200 -10.721700 -31.231400
C -15.212000 -12.816900 -32.422800
H -15.203400 -13.773100 -32.455100
C -15.023200 -10.025200 -32.405700
H -14.951700 -9.005200 -32.341100
C -14.759800 -12.111100 -33.593300
C -14.693300 -10.676400 -33.526800
N -14.587300 -15.357100 -34.775300
C -14.490400 -14.217800 -34.786700
H -14.419000 -10.247800 -34.298300
C -14.404300 -12.791700 -34.725800
C -13.956300 -12.118300 -35.904000
N -13.590100 -11.549600 -36.823700
26
Fragment
H -19.371600 -3.875100 -19.932900
H -19.286900 -7.927400 -18.298800
N -19.205700 -6.327000 -19.429400
C -19.042600 -7.614200 -19.252700
C -18.979600 -4.407500 -20.782300
C -18.890200 -5.815000 -20.656900
H -18.645400 -2.818100 -22.042100
C -18.583800 -3.826400 -21.939500
C -18.530500 -8.471600 -20.216000
H -18.450500 -9.413300 -20.027900
C -18.443800 -6.621200 -21.740000
C -18.244100 -7.979800 -21.453100
C -18.153700 -4.580000 -23.062500
C -18.145800 -5.966400 -22.984600
H -18.137500 -8.655700 -23.980300
H -17.865100 -8.574800 -22.061100
C -17.815400 -7.973200 -24.540900
N -17.811400 -6.643000 -24.170300
N -17.764600 -3.826400 -24.158900
C -17.396400 -5.894900 -25.291400
C -17.391900 -4.498900 -25.200200
C -17.382800 -8.064000 -25.840600
H -17.324500 -8.895300 -26.260500
H -17.118500 -3.996500 -25.918500
C -17.117700 -6.788700 -26.309900
H -16.783400 -6.517100 -27.153600
46
Fragment
N -16.650400 -11.315300 -28.001100
C -16.274300 -10.759600 -28.924600
C -15.808900 -10.061000 -30.081800
H -15.799600 -12.564600 -30.593000
C -15.730400 -8.647900 -29.960200
N -15.661800 -7.510200 -29.832900
C -15.542400 -12.159800 -31.307400
C -15.468200 -10.721700 -31.231400
C -15.212000 -12.816900 -32.422800
H -15.203400 -13.773100 -32.455100
C -15.023200 -10.025200 -32.405700
H -14.951700 -9.005200 -32.341100
C -14.759800 -12.111100 -33.593300
C -14.693300 -10.676400 -33.526800
N -14.587300 -15.357100 -34.775300
C -14.490400 -14.217800 -34.786700
H -14.419000 -10.247800 -34.298300
C -14.404300 -12.791700 -34.725800
C -13.956300 -12.118300 -35.904000
N -13.590100 -11.549600 -36.823700
H -19.371600 -3.875100 -19.932900
H -19.286900 -7.927400 -18.298800
N -19.205700 -6.327000 -19.429400
C -19.042600 -7.614200 -19.252700
C -18.979600 -4.407500 -20.782300
C -18.890200 -5.815000 -20.656900
H -18.645400 -2.818100 -22.042100
C -18.583800 -3.826400 -21.939500
C -18.530500 -8.471600 -20.216000
H -18.450500 -9.413300 -20.027900
C -18.443800 -6.621200 -21.740000
C -18.244100 -7.979800 -21.453100
C -18.153700 -4.580000 -23.062500
C -18.145800 -5.966400 -22.984600
H -18.137500 -8.655700 -23.980300
H -17.865100 -8.574800 -22.061100
C -17.815400 -7.973200 -24.540900
N -17.811400 -6.643000 -24.170300
N -17.764600 -3.826400 -24.158900
C -17.396400 -5.894900 -25.291400
C -17.391900 -4.498900 -25.200200
C -17.382800 -8.064000 -25.840600
H -17.324500 -8.895300 -26.260500
H -17.118500 -3.996500 -25.918500
C -17.117700 -6.788700 -26.309900
H -16.783400 -6.517100 -27.153600
