20
Fragment
N -16.650400 -11.315300 -28.001100
C -16.274300 -10.759600 -28.924600
C -15.808900 -10.061000 -30.081800
H -15.799600 -12.564600 -30.593000
C -15.730400 -8.647900 -29.960200
N -15.661800 -7.510200 -29.832900
C -15.542400 -12.159800 -31.307400
C -15.468200 -10.721700 -31.231400
C -15.212000 -12.816900 -32.422800
H -15.203400 -13.773100 -32.455100
C -15.023200 -10.025200 -32.405700
H -14.951700 -9.005200 -32.341100
C -14.759800 -12.111100 -33.593300
C -14.693300 -10.676400 -33.526800
N -14.587300 -15.357100 -34.775300
C -14.490400 -14.217800 -34.786700
H -14.419000 -10.247800 -34.298300
C -14.404300 -12.791700 -34.725800
C -13.956300 -12.118300 -35.904000
N -13.590100 -11.549600 -36.823700
26
Fragment
H -14.265600 -4.600000 -38.934800
H -14.180900 -8.652300 -37.300600
N -14.099700 -7.051900 -38.431200
C -13.936600 -8.339100 -38.254500
C -13.873600 -5.132400 -39.784100
C -13.784200 -6.539900 -39.658700
H -13.539400 -3.543000 -41.044000
C -13.477800 -4.551300 -40.941300
C -13.424500 -9.196500 -39.217900
H -13.344500 -10.138200 -39.029800
C -13.337800 -7.346100 -40.741800
C -13.138100 -8.704700 -40.454900
C -13.047700 -5.304900 -42.064400
C -13.039800 -6.691300 -41.986400
H -13.031500 -9.380600 -42.982100
H -12.759100 -9.299700 -41.063000
C -12.709400 -8.698100 -43.542700
N -12.705400 -7.367900 -43.172200
N -12.658600 -4.551300 -43.160800
C -12.290400 -6.619800 -44.293300
C -12.285900 -5.223800 -44.202100
C -12.276800 -8.788900 -44.842400
H -12.218500 -9.620200 -45.262400
H -12.012500 -4.721400 -44.920300
C -12.011700 -7.513600 -45.311800
H -11.677400 -7.242000 -46.155500
46
Fragment
N -16.650400 -11.315300 -28.001100
C -16.274300 -10.759600 -28.924600
C -15.808900 -10.061000 -30.081800
H -15.799600 -12.564600 -30.593000
C -15.730400 -8.647900 -29.960200
N -15.661800 -7.510200 -29.832900
C -15.542400 -12.159800 -31.307400
C -15.468200 -10.721700 -31.231400
C -15.212000 -12.816900 -32.422800
H -15.203400 -13.773100 -32.455100
C -15.023200 -10.025200 -32.405700
H -14.951700 -9.005200 -32.341100
C -14.759800 -12.111100 -33.593300
C -14.693300 -10.676400 -33.526800
N -14.587300 -15.357100 -34.775300
C -14.490400 -14.217800 -34.786700
H -14.419000 -10.247800 -34.298300
C -14.404300 -12.791700 -34.725800
C -13.956300 -12.118300 -35.904000
N -13.590100 -11.549600 -36.823700
H -14.265600 -4.600000 -38.934800
H -14.180900 -8.652300 -37.300600
N -14.099700 -7.051900 -38.431200
C -13.936600 -8.339100 -38.254500
C -13.873600 -5.132400 -39.784100
C -13.784200 -6.539900 -39.658700
H -13.539400 -3.543000 -41.044000
C -13.477800 -4.551300 -40.941300
C -13.424500 -9.196500 -39.217900
H -13.344500 -10.138200 -39.029800
C -13.337800 -7.346100 -40.741800
C -13.138100 -8.704700 -40.454900
C -13.047700 -5.304900 -42.064400
C -13.039800 -6.691300 -41.986400
H -13.031500 -9.380600 -42.982100
H -12.759100 -9.299700 -41.063000
C -12.709400 -8.698100 -43.542700
N -12.705400 -7.367900 -43.172200
N -12.658600 -4.551300 -43.160800
C -12.290400 -6.619800 -44.293300
C -12.285900 -5.223800 -44.202100
C -12.276800 -8.788900 -44.842400
H -12.218500 -9.620200 -45.262400
H -12.012500 -4.721400 -44.920300
C -12.011700 -7.513600 -45.311800
H -11.677400 -7.242000 -46.155500
