20
Fragment
N -16.650400 -11.315300 -28.001100
C -16.274300 -10.759600 -28.924600
C -15.808900 -10.061000 -30.081800
H -15.799600 -12.564600 -30.593000
C -15.730400 -8.647900 -29.960200
N -15.661800 -7.510200 -29.832900
C -15.542400 -12.159800 -31.307400
C -15.468200 -10.721700 -31.231400
C -15.212000 -12.816900 -32.422800
H -15.203400 -13.773100 -32.455100
C -15.023200 -10.025200 -32.405700
H -14.951700 -9.005200 -32.341100
C -14.759800 -12.111100 -33.593300
C -14.693300 -10.676400 -33.526800
N -14.587300 -15.357100 -34.775300
C -14.490400 -14.217800 -34.786700
H -14.419000 -10.247800 -34.298300
C -14.404300 -12.791700 -34.725800
C -13.956300 -12.118300 -35.904000
N -13.590100 -11.549600 -36.823700
26
Fragment
H -20.346800 -11.509000 -19.932900
H -20.262100 -15.561400 -18.298800
N -20.180900 -13.960900 -19.429400
C -20.017800 -15.248200 -19.252700
C -19.954800 -12.041500 -20.782300
C -19.865500 -13.449000 -20.656900
H -19.620600 -10.452000 -22.042100
C -19.559100 -11.460400 -21.939500
C -19.505700 -16.105600 -20.216000
H -19.425700 -17.047300 -20.027900
C -19.419000 -14.255200 -21.740000
C -19.219300 -15.613800 -21.453100
C -19.129000 -12.214000 -23.062500
C -19.121000 -13.600400 -22.984600
H -19.112800 -16.289600 -23.980300
H -18.840400 -16.208800 -22.061100
C -18.790700 -15.607200 -24.540900
N -18.786600 -14.276900 -24.170300
N -18.739800 -11.460300 -24.158900
C -18.371600 -13.528800 -25.291400
C -18.367100 -12.132900 -25.200200
C -18.358000 -15.698000 -25.840600
H -18.299700 -16.529300 -26.260500
H -18.093700 -11.630500 -25.918500
C -18.093000 -14.422700 -26.309900
H -17.758700 -14.151000 -27.153600
46
Fragment
N -16.650400 -11.315300 -28.001100
C -16.274300 -10.759600 -28.924600
C -15.808900 -10.061000 -30.081800
H -15.799600 -12.564600 -30.593000
C -15.730400 -8.647900 -29.960200
N -15.661800 -7.510200 -29.832900
C -15.542400 -12.159800 -31.307400
C -15.468200 -10.721700 -31.231400
C -15.212000 -12.816900 -32.422800
H -15.203400 -13.773100 -32.455100
C -15.023200 -10.025200 -32.405700
H -14.951700 -9.005200 -32.341100
C -14.759800 -12.111100 -33.593300
C -14.693300 -10.676400 -33.526800
N -14.587300 -15.357100 -34.775300
C -14.490400 -14.217800 -34.786700
H -14.419000 -10.247800 -34.298300
C -14.404300 -12.791700 -34.725800
C -13.956300 -12.118300 -35.904000
N -13.590100 -11.549600 -36.823700
H -20.346800 -11.509000 -19.932900
H -20.262100 -15.561400 -18.298800
N -20.180900 -13.960900 -19.429400
C -20.017800 -15.248200 -19.252700
C -19.954800 -12.041500 -20.782300
C -19.865500 -13.449000 -20.656900
H -19.620600 -10.452000 -22.042100
C -19.559100 -11.460400 -21.939500
C -19.505700 -16.105600 -20.216000
H -19.425700 -17.047300 -20.027900
C -19.419000 -14.255200 -21.740000
C -19.219300 -15.613800 -21.453100
C -19.129000 -12.214000 -23.062500
C -19.121000 -13.600400 -22.984600
H -19.112800 -16.289600 -23.980300
H -18.840400 -16.208800 -22.061100
C -18.790700 -15.607200 -24.540900
N -18.786600 -14.276900 -24.170300
N -18.739800 -11.460300 -24.158900
C -18.371600 -13.528800 -25.291400
C -18.367100 -12.132900 -25.200200
C -18.358000 -15.698000 -25.840600
H -18.299700 -16.529300 -26.260500
H -18.093700 -11.630500 -25.918500
C -18.093000 -14.422700 -26.309900
H -17.758700 -14.151000 -27.153600
