29
Fragment
H -15.314600 -29.618400 -25.453500
H -14.560900 -31.962300 -25.233700
C -14.480200 -29.895700 -25.897200
H -14.267100 -25.157900 -27.244300
C -14.028300 -31.198100 -25.766100
N -14.004400 -27.708700 -27.056700
H -13.989300 -22.992500 -27.970200
C -13.769100 -29.046300 -26.738100
C -13.604000 -25.001000 -27.942000
C -13.481500 -23.721500 -28.424000
H -13.209000 -21.508800 -29.633900
C -13.050100 -27.397600 -27.919800
C -12.915100 -26.062700 -28.518800
C -12.903600 -31.651200 -26.441700
C -12.674600 -23.459100 -29.512900
C -12.663000 -29.515600 -27.423700
H -12.628400 -33.393200 -25.397100
N -12.537000 -33.019900 -26.318600
N -12.465100 -22.129600 -29.932400
H -12.225400 -22.037600 -30.741100
N -12.206800 -28.437700 -28.167900
C -12.193400 -30.816700 -27.298700
C -12.130400 -25.808400 -29.636000
C -12.020300 -24.528900 -30.146200
H -11.602200 -26.491400 -30.025200
H -11.549000 -33.172800 -26.554600
H -11.452200 -28.424100 -28.684100
H -11.425600 -31.121000 -27.722200
H -11.399000 -24.353100 -30.856000
29
Fragment
H -15.232000 -31.115600 -19.559000
H -15.205400 -37.883500 -22.692800
H -15.178800 -35.186600 -21.730900
H -15.082000 -39.935300 -23.860400
H -15.028800 -33.253900 -20.389800
C -14.610700 -31.291400 -20.268800
C -14.500600 -32.570900 -20.779000
C -14.437600 -37.579200 -23.116300
N -14.424200 -35.200200 -22.247100
H -14.405600 -28.800100 -19.673900
N -14.165900 -28.892100 -20.482600
N -14.094000 -39.782400 -24.096400
H -14.002600 -40.155700 -25.017900
C -13.968000 -36.278100 -22.991300
C -13.956400 -30.221600 -20.902100
C -13.727400 -38.413700 -23.973300
C -13.715900 -32.825200 -21.896200
C -13.580900 -34.160100 -22.495200
H -13.422000 -28.271300 -20.781100
C -13.149500 -30.484000 -21.991000
C -13.027000 -31.763500 -22.473000
C -12.861900 -35.808800 -23.676900
H -12.641700 -29.755000 -22.444800
N -12.626600 -34.471200 -23.358300
C -12.602700 -37.960600 -24.648900
H -12.363900 -31.920400 -23.170700
C -12.150800 -36.658200 -24.517800
H -12.070100 -38.724800 -25.181300
H -11.316400 -36.380900 -24.961500
58
Fragment
H -15.314600 -29.618400 -25.453500
H -14.560900 -31.962300 -25.233700
C -14.480200 -29.895700 -25.897200
H -14.267100 -25.157900 -27.244300
C -14.028300 -31.198100 -25.766100
N -14.004400 -27.708700 -27.056700
H -13.989300 -22.992500 -27.970200
C -13.769100 -29.046300 -26.738100
C -13.604000 -25.001000 -27.942000
C -13.481500 -23.721500 -28.424000
H -13.209000 -21.508800 -29.633900
C -13.050100 -27.397600 -27.919800
C -12.915100 -26.062700 -28.518800
C -12.903600 -31.651200 -26.441700
C -12.674600 -23.459100 -29.512900
C -12.663000 -29.515600 -27.423700
H -12.628400 -33.393200 -25.397100
N -12.537000 -33.019900 -26.318600
N -12.465100 -22.129600 -29.932400
H -12.225400 -22.037600 -30.741100
N -12.206800 -28.437700 -28.167900
C -12.193400 -30.816700 -27.298700
C -12.130400 -25.808400 -29.636000
C -12.020300 -24.528900 -30.146200
H -11.602200 -26.491400 -30.025200
H -11.549000 -33.172800 -26.554600
H -11.452200 -28.424100 -28.684100
H -11.425600 -31.121000 -27.722200
H -11.399000 -24.353100 -30.856000
H -15.232000 -31.115600 -19.559000
H -15.205400 -37.883500 -22.692800
H -15.178800 -35.186600 -21.730900
H -15.082000 -39.935300 -23.860400
H -15.028800 -33.253900 -20.389800
C -14.610700 -31.291400 -20.268800
C -14.500600 -32.570900 -20.779000
C -14.437600 -37.579200 -23.116300
N -14.424200 -35.200200 -22.247100
H -14.405600 -28.800100 -19.673900
N -14.165900 -28.892100 -20.482600
N -14.094000 -39.782400 -24.096400
H -14.002600 -40.155700 -25.017900
C -13.968000 -36.278100 -22.991300
C -13.956400 -30.221600 -20.902100
C -13.727400 -38.413700 -23.973300
C -13.715900 -32.825200 -21.896200
C -13.580900 -34.160100 -22.495200
H -13.422000 -28.271300 -20.781100
C -13.149500 -30.484000 -21.991000
C -13.027000 -31.763500 -22.473000
C -12.861900 -35.808800 -23.676900
H -12.641700 -29.755000 -22.444800
N -12.626600 -34.471200 -23.358300
C -12.602700 -37.960600 -24.648900
H -12.363900 -31.920400 -23.170700
C -12.150800 -36.658200 -24.517800
H -12.070100 -38.724800 -25.181300
H -11.316400 -36.380900 -24.961500
