29
Fragment
H -15.314600 -29.618400 -25.453500
H -14.560900 -31.962300 -25.233700
C -14.480200 -29.895700 -25.897200
H -14.267100 -25.157900 -27.244300
C -14.028300 -31.198100 -25.766100
N -14.004400 -27.708700 -27.056700
H -13.989300 -22.992500 -27.970200
C -13.769100 -29.046300 -26.738100
C -13.604000 -25.001000 -27.942000
C -13.481500 -23.721500 -28.424000
H -13.209000 -21.508800 -29.633900
C -13.050100 -27.397600 -27.919800
C -12.915100 -26.062700 -28.518800
C -12.903600 -31.651200 -26.441700
C -12.674600 -23.459100 -29.512900
C -12.663000 -29.515600 -27.423700
H -12.628400 -33.393200 -25.397100
N -12.537000 -33.019900 -26.318600
N -12.465100 -22.129600 -29.932400
H -12.225400 -22.037600 -30.741100
N -12.206800 -28.437700 -28.167900
C -12.193400 -30.816700 -27.298700
C -12.130400 -25.808400 -29.636000
C -12.020300 -24.528900 -30.146200
H -11.602200 -26.491400 -30.025200
H -11.549000 -33.172800 -26.554600
H -11.452200 -28.424100 -28.684100
H -11.425600 -31.121000 -27.722200
H -11.399000 -24.353100 -30.856000
29
Fragment
H -10.793500 -17.590600 -30.856000
H -10.766900 -24.358500 -27.722200
H -10.740300 -21.661600 -28.684100
H -10.643500 -26.410300 -26.554600
H -10.590300 -19.728900 -30.025200
C -10.172200 -17.766400 -30.146200
C -10.062100 -19.045900 -29.636000
C -9.999100 -24.054200 -27.298700
N -9.985700 -21.675200 -28.167900
H -9.967100 -15.275100 -30.741100
N -9.727400 -15.367100 -29.932400
N -9.655500 -26.257400 -26.318600
H -9.564100 -26.630700 -25.397100
C -9.529500 -22.753100 -27.423700
C -9.517900 -16.696600 -29.512900
C -9.288900 -24.888700 -26.441700
C -9.277400 -19.300200 -28.518800
C -9.142400 -20.635100 -27.919800
H -8.983500 -14.746300 -29.633900
C -8.711000 -16.959000 -28.424000
C -8.588500 -18.238500 -27.942000
C -8.423400 -22.283800 -26.738100
H -8.203200 -16.230000 -27.970200
N -8.188100 -20.946200 -27.056700
C -8.164200 -24.435600 -25.766100
H -7.925400 -18.395400 -27.244300
C -7.712300 -23.133200 -25.897200
H -7.631600 -25.199800 -25.233700
H -6.877900 -22.855900 -25.453500
58
Fragment
H -15.314600 -29.618400 -25.453500
H -14.560900 -31.962300 -25.233700
C -14.480200 -29.895700 -25.897200
H -14.267100 -25.157900 -27.244300
C -14.028300 -31.198100 -25.766100
N -14.004400 -27.708700 -27.056700
H -13.989300 -22.992500 -27.970200
C -13.769100 -29.046300 -26.738100
C -13.604000 -25.001000 -27.942000
C -13.481500 -23.721500 -28.424000
H -13.209000 -21.508800 -29.633900
C -13.050100 -27.397600 -27.919800
C -12.915100 -26.062700 -28.518800
C -12.903600 -31.651200 -26.441700
C -12.674600 -23.459100 -29.512900
C -12.663000 -29.515600 -27.423700
H -12.628400 -33.393200 -25.397100
N -12.537000 -33.019900 -26.318600
N -12.465100 -22.129600 -29.932400
H -12.225400 -22.037600 -30.741100
N -12.206800 -28.437700 -28.167900
C -12.193400 -30.816700 -27.298700
C -12.130400 -25.808400 -29.636000
C -12.020300 -24.528900 -30.146200
H -11.602200 -26.491400 -30.025200
H -11.549000 -33.172800 -26.554600
H -11.452200 -28.424100 -28.684100
H -11.425600 -31.121000 -27.722200
H -11.399000 -24.353100 -30.856000
H -10.793500 -17.590600 -30.856000
H -10.766900 -24.358500 -27.722200
H -10.740300 -21.661600 -28.684100
H -10.643500 -26.410300 -26.554600
H -10.590300 -19.728900 -30.025200
C -10.172200 -17.766400 -30.146200
C -10.062100 -19.045900 -29.636000
C -9.999100 -24.054200 -27.298700
N -9.985700 -21.675200 -28.167900
H -9.967100 -15.275100 -30.741100
N -9.727400 -15.367100 -29.932400
N -9.655500 -26.257400 -26.318600
H -9.564100 -26.630700 -25.397100
C -9.529500 -22.753100 -27.423700
C -9.517900 -16.696600 -29.512900
C -9.288900 -24.888700 -26.441700
C -9.277400 -19.300200 -28.518800
C -9.142400 -20.635100 -27.919800
H -8.983500 -14.746300 -29.633900
C -8.711000 -16.959000 -28.424000
C -8.588500 -18.238500 -27.942000
C -8.423400 -22.283800 -26.738100
H -8.203200 -16.230000 -27.970200
N -8.188100 -20.946200 -27.056700
C -8.164200 -24.435600 -25.766100
H -7.925400 -18.395400 -27.244300
C -7.712300 -23.133200 -25.897200
H -7.631600 -25.199800 -25.233700
H -6.877900 -22.855900 -25.453500
