29
Fragment
H -15.314600 -29.618400 -25.453500
H -14.560900 -31.962300 -25.233700
C -14.480200 -29.895700 -25.897200
H -14.267100 -25.157900 -27.244300
C -14.028300 -31.198100 -25.766100
N -14.004400 -27.708700 -27.056700
H -13.989300 -22.992500 -27.970200
C -13.769100 -29.046300 -26.738100
C -13.604000 -25.001000 -27.942000
C -13.481500 -23.721500 -28.424000
H -13.209000 -21.508800 -29.633900
C -13.050100 -27.397600 -27.919800
C -12.915100 -26.062700 -28.518800
C -12.903600 -31.651200 -26.441700
C -12.674600 -23.459100 -29.512900
C -12.663000 -29.515600 -27.423700
H -12.628400 -33.393200 -25.397100
N -12.537000 -33.019900 -26.318600
N -12.465100 -22.129600 -29.932400
H -12.225400 -22.037600 -30.741100
N -12.206800 -28.437700 -28.167900
C -12.193400 -30.816700 -27.298700
C -12.130400 -25.808400 -29.636000
C -12.020300 -24.528900 -30.146200
H -11.602200 -26.491400 -30.025200
H -11.549000 -33.172800 -26.554600
H -11.452200 -28.424100 -28.684100
H -11.425600 -31.121000 -27.722200
H -11.399000 -24.353100 -30.856000
29
Fragment
H -19.753100 -17.719100 -35.044500
H -18.999400 -15.375200 -35.264300
C -18.918700 -17.441800 -34.600800
H -18.705600 -22.179600 -33.253700
C -18.466800 -16.139400 -34.731900
N -18.442900 -19.628800 -33.441300
H -18.427800 -24.345000 -32.527800
C -18.207600 -18.291200 -33.759900
C -18.042500 -22.336500 -32.556000
C -17.920000 -23.616000 -32.074000
H -17.647500 -25.828700 -30.864100
C -17.488600 -19.939900 -32.578200
C -17.353600 -21.274800 -31.979200
C -17.342100 -15.686300 -34.056300
C -17.113100 -23.878400 -30.985100
C -17.101500 -17.821900 -33.074300
H -17.066900 -13.944300 -35.100900
N -16.975500 -14.317600 -34.179400
N -16.903600 -25.207900 -30.565600
H -16.663900 -25.299900 -29.756900
N -16.645300 -18.899800 -32.330100
C -16.631900 -16.520800 -33.199300
C -16.568900 -21.529100 -30.862000
C -16.458800 -22.808600 -30.351800
H -16.040700 -20.846100 -30.472800
H -15.987500 -14.164700 -33.943400
H -15.890700 -18.913400 -31.813900
H -15.864100 -16.216500 -32.775800
H -15.837500 -22.984400 -29.642000
58
Fragment
H -15.314600 -29.618400 -25.453500
H -14.560900 -31.962300 -25.233700
C -14.480200 -29.895700 -25.897200
H -14.267100 -25.157900 -27.244300
C -14.028300 -31.198100 -25.766100
N -14.004400 -27.708700 -27.056700
H -13.989300 -22.992500 -27.970200
C -13.769100 -29.046300 -26.738100
C -13.604000 -25.001000 -27.942000
C -13.481500 -23.721500 -28.424000
H -13.209000 -21.508800 -29.633900
C -13.050100 -27.397600 -27.919800
C -12.915100 -26.062700 -28.518800
C -12.903600 -31.651200 -26.441700
C -12.674600 -23.459100 -29.512900
C -12.663000 -29.515600 -27.423700
H -12.628400 -33.393200 -25.397100
N -12.537000 -33.019900 -26.318600
N -12.465100 -22.129600 -29.932400
H -12.225400 -22.037600 -30.741100
N -12.206800 -28.437700 -28.167900
C -12.193400 -30.816700 -27.298700
C -12.130400 -25.808400 -29.636000
C -12.020300 -24.528900 -30.146200
H -11.602200 -26.491400 -30.025200
H -11.549000 -33.172800 -26.554600
H -11.452200 -28.424100 -28.684100
H -11.425600 -31.121000 -27.722200
H -11.399000 -24.353100 -30.856000
H -19.753100 -17.719100 -35.044500
H -18.999400 -15.375200 -35.264300
C -18.918700 -17.441800 -34.600800
H -18.705600 -22.179600 -33.253700
C -18.466800 -16.139400 -34.731900
N -18.442900 -19.628800 -33.441300
H -18.427800 -24.345000 -32.527800
C -18.207600 -18.291200 -33.759900
C -18.042500 -22.336500 -32.556000
C -17.920000 -23.616000 -32.074000
H -17.647500 -25.828700 -30.864100
C -17.488600 -19.939900 -32.578200
C -17.353600 -21.274800 -31.979200
C -17.342100 -15.686300 -34.056300
C -17.113100 -23.878400 -30.985100
C -17.101500 -17.821900 -33.074300
H -17.066900 -13.944300 -35.100900
N -16.975500 -14.317600 -34.179400
N -16.903600 -25.207900 -30.565600
H -16.663900 -25.299900 -29.756900
N -16.645300 -18.899800 -32.330100
C -16.631900 -16.520800 -33.199300
C -16.568900 -21.529100 -30.862000
C -16.458800 -22.808600 -30.351800
H -16.040700 -20.846100 -30.472800
H -15.987500 -14.164700 -33.943400
H -15.890700 -18.913400 -31.813900
H -15.864100 -16.216500 -32.775800
H -15.837500 -22.984400 -29.642000
