29
Fragment
H -15.314600 -29.618400 -25.453500
H -14.560900 -31.962300 -25.233700
C -14.480200 -29.895700 -25.897200
H -14.267100 -25.157900 -27.244300
C -14.028300 -31.198100 -25.766100
N -14.004400 -27.708700 -27.056700
H -13.989300 -22.992500 -27.970200
C -13.769100 -29.046300 -26.738100
C -13.604000 -25.001000 -27.942000
C -13.481500 -23.721500 -28.424000
H -13.209000 -21.508800 -29.633900
C -13.050100 -27.397600 -27.919800
C -12.915100 -26.062700 -28.518800
C -12.903600 -31.651200 -26.441700
C -12.674600 -23.459100 -29.512900
C -12.663000 -29.515600 -27.423700
H -12.628400 -33.393200 -25.397100
N -12.537000 -33.019900 -26.318600
N -12.465100 -22.129600 -29.932400
H -12.225400 -22.037600 -30.741100
N -12.206800 -28.437700 -28.167900
C -12.193400 -30.816700 -27.298700
C -12.130400 -25.808400 -29.636000
C -12.020300 -24.528900 -30.146200
H -11.602200 -26.491400 -30.025200
H -11.549000 -33.172800 -26.554600
H -11.452200 -28.424100 -28.684100
H -11.425600 -31.121000 -27.722200
H -11.399000 -24.353100 -30.856000
29
Fragment
H -15.232000 -16.221900 -29.642000
H -15.205400 -9.454000 -32.775800
H -15.178800 -12.150900 -31.813900
H -15.082000 -7.402200 -33.943400
H -15.028800 -14.083600 -30.472800
C -14.610700 -16.046100 -30.351800
C -14.500600 -14.766600 -30.862000
C -14.437600 -9.758300 -33.199300
N -14.424200 -12.137300 -32.330100
H -14.405600 -18.537400 -29.756900
N -14.165900 -18.445400 -30.565600
N -14.094000 -7.555100 -34.179400
H -14.002600 -7.181800 -35.100900
C -13.968000 -11.059400 -33.074300
C -13.956400 -17.115900 -30.985100
C -13.727400 -8.923800 -34.056300
C -13.715900 -14.512300 -31.979200
C -13.580900 -13.177400 -32.578200
H -13.422000 -19.066200 -30.864100
C -13.149500 -16.853500 -32.074000
C -13.027000 -15.574000 -32.556000
C -12.861900 -11.528700 -33.759900
H -12.641700 -17.582500 -32.527800
N -12.626600 -12.866300 -33.441300
C -12.602700 -9.376900 -34.731900
H -12.363900 -15.417100 -33.253700
C -12.150800 -10.679300 -34.600800
H -12.070100 -8.612700 -35.264300
H -11.316400 -10.956600 -35.044500
58
Fragment
H -15.314600 -29.618400 -25.453500
H -14.560900 -31.962300 -25.233700
C -14.480200 -29.895700 -25.897200
H -14.267100 -25.157900 -27.244300
C -14.028300 -31.198100 -25.766100
N -14.004400 -27.708700 -27.056700
H -13.989300 -22.992500 -27.970200
C -13.769100 -29.046300 -26.738100
C -13.604000 -25.001000 -27.942000
C -13.481500 -23.721500 -28.424000
H -13.209000 -21.508800 -29.633900
C -13.050100 -27.397600 -27.919800
C -12.915100 -26.062700 -28.518800
C -12.903600 -31.651200 -26.441700
C -12.674600 -23.459100 -29.512900
C -12.663000 -29.515600 -27.423700
H -12.628400 -33.393200 -25.397100
N -12.537000 -33.019900 -26.318600
N -12.465100 -22.129600 -29.932400
H -12.225400 -22.037600 -30.741100
N -12.206800 -28.437700 -28.167900
C -12.193400 -30.816700 -27.298700
C -12.130400 -25.808400 -29.636000
C -12.020300 -24.528900 -30.146200
H -11.602200 -26.491400 -30.025200
H -11.549000 -33.172800 -26.554600
H -11.452200 -28.424100 -28.684100
H -11.425600 -31.121000 -27.722200
H -11.399000 -24.353100 -30.856000
H -15.232000 -16.221900 -29.642000
H -15.205400 -9.454000 -32.775800
H -15.178800 -12.150900 -31.813900
H -15.082000 -7.402200 -33.943400
H -15.028800 -14.083600 -30.472800
C -14.610700 -16.046100 -30.351800
C -14.500600 -14.766600 -30.862000
C -14.437600 -9.758300 -33.199300
N -14.424200 -12.137300 -32.330100
H -14.405600 -18.537400 -29.756900
N -14.165900 -18.445400 -30.565600
N -14.094000 -7.555100 -34.179400
H -14.002600 -7.181800 -35.100900
C -13.968000 -11.059400 -33.074300
C -13.956400 -17.115900 -30.985100
C -13.727400 -8.923800 -34.056300
C -13.715900 -14.512300 -31.979200
C -13.580900 -13.177400 -32.578200
H -13.422000 -19.066200 -30.864100
C -13.149500 -16.853500 -32.074000
C -13.027000 -15.574000 -32.556000
C -12.861900 -11.528700 -33.759900
H -12.641700 -17.582500 -32.527800
N -12.626600 -12.866300 -33.441300
C -12.602700 -9.376900 -34.731900
H -12.363900 -15.417100 -33.253700
C -12.150800 -10.679300 -34.600800
H -12.070100 -8.612700 -35.264300
H -11.316400 -10.956600 -35.044500
