27
Fragment
H -12.781400 -17.578700 -11.983100
H -12.634200 -15.068700 -12.347900
H -12.450500 -18.369300 -13.334200
H -12.428200 -12.062000 -13.970700
C -12.074800 -17.810400 -12.621800
C -11.943700 -15.342900 -12.938700
N -11.523500 -16.595400 -13.197100
C -11.482100 -12.035200 -13.716900
H -11.407200 -11.923600 -12.746100
H -11.365900 -18.304700 -12.159300
C -11.140500 -14.549500 -13.729000
H -11.044000 -11.282800 -14.166800
N -10.842200 -13.270600 -14.110800
N -10.506500 -16.696600 -14.094100
C -10.287500 -15.402600 -14.417200
N -9.846500 -13.279800 -15.020200
C -9.490200 -14.550900 -15.228100
C -8.500100 -14.823500 -16.272900
O -8.301400 -16.140000 -16.402300
H -8.142600 -18.435700 -17.415000
O -7.961700 -13.979700 -16.940000
H -7.860400 -16.251800 -18.370400
C -7.444400 -16.519400 -17.513200
C -7.265300 -18.002300 -17.468800
H -6.802600 -18.300400 -18.279800
H -6.733100 -18.243700 -16.681800
H -6.567500 -16.067800 -17.436100
27
Fragment
H -16.700400 -16.591400 -13.670500
H -16.356800 -18.775700 -12.795800
H -16.214600 -18.748500 -14.388900
C -15.819600 -18.444900 -13.545000
C -15.791400 -16.952800 -13.517000
H -15.473400 -16.634000 -12.635700
O -15.430800 -14.372100 -14.065400
H -14.906000 -18.789900 -13.469500
O -14.888000 -16.503400 -14.569000
C -14.799300 -15.174100 -14.709100
C -13.822100 -14.828300 -15.738500
N -13.557600 -13.527900 -15.945400
C -12.983200 -15.618000 -16.562000
N -12.678400 -16.892900 -16.886100
N -12.575000 -13.450800 -16.863500
H -12.495200 -11.455500 -16.788500
C -12.206600 -14.709400 -17.266500
H -12.206400 -12.054900 -18.243800
C -12.047600 -12.173000 -17.284100
H -11.787600 -18.412000 -18.884100
N -11.692200 -16.720600 -17.810700
C -11.370100 -15.444300 -18.080600
C -11.094200 -17.895600 -18.422400
H -11.085400 -12.141700 -17.104800
H -10.716700 -15.122300 -18.690500
H -10.681900 -18.451900 -17.728900
H -10.410500 -17.617200 -19.066500
54
Fragment
H -12.781400 -17.578700 -11.983100
H -12.634200 -15.068700 -12.347900
H -12.450500 -18.369300 -13.334200
H -12.428200 -12.062000 -13.970700
C -12.074800 -17.810400 -12.621800
C -11.943700 -15.342900 -12.938700
N -11.523500 -16.595400 -13.197100
C -11.482100 -12.035200 -13.716900
H -11.407200 -11.923600 -12.746100
H -11.365900 -18.304700 -12.159300
C -11.140500 -14.549500 -13.729000
H -11.044000 -11.282800 -14.166800
N -10.842200 -13.270600 -14.110800
N -10.506500 -16.696600 -14.094100
C -10.287500 -15.402600 -14.417200
N -9.846500 -13.279800 -15.020200
C -9.490200 -14.550900 -15.228100
C -8.500100 -14.823500 -16.272900
O -8.301400 -16.140000 -16.402300
H -8.142600 -18.435700 -17.415000
O -7.961700 -13.979700 -16.940000
H -7.860400 -16.251800 -18.370400
C -7.444400 -16.519400 -17.513200
C -7.265300 -18.002300 -17.468800
H -6.802600 -18.300400 -18.279800
H -6.733100 -18.243700 -16.681800
H -6.567500 -16.067800 -17.436100
H -16.700400 -16.591400 -13.670500
H -16.356800 -18.775700 -12.795800
H -16.214600 -18.748500 -14.388900
C -15.819600 -18.444900 -13.545000
C -15.791400 -16.952800 -13.517000
H -15.473400 -16.634000 -12.635700
O -15.430800 -14.372100 -14.065400
H -14.906000 -18.789900 -13.469500
O -14.888000 -16.503400 -14.569000
C -14.799300 -15.174100 -14.709100
C -13.822100 -14.828300 -15.738500
N -13.557600 -13.527900 -15.945400
C -12.983200 -15.618000 -16.562000
N -12.678400 -16.892900 -16.886100
N -12.575000 -13.450800 -16.863500
H -12.495200 -11.455500 -16.788500
C -12.206600 -14.709400 -17.266500
H -12.206400 -12.054900 -18.243800
C -12.047600 -12.173000 -17.284100
H -11.787600 -18.412000 -18.884100
N -11.692200 -16.720600 -17.810700
C -11.370100 -15.444300 -18.080600
C -11.094200 -17.895600 -18.422400
H -11.085400 -12.141700 -17.104800
H -10.716700 -15.122300 -18.690500
H -10.681900 -18.451900 -17.728900
H -10.410500 -17.617200 -19.066500
