27
Fragment
H -12.781400 -17.578700 -11.983100
H -12.634200 -15.068700 -12.347900
H -12.450500 -18.369300 -13.334200
H -12.428200 -12.062000 -13.970700
C -12.074800 -17.810400 -12.621800
C -11.943700 -15.342900 -12.938700
N -11.523500 -16.595400 -13.197100
C -11.482100 -12.035200 -13.716900
H -11.407200 -11.923600 -12.746100
H -11.365900 -18.304700 -12.159300
C -11.140500 -14.549500 -13.729000
H -11.044000 -11.282800 -14.166800
N -10.842200 -13.270600 -14.110800
N -10.506500 -16.696600 -14.094100
C -10.287500 -15.402600 -14.417200
N -9.846500 -13.279800 -15.020200
C -9.490200 -14.550900 -15.228100
C -8.500100 -14.823500 -16.272900
O -8.301400 -16.140000 -16.402300
H -8.142600 -18.435700 -17.415000
O -7.961700 -13.979700 -16.940000
H -7.860400 -16.251800 -18.370400
C -7.444400 -16.519400 -17.513200
C -7.265300 -18.002300 -17.468800
H -6.802600 -18.300400 -18.279800
H -6.733100 -18.243700 -16.681800
H -6.567500 -16.067800 -17.436100
27
Fragment
H -19.279700 -11.673500 -5.748400
H -19.008300 -10.838800 -7.085900
H -18.973500 -14.168400 -6.124300
H -18.604800 -17.149000 -7.710000
C -18.596100 -11.395100 -6.392400
C -18.320200 -13.846400 -6.734200
N -17.998100 -12.570100 -7.004100
H -17.902600 -10.878700 -5.930700
C -17.642600 -17.117700 -7.530700
H -17.483800 -17.235900 -6.571000
C -17.483600 -14.581300 -7.548300
H -17.195100 -17.835200 -8.026400
N -17.115200 -15.840000 -7.951300
N -17.011800 -12.397800 -7.928700
C -16.707000 -13.672800 -8.252800
N -16.132600 -15.762800 -8.869400
C -15.868200 -14.462400 -9.076300
C -14.891000 -14.116600 -10.105700
O -14.802200 -12.787300 -10.245800
H -14.784200 -10.500800 -11.345300
O -14.259400 -14.918600 -10.749400
H -14.216900 -12.656700 -12.179100
C -13.898900 -12.337900 -11.297800
C -13.870600 -10.845800 -11.269800
H -13.475600 -10.542200 -10.425900
H -13.333400 -10.515000 -12.019100
H -12.989800 -12.699300 -11.144300
54
Fragment
H -12.781400 -17.578700 -11.983100
H -12.634200 -15.068700 -12.347900
H -12.450500 -18.369300 -13.334200
H -12.428200 -12.062000 -13.970700
C -12.074800 -17.810400 -12.621800
C -11.943700 -15.342900 -12.938700
N -11.523500 -16.595400 -13.197100
C -11.482100 -12.035200 -13.716900
H -11.407200 -11.923600 -12.746100
H -11.365900 -18.304700 -12.159300
C -11.140500 -14.549500 -13.729000
H -11.044000 -11.282800 -14.166800
N -10.842200 -13.270600 -14.110800
N -10.506500 -16.696600 -14.094100
C -10.287500 -15.402600 -14.417200
N -9.846500 -13.279800 -15.020200
C -9.490200 -14.550900 -15.228100
C -8.500100 -14.823500 -16.272900
O -8.301400 -16.140000 -16.402300
H -8.142600 -18.435700 -17.415000
O -7.961700 -13.979700 -16.940000
H -7.860400 -16.251800 -18.370400
C -7.444400 -16.519400 -17.513200
C -7.265300 -18.002300 -17.468800
H -6.802600 -18.300400 -18.279800
H -6.733100 -18.243700 -16.681800
H -6.567500 -16.067800 -17.436100
H -19.279700 -11.673500 -5.748400
H -19.008300 -10.838800 -7.085900
H -18.973500 -14.168400 -6.124300
H -18.604800 -17.149000 -7.710000
C -18.596100 -11.395100 -6.392400
C -18.320200 -13.846400 -6.734200
N -17.998100 -12.570100 -7.004100
H -17.902600 -10.878700 -5.930700
C -17.642600 -17.117700 -7.530700
H -17.483800 -17.235900 -6.571000
C -17.483600 -14.581300 -7.548300
H -17.195100 -17.835200 -8.026400
N -17.115200 -15.840000 -7.951300
N -17.011800 -12.397800 -7.928700
C -16.707000 -13.672800 -8.252800
N -16.132600 -15.762800 -8.869400
C -15.868200 -14.462400 -9.076300
C -14.891000 -14.116600 -10.105700
O -14.802200 -12.787300 -10.245800
H -14.784200 -10.500800 -11.345300
O -14.259400 -14.918600 -10.749400
H -14.216900 -12.656700 -12.179100
C -13.898900 -12.337900 -11.297800
C -13.870600 -10.845800 -11.269800
H -13.475600 -10.542200 -10.425900
H -13.333400 -10.515000 -12.019100
H -12.989800 -12.699300 -11.144300
