27
Fragment
H -12.781400 -17.578700 -11.983100
H -12.634200 -15.068700 -12.347900
H -12.450500 -18.369300 -13.334200
H -12.428200 -12.062000 -13.970700
C -12.074800 -17.810400 -12.621800
C -11.943700 -15.342900 -12.938700
N -11.523500 -16.595400 -13.197100
C -11.482100 -12.035200 -13.716900
H -11.407200 -11.923600 -12.746100
H -11.365900 -18.304700 -12.159300
C -11.140500 -14.549500 -13.729000
H -11.044000 -11.282800 -14.166800
N -10.842200 -13.270600 -14.110800
N -10.506500 -16.696600 -14.094100
C -10.287500 -15.402600 -14.417200
N -9.846500 -13.279800 -15.020200
C -9.490200 -14.550900 -15.228100
C -8.500100 -14.823500 -16.272900
O -8.301400 -16.140000 -16.402300
H -8.142600 -18.435700 -17.415000
O -7.961700 -13.979700 -16.940000
H -7.860400 -16.251800 -18.370400
C -7.444400 -16.519400 -17.513200
C -7.265300 -18.002300 -17.468800
H -6.802600 -18.300400 -18.279800
H -6.733100 -18.243700 -16.681800
H -6.567500 -16.067800 -17.436100
3
Fragment
H -13.548200 -19.952700 -15.422400
H -12.962400 -18.821400 -16.008000
O -12.750600 -19.511500 -15.672200
30
Fragment
H -12.781400 -17.578700 -11.983100
H -12.634200 -15.068700 -12.347900
H -12.450500 -18.369300 -13.334200
H -12.428200 -12.062000 -13.970700
C -12.074800 -17.810400 -12.621800
C -11.943700 -15.342900 -12.938700
N -11.523500 -16.595400 -13.197100
C -11.482100 -12.035200 -13.716900
H -11.407200 -11.923600 -12.746100
H -11.365900 -18.304700 -12.159300
C -11.140500 -14.549500 -13.729000
H -11.044000 -11.282800 -14.166800
N -10.842200 -13.270600 -14.110800
N -10.506500 -16.696600 -14.094100
C -10.287500 -15.402600 -14.417200
N -9.846500 -13.279800 -15.020200
C -9.490200 -14.550900 -15.228100
C -8.500100 -14.823500 -16.272900
O -8.301400 -16.140000 -16.402300
H -8.142600 -18.435700 -17.415000
O -7.961700 -13.979700 -16.940000
H -7.860400 -16.251800 -18.370400
C -7.444400 -16.519400 -17.513200
C -7.265300 -18.002300 -17.468800
H -6.802600 -18.300400 -18.279800
H -6.733100 -18.243700 -16.681800
H -6.567500 -16.067800 -17.436100
H -13.548200 -19.952700 -15.422400
H -12.962400 -18.821400 -16.008000
O -12.750600 -19.511500 -15.672200
