26
Fragment
O -15.575400 -8.165700 -22.102300
N -14.423600 -10.142300 -20.720900
N -14.360400 -8.155000 -22.037500
H -13.758500 -11.689900 -19.788900
C -13.690100 -9.303200 -21.461100
O -13.625100 -7.223700 -22.358700
N -13.510000 -10.997500 -20.219900
C -12.347800 -9.606900 -21.421500
O -12.279700 -14.940700 -18.124600
C -12.254700 -10.705100 -20.596600
O -11.431200 -8.735600 -23.314400
N -11.364100 -12.374500 -19.449200
N -11.249100 -9.009000 -22.135300
N -11.227400 -14.763000 -17.521800
N -11.112400 -11.397500 -20.208000
O -11.045300 -15.036400 -16.342700
C -10.221800 -13.066900 -19.060500
O -10.196800 -8.831300 -21.532500
C -10.128700 -14.165100 -18.235700
N -8.966500 -12.774500 -19.437300
O -8.851400 -16.548300 -17.298400
C -8.786400 -14.468800 -18.196000
H -8.718000 -12.082100 -19.868200
N -8.116100 -15.617000 -17.619700
N -8.052900 -13.629700 -18.936300
O -6.901100 -15.606300 -17.554900
26
Fragment
O -16.486300 -18.577800 -15.492700
N -15.334500 -16.601200 -14.111300
N -15.271400 -18.588500 -15.428000
H -14.669400 -15.053600 -13.179400
C -14.601000 -17.440300 -14.851600
O -14.536000 -19.519800 -15.749200
N -14.420900 -15.746000 -13.610300
C -13.258700 -17.136600 -14.811900
O -13.190600 -11.802800 -11.515100
C -13.165700 -16.038400 -13.987100
O -12.342200 -18.007900 -16.704900
N -12.275000 -14.369000 -12.839700
N -12.160000 -17.734500 -15.525800
N -12.138300 -11.980500 -10.912300
N -12.023300 -15.346000 -13.598400
O -11.956200 -11.707100 -9.733200
C -11.132700 -13.676600 -12.451000
O -11.107700 -17.912200 -14.923000
C -11.039600 -12.578400 -11.626200
N -9.877400 -13.969000 -12.827800
O -9.762300 -10.195200 -10.688900
C -9.697300 -12.274700 -11.586500
H -9.628900 -14.661400 -13.258700
N -9.027000 -11.126500 -11.010100
N -8.963800 -13.113800 -12.326800
O -7.812000 -11.137200 -10.945400
52
Fragment
O -15.575400 -8.165700 -22.102300
N -14.423600 -10.142300 -20.720900
N -14.360400 -8.155000 -22.037500
H -13.758500 -11.689900 -19.788900
C -13.690100 -9.303200 -21.461100
O -13.625100 -7.223700 -22.358700
N -13.510000 -10.997500 -20.219900
C -12.347800 -9.606900 -21.421500
O -12.279700 -14.940700 -18.124600
C -12.254700 -10.705100 -20.596600
O -11.431200 -8.735600 -23.314400
N -11.364100 -12.374500 -19.449200
N -11.249100 -9.009000 -22.135300
N -11.227400 -14.763000 -17.521800
N -11.112400 -11.397500 -20.208000
O -11.045300 -15.036400 -16.342700
C -10.221800 -13.066900 -19.060500
O -10.196800 -8.831300 -21.532500
C -10.128700 -14.165100 -18.235700
N -8.966500 -12.774500 -19.437300
O -8.851400 -16.548300 -17.298400
C -8.786400 -14.468800 -18.196000
H -8.718000 -12.082100 -19.868200
N -8.116100 -15.617000 -17.619700
N -8.052900 -13.629700 -18.936300
O -6.901100 -15.606300 -17.554900
O -16.486300 -18.577800 -15.492700
N -15.334500 -16.601200 -14.111300
N -15.271400 -18.588500 -15.428000
H -14.669400 -15.053600 -13.179400
C -14.601000 -17.440300 -14.851600
O -14.536000 -19.519800 -15.749200
N -14.420900 -15.746000 -13.610300
C -13.258700 -17.136600 -14.811900
O -13.190600 -11.802800 -11.515100
C -13.165700 -16.038400 -13.987100
O -12.342200 -18.007900 -16.704900
N -12.275000 -14.369000 -12.839700
N -12.160000 -17.734500 -15.525800
N -12.138300 -11.980500 -10.912300
N -12.023300 -15.346000 -13.598400
O -11.956200 -11.707100 -9.733200
C -11.132700 -13.676600 -12.451000
O -11.107700 -17.912200 -14.923000
C -11.039600 -12.578400 -11.626200
N -9.877400 -13.969000 -12.827800
O -9.762300 -10.195200 -10.688900
C -9.697300 -12.274700 -11.586500
H -9.628900 -14.661400 -13.258700
N -9.027000 -11.126500 -11.010100
N -8.963800 -13.113800 -12.326800
O -7.812000 -11.137200 -10.945400
