26
Fragment
O -15.575400 -8.165700 -22.102300
N -14.423600 -10.142300 -20.720900
N -14.360400 -8.155000 -22.037500
H -13.758500 -11.689900 -19.788900
C -13.690100 -9.303200 -21.461100
O -13.625100 -7.223700 -22.358700
N -13.510000 -10.997500 -20.219900
C -12.347800 -9.606900 -21.421500
O -12.279700 -14.940700 -18.124600
C -12.254700 -10.705100 -20.596600
O -11.431200 -8.735600 -23.314400
N -11.364100 -12.374500 -19.449200
N -11.249100 -9.009000 -22.135300
N -11.227400 -14.763000 -17.521800
N -11.112400 -11.397500 -20.208000
O -11.045300 -15.036400 -16.342700
C -10.221800 -13.066900 -19.060500
O -10.196800 -8.831300 -21.532500
C -10.128700 -14.165100 -18.235700
N -8.966500 -12.774500 -19.437300
O -8.851400 -16.548300 -17.298400
C -8.786400 -14.468800 -18.196000
H -8.718000 -12.082100 -19.868200
N -8.116100 -15.617000 -17.619700
N -8.052900 -13.629700 -18.936300
O -6.901100 -15.606300 -17.554900
26
Fragment
O -14.664500 -18.577800 -28.711800
N -13.512700 -16.601200 -27.330400
N -13.449500 -18.588500 -28.647000
H -12.847600 -15.053600 -26.398400
C -12.779200 -17.440300 -28.070700
O -12.714200 -19.519800 -28.968200
N -12.599100 -15.746000 -26.829400
C -11.436900 -17.136600 -28.031000
O -11.368800 -11.802800 -24.734200
C -11.343800 -16.038400 -27.206100
O -10.520300 -18.007900 -29.924000
N -10.453200 -14.369000 -26.058700
N -10.338200 -17.734500 -28.744800
N -10.316500 -11.980500 -24.131400
N -10.201500 -15.346000 -26.817500
O -10.134300 -11.707100 -22.952200
C -9.310800 -13.676600 -25.670100
O -9.285900 -17.912200 -28.142000
C -9.217800 -12.578400 -24.845200
N -8.055600 -13.969000 -26.046800
O -7.940500 -10.195200 -23.908000
C -7.875500 -12.274700 -24.805500
H -7.807100 -14.661400 -26.477800
N -7.205100 -11.126500 -24.229200
N -7.142000 -13.113800 -25.545800
O -5.990200 -11.137200 -24.164400
52
Fragment
O -15.575400 -8.165700 -22.102300
N -14.423600 -10.142300 -20.720900
N -14.360400 -8.155000 -22.037500
H -13.758500 -11.689900 -19.788900
C -13.690100 -9.303200 -21.461100
O -13.625100 -7.223700 -22.358700
N -13.510000 -10.997500 -20.219900
C -12.347800 -9.606900 -21.421500
O -12.279700 -14.940700 -18.124600
C -12.254700 -10.705100 -20.596600
O -11.431200 -8.735600 -23.314400
N -11.364100 -12.374500 -19.449200
N -11.249100 -9.009000 -22.135300
N -11.227400 -14.763000 -17.521800
N -11.112400 -11.397500 -20.208000
O -11.045300 -15.036400 -16.342700
C -10.221800 -13.066900 -19.060500
O -10.196800 -8.831300 -21.532500
C -10.128700 -14.165100 -18.235700
N -8.966500 -12.774500 -19.437300
O -8.851400 -16.548300 -17.298400
C -8.786400 -14.468800 -18.196000
H -8.718000 -12.082100 -19.868200
N -8.116100 -15.617000 -17.619700
N -8.052900 -13.629700 -18.936300
O -6.901100 -15.606300 -17.554900
O -14.664500 -18.577800 -28.711800
N -13.512700 -16.601200 -27.330400
N -13.449500 -18.588500 -28.647000
H -12.847600 -15.053600 -26.398400
C -12.779200 -17.440300 -28.070700
O -12.714200 -19.519800 -28.968200
N -12.599100 -15.746000 -26.829400
C -11.436900 -17.136600 -28.031000
O -11.368800 -11.802800 -24.734200
C -11.343800 -16.038400 -27.206100
O -10.520300 -18.007900 -29.924000
N -10.453200 -14.369000 -26.058700
N -10.338200 -17.734500 -28.744800
N -10.316500 -11.980500 -24.131400
N -10.201500 -15.346000 -26.817500
O -10.134300 -11.707100 -22.952200
C -9.310800 -13.676600 -25.670100
O -9.285900 -17.912200 -28.142000
C -9.217800 -12.578400 -24.845200
N -8.055600 -13.969000 -26.046800
O -7.940500 -10.195200 -23.908000
C -7.875500 -12.274700 -24.805500
H -7.807100 -14.661400 -26.477800
N -7.205100 -11.126500 -24.229200
N -7.142000 -13.113800 -25.545800
O -5.990200 -11.137200 -24.164400
