26
Fragment
O -15.575400 -8.165700 -22.102300
N -14.423600 -10.142300 -20.720900
N -14.360400 -8.155000 -22.037500
H -13.758500 -11.689900 -19.788900
C -13.690100 -9.303200 -21.461100
O -13.625100 -7.223700 -22.358700
N -13.510000 -10.997500 -20.219900
C -12.347800 -9.606900 -21.421500
O -12.279700 -14.940700 -18.124600
C -12.254700 -10.705100 -20.596600
O -11.431200 -8.735600 -23.314400
N -11.364100 -12.374500 -19.449200
N -11.249100 -9.009000 -22.135300
N -11.227400 -14.763000 -17.521800
N -11.112400 -11.397500 -20.208000
O -11.045300 -15.036400 -16.342700
C -10.221800 -13.066900 -19.060500
O -10.196800 -8.831300 -21.532500
C -10.128700 -14.165100 -18.235700
N -8.966500 -12.774500 -19.437300
O -8.851400 -16.548300 -17.298400
C -8.786400 -14.468800 -18.196000
H -8.718000 -12.082100 -19.868200
N -8.116100 -15.617000 -17.619700
N -8.052900 -13.629700 -18.936300
O -6.901100 -15.606300 -17.554900
26
Fragment
O -23.978500 -12.634800 -28.711800
N -22.826700 -10.658200 -27.330400
N -22.763500 -12.645500 -28.647000
H -22.161600 -9.110600 -26.398400
C -22.093200 -11.497300 -28.070700
O -22.028200 -13.576800 -28.968200
N -21.913100 -9.803000 -26.829400
C -20.750900 -11.193600 -28.031000
O -20.682800 -5.859800 -24.734200
C -20.657800 -10.095400 -27.206100
O -19.834300 -12.064900 -29.924000
N -19.767200 -8.426000 -26.058700
N -19.652200 -11.791500 -28.744800
N -19.630500 -6.037500 -24.131400
N -19.515500 -9.403000 -26.817500
O -19.448300 -5.764100 -22.952200
C -18.624800 -7.733600 -25.670100
O -18.599900 -11.969200 -28.142000
C -18.531800 -6.635400 -24.845200
N -17.369600 -8.026000 -26.046800
O -17.254500 -4.252200 -23.908000
C -17.189500 -6.331700 -24.805500
H -17.121100 -8.718400 -26.477800
N -16.519100 -5.183500 -24.229200
N -16.456000 -7.170800 -25.545800
O -15.304200 -5.194200 -24.164400
52
Fragment
O -15.575400 -8.165700 -22.102300
N -14.423600 -10.142300 -20.720900
N -14.360400 -8.155000 -22.037500
H -13.758500 -11.689900 -19.788900
C -13.690100 -9.303200 -21.461100
O -13.625100 -7.223700 -22.358700
N -13.510000 -10.997500 -20.219900
C -12.347800 -9.606900 -21.421500
O -12.279700 -14.940700 -18.124600
C -12.254700 -10.705100 -20.596600
O -11.431200 -8.735600 -23.314400
N -11.364100 -12.374500 -19.449200
N -11.249100 -9.009000 -22.135300
N -11.227400 -14.763000 -17.521800
N -11.112400 -11.397500 -20.208000
O -11.045300 -15.036400 -16.342700
C -10.221800 -13.066900 -19.060500
O -10.196800 -8.831300 -21.532500
C -10.128700 -14.165100 -18.235700
N -8.966500 -12.774500 -19.437300
O -8.851400 -16.548300 -17.298400
C -8.786400 -14.468800 -18.196000
H -8.718000 -12.082100 -19.868200
N -8.116100 -15.617000 -17.619700
N -8.052900 -13.629700 -18.936300
O -6.901100 -15.606300 -17.554900
O -23.978500 -12.634800 -28.711800
N -22.826700 -10.658200 -27.330400
N -22.763500 -12.645500 -28.647000
H -22.161600 -9.110600 -26.398400
C -22.093200 -11.497300 -28.070700
O -22.028200 -13.576800 -28.968200
N -21.913100 -9.803000 -26.829400
C -20.750900 -11.193600 -28.031000
O -20.682800 -5.859800 -24.734200
C -20.657800 -10.095400 -27.206100
O -19.834300 -12.064900 -29.924000
N -19.767200 -8.426000 -26.058700
N -19.652200 -11.791500 -28.744800
N -19.630500 -6.037500 -24.131400
N -19.515500 -9.403000 -26.817500
O -19.448300 -5.764100 -22.952200
C -18.624800 -7.733600 -25.670100
O -18.599900 -11.969200 -28.142000
C -18.531800 -6.635400 -24.845200
N -17.369600 -8.026000 -26.046800
O -17.254500 -4.252200 -23.908000
C -17.189500 -6.331700 -24.805500
H -17.121100 -8.718400 -26.477800
N -16.519100 -5.183500 -24.229200
N -16.456000 -7.170800 -25.545800
O -15.304200 -5.194200 -24.164400
