50
Fragment
H -27.347300 -14.204200 -27.993900
H -27.257400 -13.492200 -25.966300
H -26.927000 -13.962200 -30.459600
C -26.559300 -13.896600 -28.468100
C -26.468800 -13.712000 -25.546300
H -26.373900 -13.201900 -24.724400
H -26.355800 -14.439200 -25.085700
C -26.328800 -13.795700 -29.777700
H -26.081800 -13.595900 -32.311100
C -25.386200 -13.447300 -27.772600
H -25.331300 -12.427800 -32.807800
C -25.256400 -13.374000 -26.384000
C -25.203600 -13.217100 -32.421700
C -25.000300 -13.299400 -29.947000
H -24.714500 -13.602800 -33.123900
H -24.643000 -13.098200 -23.674500
N -24.442300 -13.111400 -28.702200
C -24.370700 -13.059500 -31.162900
C -24.089600 -13.013900 -25.730300
C -23.924400 -12.975900 -24.315700
C -23.039100 -12.673800 -31.318000
N -22.881300 -12.702900 -26.309900
H -22.812700 -12.773400 -27.479100
H -22.792400 -12.559100 -33.358800
C -22.651000 -12.660000 -24.067400
C -22.372900 -12.452700 -32.552700
H -22.223600 -12.538400 -23.301900
N -22.130200 -12.432600 -30.318900
H -22.095500 -12.572900 -29.308000
C -21.966500 -12.480300 -25.305400
C -21.120100 -12.105700 -32.308800
C -20.926700 -12.082200 -30.893100
C -20.629300 -12.104300 -25.449200
N -20.569400 -12.033100 -27.914600
H -20.454000 -11.937000 -32.920700
H -20.104600 -11.308000 -23.663200
C -20.017000 -11.843700 -26.668900
C -19.808400 -11.983300 -24.182500
H -19.774100 -12.828700 -23.730900
C -19.767000 -11.721400 -30.227500
C -19.632300 -11.659900 -28.847400
H -18.985600 -11.529200 -24.363100
H -18.842600 -11.010800 -31.904600
C -18.694700 -11.317700 -26.844600
C -18.557400 -11.391700 -31.069200
C -18.464600 -11.205700 -28.152000
H -18.348800 -12.068400 -31.633700
H -18.133000 -11.156000 -26.144700
H -17.973600 -10.872600 -30.685400
H -17.667000 -10.907100 -28.558400
20
Fragment
N -26.644600 -12.407000 -13.285900
H -26.208600 -12.275700 -16.144200
H -26.038900 -12.130600 -18.481200
N -25.940100 -12.107800 -21.430300
C -25.645000 -12.107100 -13.746300
C -25.414500 -12.032400 -16.575500
C -25.304500 -11.975700 -17.900900
C -25.066300 -11.846500 -20.745900
C -24.420300 -11.727600 -14.367300
C -24.308100 -11.684000 -15.731300
C -24.080300 -11.578300 -18.530400
C -23.969100 -11.533400 -19.887900
C -23.344200 -11.404100 -13.486700
C -23.081600 -11.271400 -16.352000
C -22.978400 -11.222300 -17.679600
C -22.734800 -11.206400 -20.524600
N -22.473800 -11.140100 -12.791200
H -22.310600 -10.997000 -15.778500
H -22.121000 -11.031600 -18.129000
N -21.732200 -10.954800 -21.004900
70
Fragment
H -27.347300 -14.204200 -27.993900
H -27.257400 -13.492200 -25.966300
H -26.927000 -13.962200 -30.459600
C -26.559300 -13.896600 -28.468100
C -26.468800 -13.712000 -25.546300
H -26.373900 -13.201900 -24.724400
H -26.355800 -14.439200 -25.085700
C -26.328800 -13.795700 -29.777700
H -26.081800 -13.595900 -32.311100
C -25.386200 -13.447300 -27.772600
H -25.331300 -12.427800 -32.807800
C -25.256400 -13.374000 -26.384000
C -25.203600 -13.217100 -32.421700
C -25.000300 -13.299400 -29.947000
H -24.714500 -13.602800 -33.123900
H -24.643000 -13.098200 -23.674500
N -24.442300 -13.111400 -28.702200
C -24.370700 -13.059500 -31.162900
C -24.089600 -13.013900 -25.730300
C -23.924400 -12.975900 -24.315700
C -23.039100 -12.673800 -31.318000
N -22.881300 -12.702900 -26.309900
H -22.812700 -12.773400 -27.479100
H -22.792400 -12.559100 -33.358800
C -22.651000 -12.660000 -24.067400
C -22.372900 -12.452700 -32.552700
H -22.223600 -12.538400 -23.301900
N -22.130200 -12.432600 -30.318900
H -22.095500 -12.572900 -29.308000
C -21.966500 -12.480300 -25.305400
C -21.120100 -12.105700 -32.308800
C -20.926700 -12.082200 -30.893100
C -20.629300 -12.104300 -25.449200
N -20.569400 -12.033100 -27.914600
H -20.454000 -11.937000 -32.920700
H -20.104600 -11.308000 -23.663200
C -20.017000 -11.843700 -26.668900
C -19.808400 -11.983300 -24.182500
H -19.774100 -12.828700 -23.730900
C -19.767000 -11.721400 -30.227500
C -19.632300 -11.659900 -28.847400
H -18.985600 -11.529200 -24.363100
H -18.842600 -11.010800 -31.904600
C -18.694700 -11.317700 -26.844600
C -18.557400 -11.391700 -31.069200
C -18.464600 -11.205700 -28.152000
H -18.348800 -12.068400 -31.633700
H -18.133000 -11.156000 -26.144700
H -17.973600 -10.872600 -30.685400
H -17.667000 -10.907100 -28.558400
N -26.644600 -12.407000 -13.285900
H -26.208600 -12.275700 -16.144200
H -26.038900 -12.130600 -18.481200
N -25.940100 -12.107800 -21.430300
C -25.645000 -12.107100 -13.746300
C -25.414500 -12.032400 -16.575500
C -25.304500 -11.975700 -17.900900
C -25.066300 -11.846500 -20.745900
C -24.420300 -11.727600 -14.367300
C -24.308100 -11.684000 -15.731300
C -24.080300 -11.578300 -18.530400
C -23.969100 -11.533400 -19.887900
C -23.344200 -11.404100 -13.486700
C -23.081600 -11.271400 -16.352000
C -22.978400 -11.222300 -17.679600
C -22.734800 -11.206400 -20.524600
N -22.473800 -11.140100 -12.791200
H -22.310600 -10.997000 -15.778500
H -22.121000 -11.031600 -18.129000
N -21.732200 -10.954800 -21.004900
