50
Fragment
H -27.347300 -14.204200 -27.993900
H -27.257400 -13.492200 -25.966300
H -26.927000 -13.962200 -30.459600
C -26.559300 -13.896600 -28.468100
C -26.468800 -13.712000 -25.546300
H -26.373900 -13.201900 -24.724400
H -26.355800 -14.439200 -25.085700
C -26.328800 -13.795700 -29.777700
H -26.081800 -13.595900 -32.311100
C -25.386200 -13.447300 -27.772600
H -25.331300 -12.427800 -32.807800
C -25.256400 -13.374000 -26.384000
C -25.203600 -13.217100 -32.421700
C -25.000300 -13.299400 -29.947000
H -24.714500 -13.602800 -33.123900
H -24.643000 -13.098200 -23.674500
N -24.442300 -13.111400 -28.702200
C -24.370700 -13.059500 -31.162900
C -24.089600 -13.013900 -25.730300
C -23.924400 -12.975900 -24.315700
C -23.039100 -12.673800 -31.318000
N -22.881300 -12.702900 -26.309900
H -22.812700 -12.773400 -27.479100
H -22.792400 -12.559100 -33.358800
C -22.651000 -12.660000 -24.067400
C -22.372900 -12.452700 -32.552700
H -22.223600 -12.538400 -23.301900
N -22.130200 -12.432600 -30.318900
H -22.095500 -12.572900 -29.308000
C -21.966500 -12.480300 -25.305400
C -21.120100 -12.105700 -32.308800
C -20.926700 -12.082200 -30.893100
C -20.629300 -12.104300 -25.449200
N -20.569400 -12.033100 -27.914600
H -20.454000 -11.937000 -32.920700
H -20.104600 -11.308000 -23.663200
C -20.017000 -11.843700 -26.668900
C -19.808400 -11.983300 -24.182500
H -19.774100 -12.828700 -23.730900
C -19.767000 -11.721400 -30.227500
C -19.632300 -11.659900 -28.847400
H -18.985600 -11.529200 -24.363100
H -18.842600 -11.010800 -31.904600
C -18.694700 -11.317700 -26.844600
C -18.557400 -11.391700 -31.069200
C -18.464600 -11.205700 -28.152000
H -18.348800 -12.068400 -31.633700
H -18.133000 -11.156000 -26.144700
H -17.973600 -10.872600 -30.685400
H -17.667000 -10.907100 -28.558400
50
Fragment
H -20.125300 -9.987800 -16.704200
H -20.035400 -10.699800 -14.676600
H -19.705000 -10.229800 -19.169900
C -19.337300 -10.295400 -17.178400
C -19.246900 -10.480000 -14.256600
H -19.151900 -10.990100 -13.434700
H -19.133800 -9.752800 -13.796000
C -19.106800 -10.396300 -18.488000
H -18.859800 -10.596100 -21.021400
C -18.164200 -10.744700 -16.482900
H -18.109300 -11.764200 -21.518100
C -18.034400 -10.818000 -15.094300
C -17.981600 -10.974900 -21.132000
C -17.778300 -10.892600 -18.657300
H -17.492500 -10.589200 -21.834300
H -17.421000 -11.093800 -12.384800
N -17.220300 -11.080600 -17.412500
C -17.148700 -11.132500 -19.873200
C -16.867600 -11.178100 -14.440600
C -16.702400 -11.216100 -13.026000
C -15.817100 -11.518200 -20.028400
N -15.659300 -11.489100 -15.020200
H -15.590700 -11.418600 -16.189400
H -15.570400 -11.632900 -22.069100
C -15.429000 -11.532000 -12.777700
C -15.150900 -11.739300 -21.263000
H -15.001600 -11.653600 -12.012200
N -14.908200 -11.759400 -19.029200
H -14.873500 -11.619100 -18.018300
C -14.744500 -11.711700 -14.015700
C -13.898100 -12.086300 -21.019100
C -13.704700 -12.109800 -19.603400
C -13.407300 -12.087700 -14.159500
N -13.347400 -12.158900 -16.625000
H -13.232000 -12.255000 -21.631000
H -12.882600 -12.884000 -12.373500
C -12.795000 -12.348300 -15.379300
C -12.586400 -12.208700 -12.892800
H -12.552100 -11.363300 -12.441200
C -12.545000 -12.470600 -18.937800
C -12.410300 -12.532100 -17.557700
H -11.763600 -12.662800 -13.073500
H -11.620600 -13.181200 -20.615000
C -11.472700 -12.874300 -15.554900
C -11.335400 -12.800300 -19.779500
C -11.242600 -12.986300 -16.862300
H -11.126800 -12.123600 -20.344000
H -10.911000 -13.036000 -14.855000
H -10.751600 -13.319400 -19.395700
H -10.445000 -13.284900 -17.268700
100
Fragment
H -27.347300 -14.204200 -27.993900
H -27.257400 -13.492200 -25.966300
H -26.927000 -13.962200 -30.459600
C -26.559300 -13.896600 -28.468100
C -26.468800 -13.712000 -25.546300
H -26.373900 -13.201900 -24.724400
H -26.355800 -14.439200 -25.085700
C -26.328800 -13.795700 -29.777700
H -26.081800 -13.595900 -32.311100
C -25.386200 -13.447300 -27.772600
H -25.331300 -12.427800 -32.807800
C -25.256400 -13.374000 -26.384000
C -25.203600 -13.217100 -32.421700
C -25.000300 -13.299400 -29.947000
H -24.714500 -13.602800 -33.123900
H -24.643000 -13.098200 -23.674500
N -24.442300 -13.111400 -28.702200
C -24.370700 -13.059500 -31.162900
C -24.089600 -13.013900 -25.730300
C -23.924400 -12.975900 -24.315700
C -23.039100 -12.673800 -31.318000
N -22.881300 -12.702900 -26.309900
H -22.812700 -12.773400 -27.479100
H -22.792400 -12.559100 -33.358800
C -22.651000 -12.660000 -24.067400
C -22.372900 -12.452700 -32.552700
H -22.223600 -12.538400 -23.301900
N -22.130200 -12.432600 -30.318900
H -22.095500 -12.572900 -29.308000
C -21.966500 -12.480300 -25.305400
C -21.120100 -12.105700 -32.308800
C -20.926700 -12.082200 -30.893100
C -20.629300 -12.104300 -25.449200
N -20.569400 -12.033100 -27.914600
H -20.454000 -11.937000 -32.920700
H -20.104600 -11.308000 -23.663200
C -20.017000 -11.843700 -26.668900
C -19.808400 -11.983300 -24.182500
H -19.774100 -12.828700 -23.730900
C -19.767000 -11.721400 -30.227500
C -19.632300 -11.659900 -28.847400
H -18.985600 -11.529200 -24.363100
H -18.842600 -11.010800 -31.904600
C -18.694700 -11.317700 -26.844600
C -18.557400 -11.391700 -31.069200
C -18.464600 -11.205700 -28.152000
H -18.348800 -12.068400 -31.633700
H -18.133000 -11.156000 -26.144700
H -17.973600 -10.872600 -30.685400
H -17.667000 -10.907100 -28.558400
H -20.125300 -9.987800 -16.704200
H -20.035400 -10.699800 -14.676600
H -19.705000 -10.229800 -19.169900
C -19.337300 -10.295400 -17.178400
C -19.246900 -10.480000 -14.256600
H -19.151900 -10.990100 -13.434700
H -19.133800 -9.752800 -13.796000
C -19.106800 -10.396300 -18.488000
H -18.859800 -10.596100 -21.021400
C -18.164200 -10.744700 -16.482900
H -18.109300 -11.764200 -21.518100
C -18.034400 -10.818000 -15.094300
C -17.981600 -10.974900 -21.132000
C -17.778300 -10.892600 -18.657300
H -17.492500 -10.589200 -21.834300
H -17.421000 -11.093800 -12.384800
N -17.220300 -11.080600 -17.412500
C -17.148700 -11.132500 -19.873200
C -16.867600 -11.178100 -14.440600
C -16.702400 -11.216100 -13.026000
C -15.817100 -11.518200 -20.028400
N -15.659300 -11.489100 -15.020200
H -15.590700 -11.418600 -16.189400
H -15.570400 -11.632900 -22.069100
C -15.429000 -11.532000 -12.777700
C -15.150900 -11.739300 -21.263000
H -15.001600 -11.653600 -12.012200
N -14.908200 -11.759400 -19.029200
H -14.873500 -11.619100 -18.018300
C -14.744500 -11.711700 -14.015700
C -13.898100 -12.086300 -21.019100
C -13.704700 -12.109800 -19.603400
C -13.407300 -12.087700 -14.159500
N -13.347400 -12.158900 -16.625000
H -13.232000 -12.255000 -21.631000
H -12.882600 -12.884000 -12.373500
C -12.795000 -12.348300 -15.379300
C -12.586400 -12.208700 -12.892800
H -12.552100 -11.363300 -12.441200
C -12.545000 -12.470600 -18.937800
C -12.410300 -12.532100 -17.557700
H -11.763600 -12.662800 -13.073500
H -11.620600 -13.181200 -20.615000
C -11.472700 -12.874300 -15.554900
C -11.335400 -12.800300 -19.779500
C -11.242600 -12.986300 -16.862300
H -11.126800 -12.123600 -20.344000
H -10.911000 -13.036000 -14.855000
H -10.751600 -13.319400 -19.395700
H -10.445000 -13.284900 -17.268700
