50
Fragment
H -27.347300 -14.204200 -27.993900
H -27.257400 -13.492200 -25.966300
H -26.927000 -13.962200 -30.459600
C -26.559300 -13.896600 -28.468100
C -26.468800 -13.712000 -25.546300
H -26.373900 -13.201900 -24.724400
H -26.355800 -14.439200 -25.085700
C -26.328800 -13.795700 -29.777700
H -26.081800 -13.595900 -32.311100
C -25.386200 -13.447300 -27.772600
H -25.331300 -12.427800 -32.807800
C -25.256400 -13.374000 -26.384000
C -25.203600 -13.217100 -32.421700
C -25.000300 -13.299400 -29.947000
H -24.714500 -13.602800 -33.123900
H -24.643000 -13.098200 -23.674500
N -24.442300 -13.111400 -28.702200
C -24.370700 -13.059500 -31.162900
C -24.089600 -13.013900 -25.730300
C -23.924400 -12.975900 -24.315700
C -23.039100 -12.673800 -31.318000
N -22.881300 -12.702900 -26.309900
H -22.812700 -12.773400 -27.479100
H -22.792400 -12.559100 -33.358800
C -22.651000 -12.660000 -24.067400
C -22.372900 -12.452700 -32.552700
H -22.223600 -12.538400 -23.301900
N -22.130200 -12.432600 -30.318900
H -22.095500 -12.572900 -29.308000
C -21.966500 -12.480300 -25.305400
C -21.120100 -12.105700 -32.308800
C -20.926700 -12.082200 -30.893100
C -20.629300 -12.104300 -25.449200
N -20.569400 -12.033100 -27.914600
H -20.454000 -11.937000 -32.920700
H -20.104600 -11.308000 -23.663200
C -20.017000 -11.843700 -26.668900
C -19.808400 -11.983300 -24.182500
H -19.774100 -12.828700 -23.730900
C -19.767000 -11.721400 -30.227500
C -19.632300 -11.659900 -28.847400
H -18.985600 -11.529200 -24.363100
H -18.842600 -11.010800 -31.904600
C -18.694700 -11.317700 -26.844600
C -18.557400 -11.391700 -31.069200
C -18.464600 -11.205700 -28.152000
H -18.348800 -12.068400 -31.633700
H -18.133000 -11.156000 -26.144700
H -17.973600 -10.872600 -30.685400
H -17.667000 -10.907100 -28.558400
50
Fragment
H -36.247000 -7.451100 -27.890000
H -35.940400 -7.416600 -25.763100
H -35.781000 -7.700000 -30.303800
H -35.565200 -8.612400 -24.814700
C -35.449400 -7.749700 -28.296500
C -35.356500 -7.935700 -25.379200
C -35.219300 -7.861700 -29.603800
H -35.071400 -7.554800 -24.543800
H -34.928400 -8.073200 -32.085300
C -34.281700 -8.203900 -27.601000
C -34.147000 -8.265400 -26.221000
H -34.139900 -9.372700 -32.717500
C -34.105600 -8.527300 -32.265900
C -33.897000 -8.387700 -29.779500
H -33.809400 -7.852000 -32.785200
H -33.460000 -8.481000 -23.527700
N -33.344600 -8.577100 -28.533800
C -33.284600 -8.648300 -30.999200
C -32.987300 -8.626200 -25.555300
C -32.793900 -8.649700 -24.139600
C -31.947500 -9.024300 -31.143000
H -31.818500 -9.116900 -27.140400
N -31.783800 -8.976600 -26.129500
H -31.690300 -9.082400 -33.146500
C -31.541100 -8.996700 -23.895700
C -31.263000 -9.204000 -32.381100
H -31.121600 -9.103100 -23.089700
H -31.101300 -9.317400 -28.969300
N -31.032700 -9.246900 -30.138500
C -30.874900 -9.217800 -25.130400
C -29.989600 -9.519900 -32.132700
C -29.824400 -9.557900 -30.718100
C -29.543200 -9.603500 -25.285500
N -29.471700 -9.655400 -27.746200
H -29.271000 -9.642200 -32.774000
H -29.199500 -10.146800 -23.324500
C -28.913600 -9.843400 -26.501400
C -28.710400 -9.761100 -24.026700
C -28.657600 -9.918000 -30.064400
H -28.582700 -8.971800 -23.640600
C -28.527800 -9.991300 -28.675800
H -27.832200 -10.139900 -24.137300
C -27.585200 -10.339700 -26.670800
H -27.558200 -10.983200 -31.362700
H -27.540000 -9.745900 -31.724000
C -27.445100 -10.256000 -30.902100
C -27.354700 -10.440600 -27.980400
H -26.987000 -10.506200 -25.988900
H -26.656600 -10.036200 -30.482100
H -26.566600 -10.748200 -28.454500
100
Fragment
H -27.347300 -14.204200 -27.993900
H -27.257400 -13.492200 -25.966300
H -26.927000 -13.962200 -30.459600
C -26.559300 -13.896600 -28.468100
C -26.468800 -13.712000 -25.546300
H -26.373900 -13.201900 -24.724400
H -26.355800 -14.439200 -25.085700
C -26.328800 -13.795700 -29.777700
H -26.081800 -13.595900 -32.311100
C -25.386200 -13.447300 -27.772600
H -25.331300 -12.427800 -32.807800
C -25.256400 -13.374000 -26.384000
C -25.203600 -13.217100 -32.421700
C -25.000300 -13.299400 -29.947000
H -24.714500 -13.602800 -33.123900
H -24.643000 -13.098200 -23.674500
N -24.442300 -13.111400 -28.702200
C -24.370700 -13.059500 -31.162900
C -24.089600 -13.013900 -25.730300
C -23.924400 -12.975900 -24.315700
C -23.039100 -12.673800 -31.318000
N -22.881300 -12.702900 -26.309900
H -22.812700 -12.773400 -27.479100
H -22.792400 -12.559100 -33.358800
C -22.651000 -12.660000 -24.067400
C -22.372900 -12.452700 -32.552700
H -22.223600 -12.538400 -23.301900
N -22.130200 -12.432600 -30.318900
H -22.095500 -12.572900 -29.308000
C -21.966500 -12.480300 -25.305400
C -21.120100 -12.105700 -32.308800
C -20.926700 -12.082200 -30.893100
C -20.629300 -12.104300 -25.449200
N -20.569400 -12.033100 -27.914600
H -20.454000 -11.937000 -32.920700
H -20.104600 -11.308000 -23.663200
C -20.017000 -11.843700 -26.668900
C -19.808400 -11.983300 -24.182500
H -19.774100 -12.828700 -23.730900
C -19.767000 -11.721400 -30.227500
C -19.632300 -11.659900 -28.847400
H -18.985600 -11.529200 -24.363100
H -18.842600 -11.010800 -31.904600
C -18.694700 -11.317700 -26.844600
C -18.557400 -11.391700 -31.069200
C -18.464600 -11.205700 -28.152000
H -18.348800 -12.068400 -31.633700
H -18.133000 -11.156000 -26.144700
H -17.973600 -10.872600 -30.685400
H -17.667000 -10.907100 -28.558400
H -36.247000 -7.451100 -27.890000
H -35.940400 -7.416600 -25.763100
H -35.781000 -7.700000 -30.303800
H -35.565200 -8.612400 -24.814700
C -35.449400 -7.749700 -28.296500
C -35.356500 -7.935700 -25.379200
C -35.219300 -7.861700 -29.603800
H -35.071400 -7.554800 -24.543800
H -34.928400 -8.073200 -32.085300
C -34.281700 -8.203900 -27.601000
C -34.147000 -8.265400 -26.221000
H -34.139900 -9.372700 -32.717500
C -34.105600 -8.527300 -32.265900
C -33.897000 -8.387700 -29.779500
H -33.809400 -7.852000 -32.785200
H -33.460000 -8.481000 -23.527700
N -33.344600 -8.577100 -28.533800
C -33.284600 -8.648300 -30.999200
C -32.987300 -8.626200 -25.555300
C -32.793900 -8.649700 -24.139600
C -31.947500 -9.024300 -31.143000
H -31.818500 -9.116900 -27.140400
N -31.783800 -8.976600 -26.129500
H -31.690300 -9.082400 -33.146500
C -31.541100 -8.996700 -23.895700
C -31.263000 -9.204000 -32.381100
H -31.121600 -9.103100 -23.089700
H -31.101300 -9.317400 -28.969300
N -31.032700 -9.246900 -30.138500
C -30.874900 -9.217800 -25.130400
C -29.989600 -9.519900 -32.132700
C -29.824400 -9.557900 -30.718100
C -29.543200 -9.603500 -25.285500
N -29.471700 -9.655400 -27.746200
H -29.271000 -9.642200 -32.774000
H -29.199500 -10.146800 -23.324500
C -28.913600 -9.843400 -26.501400
C -28.710400 -9.761100 -24.026700
C -28.657600 -9.918000 -30.064400
H -28.582700 -8.971800 -23.640600
C -28.527800 -9.991300 -28.675800
H -27.832200 -10.139900 -24.137300
C -27.585200 -10.339700 -26.670800
H -27.558200 -10.983200 -31.362700
H -27.540000 -9.745900 -31.724000
C -27.445100 -10.256000 -30.902100
C -27.354700 -10.440600 -27.980400
H -26.987000 -10.506200 -25.988900
H -26.656600 -10.036200 -30.482100
H -26.566600 -10.748200 -28.454500
