50
Fragment
H -27.347300 -14.204200 -27.993900
H -27.257400 -13.492200 -25.966300
H -26.927000 -13.962200 -30.459600
C -26.559300 -13.896600 -28.468100
C -26.468800 -13.712000 -25.546300
H -26.373900 -13.201900 -24.724400
H -26.355800 -14.439200 -25.085700
C -26.328800 -13.795700 -29.777700
H -26.081800 -13.595900 -32.311100
C -25.386200 -13.447300 -27.772600
H -25.331300 -12.427800 -32.807800
C -25.256400 -13.374000 -26.384000
C -25.203600 -13.217100 -32.421700
C -25.000300 -13.299400 -29.947000
H -24.714500 -13.602800 -33.123900
H -24.643000 -13.098200 -23.674500
N -24.442300 -13.111400 -28.702200
C -24.370700 -13.059500 -31.162900
C -24.089600 -13.013900 -25.730300
C -23.924400 -12.975900 -24.315700
C -23.039100 -12.673800 -31.318000
N -22.881300 -12.702900 -26.309900
H -22.812700 -12.773400 -27.479100
H -22.792400 -12.559100 -33.358800
C -22.651000 -12.660000 -24.067400
C -22.372900 -12.452700 -32.552700
H -22.223600 -12.538400 -23.301900
N -22.130200 -12.432600 -30.318900
H -22.095500 -12.572900 -29.308000
C -21.966500 -12.480300 -25.305400
C -21.120100 -12.105700 -32.308800
C -20.926700 -12.082200 -30.893100
C -20.629300 -12.104300 -25.449200
N -20.569400 -12.033100 -27.914600
H -20.454000 -11.937000 -32.920700
H -20.104600 -11.308000 -23.663200
C -20.017000 -11.843700 -26.668900
C -19.808400 -11.983300 -24.182500
H -19.774100 -12.828700 -23.730900
C -19.767000 -11.721400 -30.227500
C -19.632300 -11.659900 -28.847400
H -18.985600 -11.529200 -24.363100
H -18.842600 -11.010800 -31.904600
C -18.694700 -11.317700 -26.844600
C -18.557400 -11.391700 -31.069200
C -18.464600 -11.205700 -28.152000
H -18.348800 -12.068400 -31.633700
H -18.133000 -11.156000 -26.144700
H -17.973600 -10.872600 -30.685400
H -17.667000 -10.907100 -28.558400
50
Fragment
H -29.025000 -16.740900 -16.600400
H -28.718400 -16.775400 -14.473400
H -28.559000 -16.492000 -19.014100
H -28.343200 -15.579600 -13.525000
C -28.227400 -16.442300 -17.006800
C -28.134500 -16.256300 -14.089500
C -27.997300 -16.330300 -18.314100
H -27.849400 -16.637200 -13.254100
H -27.706400 -16.118800 -20.795600
C -27.059700 -15.988100 -16.311300
C -26.925000 -15.926600 -14.931300
H -26.917900 -14.819300 -21.427800
C -26.883600 -15.664700 -20.976200
C -26.675000 -15.804300 -18.489800
H -26.587400 -16.340000 -21.495600
H -26.238000 -15.711000 -12.238000
N -26.122600 -15.614900 -17.244100
C -26.062600 -15.543700 -19.709500
C -25.765300 -15.565800 -14.265600
C -25.571900 -15.542300 -12.849900
C -24.725500 -15.167700 -19.853400
H -24.596500 -15.075100 -15.850700
N -24.561800 -15.215400 -14.839800
H -24.468300 -15.109600 -21.856800
C -24.319100 -15.195300 -12.606100
C -24.041000 -14.988000 -21.091400
H -23.899600 -15.088900 -11.800000
H -23.879300 -14.874600 -17.679600
N -23.810700 -14.945100 -18.848800
C -23.652900 -14.974200 -13.840700
C -22.767600 -14.672100 -20.843000
C -22.602400 -14.634100 -19.428400
C -22.321200 -14.588500 -13.995800
N -22.249700 -14.536600 -16.456500
H -22.049000 -14.549800 -21.484300
H -21.977500 -14.045200 -12.034800
C -21.691600 -14.348600 -15.211700
C -21.488400 -14.430900 -12.737000
C -21.435600 -14.274000 -18.774700
H -21.360700 -15.220200 -12.350900
C -21.305800 -14.200700 -17.386100
H -20.610200 -14.052100 -12.847700
C -20.363200 -13.852300 -15.381100
H -20.336200 -13.208800 -20.073100
H -20.318000 -14.446100 -20.434300
C -20.223100 -13.936000 -19.612400
C -20.132700 -13.751400 -16.690700
H -19.765000 -13.685800 -14.699200
H -19.434600 -14.155800 -19.192500
H -19.344600 -13.443800 -17.164800
100
Fragment
H -27.347300 -14.204200 -27.993900
H -27.257400 -13.492200 -25.966300
H -26.927000 -13.962200 -30.459600
C -26.559300 -13.896600 -28.468100
C -26.468800 -13.712000 -25.546300
H -26.373900 -13.201900 -24.724400
H -26.355800 -14.439200 -25.085700
C -26.328800 -13.795700 -29.777700
H -26.081800 -13.595900 -32.311100
C -25.386200 -13.447300 -27.772600
H -25.331300 -12.427800 -32.807800
C -25.256400 -13.374000 -26.384000
C -25.203600 -13.217100 -32.421700
C -25.000300 -13.299400 -29.947000
H -24.714500 -13.602800 -33.123900
H -24.643000 -13.098200 -23.674500
N -24.442300 -13.111400 -28.702200
C -24.370700 -13.059500 -31.162900
C -24.089600 -13.013900 -25.730300
C -23.924400 -12.975900 -24.315700
C -23.039100 -12.673800 -31.318000
N -22.881300 -12.702900 -26.309900
H -22.812700 -12.773400 -27.479100
H -22.792400 -12.559100 -33.358800
C -22.651000 -12.660000 -24.067400
C -22.372900 -12.452700 -32.552700
H -22.223600 -12.538400 -23.301900
N -22.130200 -12.432600 -30.318900
H -22.095500 -12.572900 -29.308000
C -21.966500 -12.480300 -25.305400
C -21.120100 -12.105700 -32.308800
C -20.926700 -12.082200 -30.893100
C -20.629300 -12.104300 -25.449200
N -20.569400 -12.033100 -27.914600
H -20.454000 -11.937000 -32.920700
H -20.104600 -11.308000 -23.663200
C -20.017000 -11.843700 -26.668900
C -19.808400 -11.983300 -24.182500
H -19.774100 -12.828700 -23.730900
C -19.767000 -11.721400 -30.227500
C -19.632300 -11.659900 -28.847400
H -18.985600 -11.529200 -24.363100
H -18.842600 -11.010800 -31.904600
C -18.694700 -11.317700 -26.844600
C -18.557400 -11.391700 -31.069200
C -18.464600 -11.205700 -28.152000
H -18.348800 -12.068400 -31.633700
H -18.133000 -11.156000 -26.144700
H -17.973600 -10.872600 -30.685400
H -17.667000 -10.907100 -28.558400
H -29.025000 -16.740900 -16.600400
H -28.718400 -16.775400 -14.473400
H -28.559000 -16.492000 -19.014100
H -28.343200 -15.579600 -13.525000
C -28.227400 -16.442300 -17.006800
C -28.134500 -16.256300 -14.089500
C -27.997300 -16.330300 -18.314100
H -27.849400 -16.637200 -13.254100
H -27.706400 -16.118800 -20.795600
C -27.059700 -15.988100 -16.311300
C -26.925000 -15.926600 -14.931300
H -26.917900 -14.819300 -21.427800
C -26.883600 -15.664700 -20.976200
C -26.675000 -15.804300 -18.489800
H -26.587400 -16.340000 -21.495600
H -26.238000 -15.711000 -12.238000
N -26.122600 -15.614900 -17.244100
C -26.062600 -15.543700 -19.709500
C -25.765300 -15.565800 -14.265600
C -25.571900 -15.542300 -12.849900
C -24.725500 -15.167700 -19.853400
H -24.596500 -15.075100 -15.850700
N -24.561800 -15.215400 -14.839800
H -24.468300 -15.109600 -21.856800
C -24.319100 -15.195300 -12.606100
C -24.041000 -14.988000 -21.091400
H -23.899600 -15.088900 -11.800000
H -23.879300 -14.874600 -17.679600
N -23.810700 -14.945100 -18.848800
C -23.652900 -14.974200 -13.840700
C -22.767600 -14.672100 -20.843000
C -22.602400 -14.634100 -19.428400
C -22.321200 -14.588500 -13.995800
N -22.249700 -14.536600 -16.456500
H -22.049000 -14.549800 -21.484300
H -21.977500 -14.045200 -12.034800
C -21.691600 -14.348600 -15.211700
C -21.488400 -14.430900 -12.737000
C -21.435600 -14.274000 -18.774700
H -21.360700 -15.220200 -12.350900
C -21.305800 -14.200700 -17.386100
H -20.610200 -14.052100 -12.847700
C -20.363200 -13.852300 -15.381100
H -20.336200 -13.208800 -20.073100
H -20.318000 -14.446100 -20.434300
C -20.223100 -13.936000 -19.612400
C -20.132700 -13.751400 -16.690700
H -19.765000 -13.685800 -14.699200
H -19.434600 -14.155800 -19.192500
H -19.344600 -13.443800 -17.164800
