3
Fragment
H -6.583700 -37.968400 -10.633200
O -5.802700 -37.784600 -10.328500
H -5.604100 -36.980500 -10.440800
27
Fragment
H -9.396500 -27.155800 -7.950300
H -8.798300 -27.104100 -9.409200
C -8.655900 -26.838000 -8.474500
H -8.629800 -25.879700 -8.437100
H -8.370700 -33.467500 -8.348600
H -8.023900 -29.264600 -7.362300
C -7.564400 -33.844900 -8.069800
H -7.562800 -31.247800 -8.017500
H -7.509800 -29.235100 -8.837300
N -7.498900 -35.178900 -8.077500
C -7.385500 -27.431000 -7.980700
C -7.326100 -28.921200 -7.955500
C -6.724100 -31.557700 -7.739300
C -6.520000 -33.007500 -7.676000
N -6.437100 -26.658900 -7.605600
C -6.346500 -35.729700 -7.688900
H -6.288700 -36.672600 -7.685000
N -6.033200 -29.410000 -7.494600
N -5.775700 -30.760300 -7.408100
C -5.335200 -33.615300 -7.253200
N -5.262000 -27.253100 -7.174400
C -5.252800 -34.986700 -7.273200
C -5.019900 -28.582200 -7.075700
H -4.679900 -26.719800 -6.789000
H -4.615600 -33.095500 -6.974300
H -4.469600 -35.418600 -7.016300
O -3.943300 -28.989700 -6.640900
30
Fragment
H -6.583700 -37.968400 -10.633200
O -5.802700 -37.784600 -10.328500
H -5.604100 -36.980500 -10.440800
H -9.396500 -27.155800 -7.950300
H -8.798300 -27.104100 -9.409200
C -8.655900 -26.838000 -8.474500
H -8.629800 -25.879700 -8.437100
H -8.370700 -33.467500 -8.348600
H -8.023900 -29.264600 -7.362300
C -7.564400 -33.844900 -8.069800
H -7.562800 -31.247800 -8.017500
H -7.509800 -29.235100 -8.837300
N -7.498900 -35.178900 -8.077500
C -7.385500 -27.431000 -7.980700
C -7.326100 -28.921200 -7.955500
C -6.724100 -31.557700 -7.739300
C -6.520000 -33.007500 -7.676000
N -6.437100 -26.658900 -7.605600
C -6.346500 -35.729700 -7.688900
H -6.288700 -36.672600 -7.685000
N -6.033200 -29.410000 -7.494600
N -5.775700 -30.760300 -7.408100
C -5.335200 -33.615300 -7.253200
N -5.262000 -27.253100 -7.174400
C -5.252800 -34.986700 -7.273200
C -5.019900 -28.582200 -7.075700
H -4.679900 -26.719800 -6.789000
H -4.615600 -33.095500 -6.974300
H -4.469600 -35.418600 -7.016300
O -3.943300 -28.989700 -6.640900
