20
Fragment
N -9.182500 -28.362000 -10.362000
N -9.182500 -24.219300 -10.362000
C -8.542800 -27.470000 -10.694300
C -8.542800 -25.111300 -10.694300
C -7.849800 -26.290700 -11.061900
C -6.586800 -26.290700 -11.704300
F -6.437000 -28.656100 -11.743700
F -6.437000 -23.925200 -11.743700
C -5.889800 -27.467100 -12.033200
C -5.889800 -25.114200 -12.033200
C -4.671300 -27.467100 -12.640200
C -4.671300 -25.114200 -12.640200
F -4.124200 -28.656100 -12.929700
F -4.124200 -23.925200 -12.929700
C -3.974400 -26.290700 -12.969200
C -2.711400 -26.290700 -13.611500
C -2.018400 -27.470000 -13.979100
C -2.018400 -25.111300 -13.979100
N -1.378700 -28.362000 -14.311400
N -1.378700 -24.219300 -14.311400
28
Fragment
H -10.810700 -38.370900 -12.313800
H -10.810700 -31.737500 -12.313800
H -10.724600 -36.182900 -11.481700
H -10.724600 -33.925500 -11.481700
H -10.154100 -38.370900 -10.890200
H -10.154100 -31.737500 -10.890200
C -10.018100 -38.585900 -11.816100
C -10.018100 -31.522500 -11.816100
C -9.988600 -35.729300 -11.824300
C -9.988600 -34.379100 -11.824300
H -9.829600 -39.522600 -11.903100
H -9.829600 -30.585800 -11.903100
N -8.889700 -37.809500 -12.336700
C -8.889700 -36.475600 -12.336700
C -8.889700 -33.632800 -12.336700
N -8.889700 -32.298900 -12.336700
H -7.949800 -39.522600 -12.770300
H -7.949800 -30.585800 -12.770300
C -7.790700 -35.729300 -12.849100
C -7.790700 -34.379100 -12.849100
C -7.761300 -38.585900 -12.857300
C -7.761300 -31.522500 -12.857300
H -7.625200 -38.370900 -13.783200
H -7.625200 -31.737500 -13.783200
H -7.054800 -36.182900 -13.191700
H -7.054800 -33.925500 -13.191700
H -6.968600 -38.370900 -12.359700
H -6.968600 -31.737500 -12.359700
48
Fragment
N -9.182500 -28.362000 -10.362000
N -9.182500 -24.219300 -10.362000
C -8.542800 -27.470000 -10.694300
C -8.542800 -25.111300 -10.694300
C -7.849800 -26.290700 -11.061900
C -6.586800 -26.290700 -11.704300
F -6.437000 -28.656100 -11.743700
F -6.437000 -23.925200 -11.743700
C -5.889800 -27.467100 -12.033200
C -5.889800 -25.114200 -12.033200
C -4.671300 -27.467100 -12.640200
C -4.671300 -25.114200 -12.640200
F -4.124200 -28.656100 -12.929700
F -4.124200 -23.925200 -12.929700
C -3.974400 -26.290700 -12.969200
C -2.711400 -26.290700 -13.611500
C -2.018400 -27.470000 -13.979100
C -2.018400 -25.111300 -13.979100
N -1.378700 -28.362000 -14.311400
N -1.378700 -24.219300 -14.311400
H -10.810700 -38.370900 -12.313800
H -10.810700 -31.737500 -12.313800
H -10.724600 -36.182900 -11.481700
H -10.724600 -33.925500 -11.481700
H -10.154100 -38.370900 -10.890200
H -10.154100 -31.737500 -10.890200
C -10.018100 -38.585900 -11.816100
C -10.018100 -31.522500 -11.816100
C -9.988600 -35.729300 -11.824300
C -9.988600 -34.379100 -11.824300
H -9.829600 -39.522600 -11.903100
H -9.829600 -30.585800 -11.903100
N -8.889700 -37.809500 -12.336700
C -8.889700 -36.475600 -12.336700
C -8.889700 -33.632800 -12.336700
N -8.889700 -32.298900 -12.336700
H -7.949800 -39.522600 -12.770300
H -7.949800 -30.585800 -12.770300
C -7.790700 -35.729300 -12.849100
C -7.790700 -34.379100 -12.849100
C -7.761300 -38.585900 -12.857300
C -7.761300 -31.522500 -12.857300
H -7.625200 -38.370900 -13.783200
H -7.625200 -31.737500 -13.783200
H -7.054800 -36.182900 -13.191700
H -7.054800 -33.925500 -13.191700
H -6.968600 -38.370900 -12.359700
H -6.968600 -31.737500 -12.359700
