20
Fragment
N -9.182500 -28.362000 -10.362000
N -9.182500 -24.219300 -10.362000
C -8.542800 -27.470000 -10.694300
C -8.542800 -25.111300 -10.694300
C -7.849800 -26.290700 -11.061900
C -6.586800 -26.290700 -11.704300
F -6.437000 -28.656100 -11.743700
F -6.437000 -23.925200 -11.743700
C -5.889800 -27.467100 -12.033200
C -5.889800 -25.114200 -12.033200
C -4.671300 -27.467100 -12.640200
C -4.671300 -25.114200 -12.640200
F -4.124200 -28.656100 -12.929700
F -4.124200 -23.925200 -12.929700
C -3.974400 -26.290700 -12.969200
C -2.711400 -26.290700 -13.611500
C -2.018400 -27.470000 -13.979100
C -2.018400 -25.111300 -13.979100
N -1.378700 -28.362000 -14.311400
N -1.378700 -24.219300 -14.311400
28
Fragment
H -6.555800 -29.607300 -16.426000
H -6.555800 -22.974000 -16.426000
H -6.469600 -27.419400 -15.593900
H -6.469600 -25.161900 -15.593900
H -5.899200 -29.607300 -15.002400
H -5.899200 -22.974000 -15.002400
C -5.763100 -29.822400 -15.928300
C -5.763100 -22.758900 -15.928300
C -5.733700 -26.965800 -15.936600
C -5.733700 -25.615500 -15.936600
H -5.574600 -30.759000 -16.015400
H -5.574600 -21.822300 -16.015400
N -4.634700 -29.045900 -16.449000
C -4.634700 -27.712100 -16.449000
C -4.634700 -24.869200 -16.449000
N -4.634700 -23.535400 -16.449000
H -3.694800 -30.759000 -16.882500
H -3.694800 -21.822300 -16.882500
C -3.535800 -26.965800 -16.961300
C -3.535800 -25.615500 -16.961300
C -3.506300 -29.822400 -16.969600
C -3.506300 -22.758900 -16.969600
H -3.370300 -29.607300 -17.895500
H -3.370300 -22.974000 -17.895500
H -2.799800 -27.419400 -17.304000
H -2.799800 -25.161900 -17.304000
H -2.713700 -29.607300 -16.471900
H -2.713700 -22.974000 -16.471900
48
Fragment
N -9.182500 -28.362000 -10.362000
N -9.182500 -24.219300 -10.362000
C -8.542800 -27.470000 -10.694300
C -8.542800 -25.111300 -10.694300
C -7.849800 -26.290700 -11.061900
C -6.586800 -26.290700 -11.704300
F -6.437000 -28.656100 -11.743700
F -6.437000 -23.925200 -11.743700
C -5.889800 -27.467100 -12.033200
C -5.889800 -25.114200 -12.033200
C -4.671300 -27.467100 -12.640200
C -4.671300 -25.114200 -12.640200
F -4.124200 -28.656100 -12.929700
F -4.124200 -23.925200 -12.929700
C -3.974400 -26.290700 -12.969200
C -2.711400 -26.290700 -13.611500
C -2.018400 -27.470000 -13.979100
C -2.018400 -25.111300 -13.979100
N -1.378700 -28.362000 -14.311400
N -1.378700 -24.219300 -14.311400
H -6.555800 -29.607300 -16.426000
H -6.555800 -22.974000 -16.426000
H -6.469600 -27.419400 -15.593900
H -6.469600 -25.161900 -15.593900
H -5.899200 -29.607300 -15.002400
H -5.899200 -22.974000 -15.002400
C -5.763100 -29.822400 -15.928300
C -5.763100 -22.758900 -15.928300
C -5.733700 -26.965800 -15.936600
C -5.733700 -25.615500 -15.936600
H -5.574600 -30.759000 -16.015400
H -5.574600 -21.822300 -16.015400
N -4.634700 -29.045900 -16.449000
C -4.634700 -27.712100 -16.449000
C -4.634700 -24.869200 -16.449000
N -4.634700 -23.535400 -16.449000
H -3.694800 -30.759000 -16.882500
H -3.694800 -21.822300 -16.882500
C -3.535800 -26.965800 -16.961300
C -3.535800 -25.615500 -16.961300
C -3.506300 -29.822400 -16.969600
C -3.506300 -22.758900 -16.969600
H -3.370300 -29.607300 -17.895500
H -3.370300 -22.974000 -17.895500
H -2.799800 -27.419400 -17.304000
H -2.799800 -25.161900 -17.304000
H -2.713700 -29.607300 -16.471900
H -2.713700 -22.974000 -16.471900
