20
Fragment
N -9.182500 -28.362000 -10.362000
N -9.182500 -24.219300 -10.362000
C -8.542800 -27.470000 -10.694300
C -8.542800 -25.111300 -10.694300
C -7.849800 -26.290700 -11.061900
C -6.586800 -26.290700 -11.704300
F -6.437000 -28.656100 -11.743700
F -6.437000 -23.925200 -11.743700
C -5.889800 -27.467100 -12.033200
C -5.889800 -25.114200 -12.033200
C -4.671300 -27.467100 -12.640200
C -4.671300 -25.114200 -12.640200
F -4.124200 -28.656100 -12.929700
F -4.124200 -23.925200 -12.929700
C -3.974400 -26.290700 -12.969200
C -2.711400 -26.290700 -13.611500
C -2.018400 -27.470000 -13.979100
C -2.018400 -25.111300 -13.979100
N -1.378700 -28.362000 -14.311400
N -1.378700 -24.219300 -14.311400
20
Fragment
N -1.964300 -28.362000 -10.362000
N -1.964300 -24.219300 -10.362000
C -1.324600 -27.470000 -10.694300
C -1.324600 -25.111300 -10.694300
C -0.631600 -26.290700 -11.061900
C 0.631400 -26.290700 -11.704300
F 0.781200 -28.656100 -11.743700
F 0.781200 -23.925200 -11.743700
C 1.328400 -27.467100 -12.033200
C 1.328400 -25.114200 -12.033200
C 2.546900 -27.467100 -12.640200
C 2.546900 -25.114200 -12.640200
F 3.094000 -28.656100 -12.929700
F 3.094000 -23.925200 -12.929700
C 3.243800 -26.290700 -12.969200
C 4.506800 -26.290700 -13.611500
C 5.199800 -27.470000 -13.979100
C 5.199800 -25.111300 -13.979100
N 5.839500 -28.362000 -14.311400
N 5.839500 -24.219300 -14.311400
40
Fragment
N -9.182500 -28.362000 -10.362000
N -9.182500 -24.219300 -10.362000
C -8.542800 -27.470000 -10.694300
C -8.542800 -25.111300 -10.694300
C -7.849800 -26.290700 -11.061900
C -6.586800 -26.290700 -11.704300
F -6.437000 -28.656100 -11.743700
F -6.437000 -23.925200 -11.743700
C -5.889800 -27.467100 -12.033200
C -5.889800 -25.114200 -12.033200
C -4.671300 -27.467100 -12.640200
C -4.671300 -25.114200 -12.640200
F -4.124200 -28.656100 -12.929700
F -4.124200 -23.925200 -12.929700
C -3.974400 -26.290700 -12.969200
C -2.711400 -26.290700 -13.611500
C -2.018400 -27.470000 -13.979100
C -2.018400 -25.111300 -13.979100
N -1.378700 -28.362000 -14.311400
N -1.378700 -24.219300 -14.311400
N -1.964300 -28.362000 -10.362000
N -1.964300 -24.219300 -10.362000
C -1.324600 -27.470000 -10.694300
C -1.324600 -25.111300 -10.694300
C -0.631600 -26.290700 -11.061900
C 0.631400 -26.290700 -11.704300
F 0.781200 -28.656100 -11.743700
F 0.781200 -23.925200 -11.743700
C 1.328400 -27.467100 -12.033200
C 1.328400 -25.114200 -12.033200
C 2.546900 -27.467100 -12.640200
C 2.546900 -25.114200 -12.640200
F 3.094000 -28.656100 -12.929700
F 3.094000 -23.925200 -12.929700
C 3.243800 -26.290700 -12.969200
C 4.506800 -26.290700 -13.611500
C 5.199800 -27.470000 -13.979100
C 5.199800 -25.111300 -13.979100
N 5.839500 -28.362000 -14.311400
N 5.839500 -24.219300 -14.311400
