39
Fragment
H -42.407400 -10.978200 -20.700300
H -41.799200 -12.558200 -19.139900
C -41.523200 -11.036400 -20.419400
H -41.432100 -13.185100 -14.684800
C -41.156700 -11.988000 -19.493200
H -41.001000 -14.576700 -12.948400
H -40.835700 -9.531400 -21.542900
C -40.742000 -13.804200 -14.753500
C -40.584900 -10.178300 -20.925000
C -40.487300 -14.627000 -13.721100
N -40.256800 -13.043200 -16.942200
C -39.978700 -13.861900 -15.936800
C -39.839300 -12.099600 -19.085000
C -39.480200 -13.105200 -18.051400
C -39.447700 -15.560800 -13.813500
H -39.277600 -16.138700 -13.104500
C -39.276800 -10.271700 -20.521800
H -39.162900 -14.554600 -20.701500
N -38.953400 -14.785400 -15.989900
C -38.897400 -11.229600 -19.608000
C -38.695600 -15.620600 -14.922000
H -38.644600 -9.684900 -20.868800
C -38.445600 -14.010000 -18.211200
C -38.245100 -14.414500 -20.669100
C -38.134900 -14.920900 -17.168900
H -38.007800 -11.291400 -19.342100
H -37.995000 -16.229700 -14.971900
H -37.896900 -14.720400 -22.638900
C -37.639200 -14.114900 -19.460700
C -37.494400 -14.507500 -21.827500
O -37.286500 -15.805600 -17.193200
C -36.262900 -13.918500 -19.428300
C -36.148200 -14.277300 -21.756300
O -35.907400 -14.551100 -24.028200
H -35.843400 -13.731000 -18.619400
C -35.512500 -13.997300 -20.580400
N -35.345800 -14.325200 -22.995900
H -34.591900 -13.861500 -20.558000
O -34.169300 -14.087600 -22.942200
39
Fragment
H -35.747700 -9.067700 -33.183100
H -35.139500 -10.647700 -31.622700
C -34.863400 -9.125900 -32.902200
H -34.772400 -11.274600 -27.167600
C -34.497000 -10.077500 -31.976000
H -34.341300 -12.666200 -25.431300
H -34.176000 -7.620900 -34.025700
C -34.082300 -11.893700 -27.236300
C -33.925200 -8.267900 -33.407800
C -33.827600 -12.716500 -26.204000
N -33.597100 -11.132700 -29.425000
C -33.319000 -11.951400 -28.419700
C -33.179600 -10.189200 -31.567800
C -32.820500 -11.194700 -30.534200
C -32.788000 -13.650400 -26.296300
H -32.617900 -14.228200 -25.587300
C -32.617100 -8.361200 -33.004600
H -32.503200 -12.644200 -33.184300
N -32.293700 -12.874900 -28.472700
C -32.237700 -9.319100 -32.090900
C -32.035900 -13.710100 -27.404800
H -31.984900 -7.774400 -33.351600
C -31.785900 -12.099500 -30.694000
C -31.585400 -12.504000 -33.151900
C -31.475200 -13.010400 -29.651700
H -31.348100 -9.380900 -31.825000
H -31.335300 -14.319300 -27.454700
H -31.237200 -12.810000 -35.121700
C -30.979500 -12.204400 -31.943600
C -30.834600 -12.597100 -34.310300
O -30.626800 -13.895100 -29.676000
C -29.603200 -12.008100 -31.911100
C -29.488500 -12.366900 -34.239100
O -29.247700 -12.640600 -36.511000
H -29.183700 -11.820500 -31.102200
C -28.852800 -12.086900 -33.063300
N -28.686100 -12.414700 -35.478700
H -27.932200 -11.951000 -33.040800
O -27.509600 -12.177200 -35.425000
78
Fragment
H -42.407400 -10.978200 -20.700300
H -41.799200 -12.558200 -19.139900
C -41.523200 -11.036400 -20.419400
H -41.432100 -13.185100 -14.684800
C -41.156700 -11.988000 -19.493200
H -41.001000 -14.576700 -12.948400
H -40.835700 -9.531400 -21.542900
C -40.742000 -13.804200 -14.753500
C -40.584900 -10.178300 -20.925000
C -40.487300 -14.627000 -13.721100
N -40.256800 -13.043200 -16.942200
C -39.978700 -13.861900 -15.936800
C -39.839300 -12.099600 -19.085000
C -39.480200 -13.105200 -18.051400
C -39.447700 -15.560800 -13.813500
H -39.277600 -16.138700 -13.104500
C -39.276800 -10.271700 -20.521800
H -39.162900 -14.554600 -20.701500
N -38.953400 -14.785400 -15.989900
C -38.897400 -11.229600 -19.608000
C -38.695600 -15.620600 -14.922000
H -38.644600 -9.684900 -20.868800
C -38.445600 -14.010000 -18.211200
C -38.245100 -14.414500 -20.669100
C -38.134900 -14.920900 -17.168900
H -38.007800 -11.291400 -19.342100
H -37.995000 -16.229700 -14.971900
H -37.896900 -14.720400 -22.638900
C -37.639200 -14.114900 -19.460700
C -37.494400 -14.507500 -21.827500
O -37.286500 -15.805600 -17.193200
C -36.262900 -13.918500 -19.428300
C -36.148200 -14.277300 -21.756300
O -35.907400 -14.551100 -24.028200
H -35.843400 -13.731000 -18.619400
C -35.512500 -13.997300 -20.580400
N -35.345800 -14.325200 -22.995900
H -34.591900 -13.861500 -20.558000
O -34.169300 -14.087600 -22.942200
H -35.747700 -9.067700 -33.183100
H -35.139500 -10.647700 -31.622700
C -34.863400 -9.125900 -32.902200
H -34.772400 -11.274600 -27.167600
C -34.497000 -10.077500 -31.976000
H -34.341300 -12.666200 -25.431300
H -34.176000 -7.620900 -34.025700
C -34.082300 -11.893700 -27.236300
C -33.925200 -8.267900 -33.407800
C -33.827600 -12.716500 -26.204000
N -33.597100 -11.132700 -29.425000
C -33.319000 -11.951400 -28.419700
C -33.179600 -10.189200 -31.567800
C -32.820500 -11.194700 -30.534200
C -32.788000 -13.650400 -26.296300
H -32.617900 -14.228200 -25.587300
C -32.617100 -8.361200 -33.004600
H -32.503200 -12.644200 -33.184300
N -32.293700 -12.874900 -28.472700
C -32.237700 -9.319100 -32.090900
C -32.035900 -13.710100 -27.404800
H -31.984900 -7.774400 -33.351600
C -31.785900 -12.099500 -30.694000
C -31.585400 -12.504000 -33.151900
C -31.475200 -13.010400 -29.651700
H -31.348100 -9.380900 -31.825000
H -31.335300 -14.319300 -27.454700
H -31.237200 -12.810000 -35.121700
C -30.979500 -12.204400 -31.943600
C -30.834600 -12.597100 -34.310300
O -30.626800 -13.895100 -29.676000
C -29.603200 -12.008100 -31.911100
C -29.488500 -12.366900 -34.239100
O -29.247700 -12.640600 -36.511000
H -29.183700 -11.820500 -31.102200
C -28.852800 -12.086900 -33.063300
N -28.686100 -12.414700 -35.478700
H -27.932200 -11.951000 -33.040800
O -27.509600 -12.177200 -35.425000
