39
Fragment
H -42.407400 -10.978200 -20.700300
H -41.799200 -12.558200 -19.139900
C -41.523200 -11.036400 -20.419400
H -41.432100 -13.185100 -14.684800
C -41.156700 -11.988000 -19.493200
H -41.001000 -14.576700 -12.948400
H -40.835700 -9.531400 -21.542900
C -40.742000 -13.804200 -14.753500
C -40.584900 -10.178300 -20.925000
C -40.487300 -14.627000 -13.721100
N -40.256800 -13.043200 -16.942200
C -39.978700 -13.861900 -15.936800
C -39.839300 -12.099600 -19.085000
C -39.480200 -13.105200 -18.051400
C -39.447700 -15.560800 -13.813500
H -39.277600 -16.138700 -13.104500
C -39.276800 -10.271700 -20.521800
H -39.162900 -14.554600 -20.701500
N -38.953400 -14.785400 -15.989900
C -38.897400 -11.229600 -19.608000
C -38.695600 -15.620600 -14.922000
H -38.644600 -9.684900 -20.868800
C -38.445600 -14.010000 -18.211200
C -38.245100 -14.414500 -20.669100
C -38.134900 -14.920900 -17.168900
H -38.007800 -11.291400 -19.342100
H -37.995000 -16.229700 -14.971900
H -37.896900 -14.720400 -22.638900
C -37.639200 -14.114900 -19.460700
C -37.494400 -14.507500 -21.827500
O -37.286500 -15.805600 -17.193200
C -36.262900 -13.918500 -19.428300
C -36.148200 -14.277300 -21.756300
O -35.907400 -14.551100 -24.028200
H -35.843400 -13.731000 -18.619400
C -35.512500 -13.997300 -20.580400
N -35.345800 -14.325200 -22.995900
H -34.591900 -13.861500 -20.558000
O -34.169300 -14.087600 -22.942200
39
Fragment
O -47.628100 -15.292100 -14.506300
H -47.205500 -15.518300 -16.890500
N -46.451600 -15.054600 -14.452600
C -46.285000 -15.382400 -16.868000
H -45.954000 -15.648800 -18.829100
O -45.890000 -14.828700 -13.420300
C -45.649200 -15.102400 -15.692200
C -45.534500 -15.461200 -18.020200
O -44.510900 -13.574200 -20.255300
C -44.303100 -14.872200 -15.621000
C -44.158200 -15.264900 -17.987800
H -43.900600 -14.659300 -14.809600
H -43.802400 -13.150000 -22.476600
H -43.789600 -18.088400 -18.106300
C -43.662500 -14.458900 -20.279600
C -43.552300 -14.965300 -16.779400
C -43.351800 -15.369800 -19.237300
H -43.152900 -19.694900 -16.579700
C -43.101800 -13.759200 -22.526500
C -42.900000 -18.150200 -17.840500
N -42.844000 -14.594400 -21.458600
H -42.634500 -14.825100 -16.747000
C -42.520700 -19.108100 -16.926700
H -42.519800 -13.241100 -24.344000
C -42.349700 -13.818900 -23.635000
C -42.317200 -16.274600 -19.397100
C -41.958100 -17.280100 -18.363500
C -41.818700 -15.517900 -21.511700
N -41.540600 -16.336600 -20.506300
C -41.310100 -14.752800 -23.727400
C -41.212600 -19.201400 -16.523500
C -41.055500 -15.575600 -22.695000
H -40.961700 -19.848400 -15.905600
H -40.796400 -14.803100 -24.500000
C -40.640700 -17.391800 -17.955300
H -40.365400 -16.194700 -22.763700
C -40.274300 -18.343400 -17.029100
H -39.998200 -16.821600 -18.308600
H -39.390100 -18.401600 -16.748200
78
Fragment
H -42.407400 -10.978200 -20.700300
H -41.799200 -12.558200 -19.139900
C -41.523200 -11.036400 -20.419400
H -41.432100 -13.185100 -14.684800
C -41.156700 -11.988000 -19.493200
H -41.001000 -14.576700 -12.948400
H -40.835700 -9.531400 -21.542900
C -40.742000 -13.804200 -14.753500
C -40.584900 -10.178300 -20.925000
C -40.487300 -14.627000 -13.721100
N -40.256800 -13.043200 -16.942200
C -39.978700 -13.861900 -15.936800
C -39.839300 -12.099600 -19.085000
C -39.480200 -13.105200 -18.051400
C -39.447700 -15.560800 -13.813500
H -39.277600 -16.138700 -13.104500
C -39.276800 -10.271700 -20.521800
H -39.162900 -14.554600 -20.701500
N -38.953400 -14.785400 -15.989900
C -38.897400 -11.229600 -19.608000
C -38.695600 -15.620600 -14.922000
H -38.644600 -9.684900 -20.868800
C -38.445600 -14.010000 -18.211200
C -38.245100 -14.414500 -20.669100
C -38.134900 -14.920900 -17.168900
H -38.007800 -11.291400 -19.342100
H -37.995000 -16.229700 -14.971900
H -37.896900 -14.720400 -22.638900
C -37.639200 -14.114900 -19.460700
C -37.494400 -14.507500 -21.827500
O -37.286500 -15.805600 -17.193200
C -36.262900 -13.918500 -19.428300
C -36.148200 -14.277300 -21.756300
O -35.907400 -14.551100 -24.028200
H -35.843400 -13.731000 -18.619400
C -35.512500 -13.997300 -20.580400
N -35.345800 -14.325200 -22.995900
H -34.591900 -13.861500 -20.558000
O -34.169300 -14.087600 -22.942200
O -47.628100 -15.292100 -14.506300
H -47.205500 -15.518300 -16.890500
N -46.451600 -15.054600 -14.452600
C -46.285000 -15.382400 -16.868000
H -45.954000 -15.648800 -18.829100
O -45.890000 -14.828700 -13.420300
C -45.649200 -15.102400 -15.692200
C -45.534500 -15.461200 -18.020200
O -44.510900 -13.574200 -20.255300
C -44.303100 -14.872200 -15.621000
C -44.158200 -15.264900 -17.987800
H -43.900600 -14.659300 -14.809600
H -43.802400 -13.150000 -22.476600
H -43.789600 -18.088400 -18.106300
C -43.662500 -14.458900 -20.279600
C -43.552300 -14.965300 -16.779400
C -43.351800 -15.369800 -19.237300
H -43.152900 -19.694900 -16.579700
C -43.101800 -13.759200 -22.526500
C -42.900000 -18.150200 -17.840500
N -42.844000 -14.594400 -21.458600
H -42.634500 -14.825100 -16.747000
C -42.520700 -19.108100 -16.926700
H -42.519800 -13.241100 -24.344000
C -42.349700 -13.818900 -23.635000
C -42.317200 -16.274600 -19.397100
C -41.958100 -17.280100 -18.363500
C -41.818700 -15.517900 -21.511700
N -41.540600 -16.336600 -20.506300
C -41.310100 -14.752800 -23.727400
C -41.212600 -19.201400 -16.523500
C -41.055500 -15.575600 -22.695000
H -40.961700 -19.848400 -15.905600
H -40.796400 -14.803100 -24.500000
C -40.640700 -17.391800 -17.955300
H -40.365400 -16.194700 -22.763700
C -40.274300 -18.343400 -17.029100
H -39.998200 -16.821600 -18.308600
H -39.390100 -18.401600 -16.748200
