39
Fragment
H -42.407400 -10.978200 -20.700300
H -41.799200 -12.558200 -19.139900
C -41.523200 -11.036400 -20.419400
H -41.432100 -13.185100 -14.684800
C -41.156700 -11.988000 -19.493200
H -41.001000 -14.576700 -12.948400
H -40.835700 -9.531400 -21.542900
C -40.742000 -13.804200 -14.753500
C -40.584900 -10.178300 -20.925000
C -40.487300 -14.627000 -13.721100
N -40.256800 -13.043200 -16.942200
C -39.978700 -13.861900 -15.936800
C -39.839300 -12.099600 -19.085000
C -39.480200 -13.105200 -18.051400
C -39.447700 -15.560800 -13.813500
H -39.277600 -16.138700 -13.104500
C -39.276800 -10.271700 -20.521800
H -39.162900 -14.554600 -20.701500
N -38.953400 -14.785400 -15.989900
C -38.897400 -11.229600 -19.608000
C -38.695600 -15.620600 -14.922000
H -38.644600 -9.684900 -20.868800
C -38.445600 -14.010000 -18.211200
C -38.245100 -14.414500 -20.669100
C -38.134900 -14.920900 -17.168900
H -38.007800 -11.291400 -19.342100
H -37.995000 -16.229700 -14.971900
H -37.896900 -14.720400 -22.638900
C -37.639200 -14.114900 -19.460700
C -37.494400 -14.507500 -21.827500
O -37.286500 -15.805600 -17.193200
C -36.262900 -13.918500 -19.428300
C -36.148200 -14.277300 -21.756300
O -35.907400 -14.551100 -24.028200
H -35.843400 -13.731000 -18.619400
C -35.512500 -13.997300 -20.580400
N -35.345800 -14.325200 -22.995900
H -34.591900 -13.861500 -20.558000
O -34.169300 -14.087600 -22.942200
39
Fragment
O -48.223000 -7.103600 -8.927700
H -47.650800 -7.100700 -11.309400
N -47.218100 -7.757700 -8.814100
O -46.879200 -8.272400 -7.775600
C -46.828600 -7.528300 -11.230800
C -46.374900 -7.948400 -10.007500
H -46.342900 -7.479300 -13.179400
H -46.295800 -12.648900 -11.435500
C -46.043400 -7.753600 -12.343000
H -45.792600 -10.910400 -12.853600
C -45.408000 -12.444500 -11.624000
C -45.152000 -8.530500 -9.844000
C -45.107500 -11.413000 -12.475300
H -44.852300 -8.782600 -9.000100
C -44.812100 -8.383100 -12.229400
H -44.602300 -13.853900 -10.444400
C -44.397800 -13.175300 -11.047300
C -44.369000 -8.733900 -10.962400
O -44.149100 -6.505200 -14.298300
C -43.989700 -8.701400 -13.422800
C -43.784400 -11.112800 -12.777400
C -43.734100 -7.648500 -14.345300
H -43.526400 -9.115100 -10.865100
C -43.442200 -9.954000 -13.642500
C -43.087500 -12.907700 -11.358100
H -42.980900 -6.210400 -16.316300
N -42.854500 -8.012700 -15.430000
C -42.782800 -11.890000 -12.234400
C -42.586700 -7.050000 -16.382500
N -42.583100 -10.232700 -14.643100
H -42.407100 -13.414000 -10.978600
C -42.300400 -9.275700 -15.512400
H -41.895300 -11.725500 -12.460400
C -41.755800 -7.325000 -17.407300
H -41.578500 -6.673600 -18.046400
C -41.424700 -9.526400 -16.597200
C -41.160100 -8.584300 -17.514700
H -41.025200 -10.361700 -16.675800
H -40.583400 -8.768900 -18.219900
78
Fragment
H -42.407400 -10.978200 -20.700300
H -41.799200 -12.558200 -19.139900
C -41.523200 -11.036400 -20.419400
H -41.432100 -13.185100 -14.684800
C -41.156700 -11.988000 -19.493200
H -41.001000 -14.576700 -12.948400
H -40.835700 -9.531400 -21.542900
C -40.742000 -13.804200 -14.753500
C -40.584900 -10.178300 -20.925000
C -40.487300 -14.627000 -13.721100
N -40.256800 -13.043200 -16.942200
C -39.978700 -13.861900 -15.936800
C -39.839300 -12.099600 -19.085000
C -39.480200 -13.105200 -18.051400
C -39.447700 -15.560800 -13.813500
H -39.277600 -16.138700 -13.104500
C -39.276800 -10.271700 -20.521800
H -39.162900 -14.554600 -20.701500
N -38.953400 -14.785400 -15.989900
C -38.897400 -11.229600 -19.608000
C -38.695600 -15.620600 -14.922000
H -38.644600 -9.684900 -20.868800
C -38.445600 -14.010000 -18.211200
C -38.245100 -14.414500 -20.669100
C -38.134900 -14.920900 -17.168900
H -38.007800 -11.291400 -19.342100
H -37.995000 -16.229700 -14.971900
H -37.896900 -14.720400 -22.638900
C -37.639200 -14.114900 -19.460700
C -37.494400 -14.507500 -21.827500
O -37.286500 -15.805600 -17.193200
C -36.262900 -13.918500 -19.428300
C -36.148200 -14.277300 -21.756300
O -35.907400 -14.551100 -24.028200
H -35.843400 -13.731000 -18.619400
C -35.512500 -13.997300 -20.580400
N -35.345800 -14.325200 -22.995900
H -34.591900 -13.861500 -20.558000
O -34.169300 -14.087600 -22.942200
O -48.223000 -7.103600 -8.927700
H -47.650800 -7.100700 -11.309400
N -47.218100 -7.757700 -8.814100
O -46.879200 -8.272400 -7.775600
C -46.828600 -7.528300 -11.230800
C -46.374900 -7.948400 -10.007500
H -46.342900 -7.479300 -13.179400
H -46.295800 -12.648900 -11.435500
C -46.043400 -7.753600 -12.343000
H -45.792600 -10.910400 -12.853600
C -45.408000 -12.444500 -11.624000
C -45.152000 -8.530500 -9.844000
C -45.107500 -11.413000 -12.475300
H -44.852300 -8.782600 -9.000100
C -44.812100 -8.383100 -12.229400
H -44.602300 -13.853900 -10.444400
C -44.397800 -13.175300 -11.047300
C -44.369000 -8.733900 -10.962400
O -44.149100 -6.505200 -14.298300
C -43.989700 -8.701400 -13.422800
C -43.784400 -11.112800 -12.777400
C -43.734100 -7.648500 -14.345300
H -43.526400 -9.115100 -10.865100
C -43.442200 -9.954000 -13.642500
C -43.087500 -12.907700 -11.358100
H -42.980900 -6.210400 -16.316300
N -42.854500 -8.012700 -15.430000
C -42.782800 -11.890000 -12.234400
C -42.586700 -7.050000 -16.382500
N -42.583100 -10.232700 -14.643100
H -42.407100 -13.414000 -10.978600
C -42.300400 -9.275700 -15.512400
H -41.895300 -11.725500 -12.460400
C -41.755800 -7.325000 -17.407300
H -41.578500 -6.673600 -18.046400
C -41.424700 -9.526400 -16.597200
C -41.160100 -8.584300 -17.514700
H -41.025200 -10.361700 -16.675800
H -40.583400 -8.768900 -18.219900
