39
Fragment
H -42.407400 -10.978200 -20.700300
H -41.799200 -12.558200 -19.139900
C -41.523200 -11.036400 -20.419400
H -41.432100 -13.185100 -14.684800
C -41.156700 -11.988000 -19.493200
H -41.001000 -14.576700 -12.948400
H -40.835700 -9.531400 -21.542900
C -40.742000 -13.804200 -14.753500
C -40.584900 -10.178300 -20.925000
C -40.487300 -14.627000 -13.721100
N -40.256800 -13.043200 -16.942200
C -39.978700 -13.861900 -15.936800
C -39.839300 -12.099600 -19.085000
C -39.480200 -13.105200 -18.051400
C -39.447700 -15.560800 -13.813500
H -39.277600 -16.138700 -13.104500
C -39.276800 -10.271700 -20.521800
H -39.162900 -14.554600 -20.701500
N -38.953400 -14.785400 -15.989900
C -38.897400 -11.229600 -19.608000
C -38.695600 -15.620600 -14.922000
H -38.644600 -9.684900 -20.868800
C -38.445600 -14.010000 -18.211200
C -38.245100 -14.414500 -20.669100
C -38.134900 -14.920900 -17.168900
H -38.007800 -11.291400 -19.342100
H -37.995000 -16.229700 -14.971900
H -37.896900 -14.720400 -22.638900
C -37.639200 -14.114900 -19.460700
C -37.494400 -14.507500 -21.827500
O -37.286500 -15.805600 -17.193200
C -36.262900 -13.918500 -19.428300
C -36.148200 -14.277300 -21.756300
O -35.907400 -14.551100 -24.028200
H -35.843400 -13.731000 -18.619400
C -35.512500 -13.997300 -20.580400
N -35.345800 -14.325200 -22.995900
H -34.591900 -13.861500 -20.558000
O -34.169300 -14.087600 -22.942200
39
Fragment
H -41.214100 -20.610900 -19.228500
H -40.772200 -19.018100 -20.772700
C -40.637300 -20.795500 -19.933800
C -40.372800 -19.853400 -20.851300
H -40.218900 -22.706200 -19.402100
C -40.041600 -22.054800 -20.041200
H -39.902200 -17.654300 -24.988100
C -39.497000 -20.104000 -21.936100
H -39.390300 -15.965700 -26.469800
N -39.214400 -19.147000 -22.805400
C -39.210700 -22.329800 -21.066000
C -39.014600 -17.489800 -25.214100
N -38.943000 -21.367100 -22.018500
H -38.816500 -23.169400 -21.132200
C -38.709900 -16.472100 -26.090400
C -38.355300 -19.425800 -23.806000
H -38.271100 -20.264700 -26.583400
C -38.063300 -21.731300 -23.103200
C -38.013000 -18.266900 -24.671100
C -37.807700 -20.678400 -24.025700
O -37.648300 -22.874600 -23.150200
C -37.428500 -20.645900 -26.486100
C -37.399600 -16.204500 -26.401200
H -37.195100 -15.525800 -27.004100
C -36.985300 -20.996700 -25.219100
H -36.945100 -20.597200 -28.448400
C -36.689900 -17.966700 -24.973100
C -36.645400 -20.849300 -27.604500
C -36.389500 -16.935300 -25.824500
H -36.004800 -18.469400 -24.594900
C -35.754000 -21.626100 -25.105500
H -35.501700 -16.730900 -26.013000
H -35.454600 -21.900400 -24.269100
C -35.422600 -21.431400 -27.441000
C -34.968800 -21.851500 -26.217700
O -34.918300 -21.107300 -29.672900
N -34.579300 -21.622100 -28.634400
H -34.146700 -22.279000 -26.139000
O -33.574500 -22.276200 -28.520800
78
Fragment
H -42.407400 -10.978200 -20.700300
H -41.799200 -12.558200 -19.139900
C -41.523200 -11.036400 -20.419400
H -41.432100 -13.185100 -14.684800
C -41.156700 -11.988000 -19.493200
H -41.001000 -14.576700 -12.948400
H -40.835700 -9.531400 -21.542900
C -40.742000 -13.804200 -14.753500
C -40.584900 -10.178300 -20.925000
C -40.487300 -14.627000 -13.721100
N -40.256800 -13.043200 -16.942200
C -39.978700 -13.861900 -15.936800
C -39.839300 -12.099600 -19.085000
C -39.480200 -13.105200 -18.051400
C -39.447700 -15.560800 -13.813500
H -39.277600 -16.138700 -13.104500
C -39.276800 -10.271700 -20.521800
H -39.162900 -14.554600 -20.701500
N -38.953400 -14.785400 -15.989900
C -38.897400 -11.229600 -19.608000
C -38.695600 -15.620600 -14.922000
H -38.644600 -9.684900 -20.868800
C -38.445600 -14.010000 -18.211200
C -38.245100 -14.414500 -20.669100
C -38.134900 -14.920900 -17.168900
H -38.007800 -11.291400 -19.342100
H -37.995000 -16.229700 -14.971900
H -37.896900 -14.720400 -22.638900
C -37.639200 -14.114900 -19.460700
C -37.494400 -14.507500 -21.827500
O -37.286500 -15.805600 -17.193200
C -36.262900 -13.918500 -19.428300
C -36.148200 -14.277300 -21.756300
O -35.907400 -14.551100 -24.028200
H -35.843400 -13.731000 -18.619400
C -35.512500 -13.997300 -20.580400
N -35.345800 -14.325200 -22.995900
H -34.591900 -13.861500 -20.558000
O -34.169300 -14.087600 -22.942200
H -41.214100 -20.610900 -19.228500
H -40.772200 -19.018100 -20.772700
C -40.637300 -20.795500 -19.933800
C -40.372800 -19.853400 -20.851300
H -40.218900 -22.706200 -19.402100
C -40.041600 -22.054800 -20.041200
H -39.902200 -17.654300 -24.988100
C -39.497000 -20.104000 -21.936100
H -39.390300 -15.965700 -26.469800
N -39.214400 -19.147000 -22.805400
C -39.210700 -22.329800 -21.066000
C -39.014600 -17.489800 -25.214100
N -38.943000 -21.367100 -22.018500
H -38.816500 -23.169400 -21.132200
C -38.709900 -16.472100 -26.090400
C -38.355300 -19.425800 -23.806000
H -38.271100 -20.264700 -26.583400
C -38.063300 -21.731300 -23.103200
C -38.013000 -18.266900 -24.671100
C -37.807700 -20.678400 -24.025700
O -37.648300 -22.874600 -23.150200
C -37.428500 -20.645900 -26.486100
C -37.399600 -16.204500 -26.401200
H -37.195100 -15.525800 -27.004100
C -36.985300 -20.996700 -25.219100
H -36.945100 -20.597200 -28.448400
C -36.689900 -17.966700 -24.973100
C -36.645400 -20.849300 -27.604500
C -36.389500 -16.935300 -25.824500
H -36.004800 -18.469400 -24.594900
C -35.754000 -21.626100 -25.105500
H -35.501700 -16.730900 -26.013000
H -35.454600 -21.900400 -24.269100
C -35.422600 -21.431400 -27.441000
C -34.968800 -21.851500 -26.217700
O -34.918300 -21.107300 -29.672900
N -34.579300 -21.622100 -28.634400
H -34.146700 -22.279000 -26.139000
O -33.574500 -22.276200 -28.520800
