15
Fragment
H -5.402900 -8.309500 -10.409900
H -5.043500 -8.234000 -11.853700
N -4.844500 -8.456900 -11.047000
H -3.884400 -9.233800 -8.775700
C -3.659300 -9.036500 -10.782300
C -3.310000 -9.406900 -9.486900
N -2.845500 -9.227500 -11.854800
C -2.096500 -10.035200 -9.272700
C -1.684200 -9.806900 -11.622800
O -1.630100 -10.448200 -8.163500
N -1.302900 -10.229400 -10.395600
H -1.041300 -9.727400 -13.431400
N -0.829600 -9.987900 -12.639300
H -0.546700 -10.629700 -10.307900
H -0.069100 -10.364700 -12.499500
17
Fragment
O -4.708600 -4.812400 -10.711400
H -3.938900 -5.771900 -12.812000
N -3.586400 -5.057800 -10.334200
O -3.238400 -4.911200 -9.176700
C -3.039000 -5.842200 -12.586100
C -2.600500 -5.538500 -11.315800
H -2.367100 -6.449800 -14.387800
C -2.100700 -6.255200 -13.518800
C -1.286800 -5.656100 -10.931800
H -1.022500 -5.448600 -10.064700
C -0.769500 -6.382100 -13.163900
C -0.365200 -6.091300 -11.873700
O -0.196800 -6.871500 -15.386700
C 0.250700 -6.844900 -14.165600
H 0.412200 -7.074300 -15.896300
H 0.528300 -6.189500 -11.635100
O 1.381200 -7.146200 -13.844900
32
Fragment
H -5.402900 -8.309500 -10.409900
H -5.043500 -8.234000 -11.853700
N -4.844500 -8.456900 -11.047000
H -3.884400 -9.233800 -8.775700
C -3.659300 -9.036500 -10.782300
C -3.310000 -9.406900 -9.486900
N -2.845500 -9.227500 -11.854800
C -2.096500 -10.035200 -9.272700
C -1.684200 -9.806900 -11.622800
O -1.630100 -10.448200 -8.163500
N -1.302900 -10.229400 -10.395600
H -1.041300 -9.727400 -13.431400
N -0.829600 -9.987900 -12.639300
H -0.546700 -10.629700 -10.307900
H -0.069100 -10.364700 -12.499500
O -4.708600 -4.812400 -10.711400
H -3.938900 -5.771900 -12.812000
N -3.586400 -5.057800 -10.334200
O -3.238400 -4.911200 -9.176700
C -3.039000 -5.842200 -12.586100
C -2.600500 -5.538500 -11.315800
H -2.367100 -6.449800 -14.387800
C -2.100700 -6.255200 -13.518800
C -1.286800 -5.656100 -10.931800
H -1.022500 -5.448600 -10.064700
C -0.769500 -6.382100 -13.163900
C -0.365200 -6.091300 -11.873700
O -0.196800 -6.871500 -15.386700
C 0.250700 -6.844900 -14.165600
H 0.412200 -7.074300 -15.896300
H 0.528300 -6.189500 -11.635100
O 1.381200 -7.146200 -13.844900
