15
Fragment
H -5.402900 -8.309500 -10.409900
H -5.043500 -8.234000 -11.853700
N -4.844500 -8.456900 -11.047000
H -3.884400 -9.233800 -8.775700
C -3.659300 -9.036500 -10.782300
C -3.310000 -9.406900 -9.486900
N -2.845500 -9.227500 -11.854800
C -2.096500 -10.035200 -9.272700
C -1.684200 -9.806900 -11.622800
O -1.630100 -10.448200 -8.163500
N -1.302900 -10.229400 -10.395600
H -1.041300 -9.727400 -13.431400
N -0.829600 -9.987900 -12.639300
H -0.546700 -10.629700 -10.307900
H -0.069100 -10.364700 -12.499500
17
Fragment
O -6.050300 -11.790800 -13.482400
H -5.197400 -12.747500 -15.692300
H -5.081400 -11.862700 -11.431000
C -4.919800 -12.092100 -13.161800
O -4.472300 -12.065500 -11.940600
C -4.303900 -12.845700 -15.453600
C -3.899600 -12.554900 -14.163500
H -3.646600 -13.488400 -17.262700
C -3.382300 -13.281000 -16.395500
C -2.568400 -12.681900 -13.808500
H -2.302000 -12.487300 -12.939500
C -2.068600 -13.398500 -16.011500
C -1.630200 -13.094800 -14.741300
O -1.430700 -14.025800 -18.150600
N -1.082700 -13.879200 -16.993100
H -0.730200 -13.165100 -14.515400
O 0.039500 -14.124700 -16.615900
32
Fragment
H -5.402900 -8.309500 -10.409900
H -5.043500 -8.234000 -11.853700
N -4.844500 -8.456900 -11.047000
H -3.884400 -9.233800 -8.775700
C -3.659300 -9.036500 -10.782300
C -3.310000 -9.406900 -9.486900
N -2.845500 -9.227500 -11.854800
C -2.096500 -10.035200 -9.272700
C -1.684200 -9.806900 -11.622800
O -1.630100 -10.448200 -8.163500
N -1.302900 -10.229400 -10.395600
H -1.041300 -9.727400 -13.431400
N -0.829600 -9.987900 -12.639300
H -0.546700 -10.629700 -10.307900
H -0.069100 -10.364700 -12.499500
O -6.050300 -11.790800 -13.482400
H -5.197400 -12.747500 -15.692300
H -5.081400 -11.862700 -11.431000
C -4.919800 -12.092100 -13.161800
O -4.472300 -12.065500 -11.940600
C -4.303900 -12.845700 -15.453600
C -3.899600 -12.554900 -14.163500
H -3.646600 -13.488400 -17.262700
C -3.382300 -13.281000 -16.395500
C -2.568400 -12.681900 -13.808500
H -2.302000 -12.487300 -12.939500
C -2.068600 -13.398500 -16.011500
C -1.630200 -13.094800 -14.741300
O -1.430700 -14.025800 -18.150600
N -1.082700 -13.879200 -16.993100
H -0.730200 -13.165100 -14.515400
O 0.039500 -14.124700 -16.615900
