3
Fragment
H -27.032000 -15.004800 -21.883800
O -26.768700 -15.758600 -22.172700
H -26.705500 -16.244700 -21.483900
42
Fragment
H -25.734500 -16.271700 -23.764300
N -25.596400 -12.683100 -24.348000
H -25.588500 -17.224100 -24.922400
N -25.223800 -16.558300 -24.442000
C -24.814800 -13.493500 -24.258700
C -24.215600 -15.811600 -24.877200
O -24.128300 -13.365000 -27.200900
N -23.876800 -17.748800 -27.701200
C -23.800400 -14.560900 -24.089100
C -23.695700 -14.825100 -22.629600
C -23.659100 -16.942800 -26.934900
N -23.623400 -15.016500 -21.521900
C -23.436200 -15.937400 -25.977800
H -23.204900 -11.564500 -25.556800
C -22.979800 -13.774800 -27.177300
C -22.442600 -14.830500 -26.169200
C -22.398800 -14.205100 -24.716000
C -22.390500 -11.593200 -25.107700
H -22.015700 -12.772000 -28.550200
N -21.974600 -13.417200 -27.983100
H -21.960700 -9.620100 -25.235600
C -21.899000 -12.786400 -24.617400
C -21.641100 -10.433300 -24.915800
O -21.390900 -16.168400 -23.609300
C -21.329000 -14.991300 -23.896700
C -21.079300 -15.129700 -26.749400
C -20.844700 -14.227600 -27.787200
C -20.676500 -12.806200 -23.948500
C -20.439300 -10.480000 -24.262700
N -20.373500 -14.121600 -23.554000
H -20.281700 -16.718200 -25.795400
C -20.129300 -16.089300 -26.463100
H -19.955200 -9.693800 -24.152100
C -19.924800 -11.663300 -23.762900
C -19.676000 -14.224000 -28.510200
H -19.652800 -14.341700 -23.137900
H -19.529000 -13.605800 -29.189900
H -19.106300 -11.687600 -23.321800
C -18.940400 -16.102700 -27.186800
C -18.727400 -15.174600 -28.187700
H -18.288300 -16.738000 -26.996200
H -17.924000 -15.189900 -28.655500
45
Fragment
H -27.032000 -15.004800 -21.883800
O -26.768700 -15.758600 -22.172700
H -26.705500 -16.244700 -21.483900
H -25.734500 -16.271700 -23.764300
N -25.596400 -12.683100 -24.348000
H -25.588500 -17.224100 -24.922400
N -25.223800 -16.558300 -24.442000
C -24.814800 -13.493500 -24.258700
C -24.215600 -15.811600 -24.877200
O -24.128300 -13.365000 -27.200900
N -23.876800 -17.748800 -27.701200
C -23.800400 -14.560900 -24.089100
C -23.695700 -14.825100 -22.629600
C -23.659100 -16.942800 -26.934900
N -23.623400 -15.016500 -21.521900
C -23.436200 -15.937400 -25.977800
H -23.204900 -11.564500 -25.556800
C -22.979800 -13.774800 -27.177300
C -22.442600 -14.830500 -26.169200
C -22.398800 -14.205100 -24.716000
C -22.390500 -11.593200 -25.107700
H -22.015700 -12.772000 -28.550200
N -21.974600 -13.417200 -27.983100
H -21.960700 -9.620100 -25.235600
C -21.899000 -12.786400 -24.617400
C -21.641100 -10.433300 -24.915800
O -21.390900 -16.168400 -23.609300
C -21.329000 -14.991300 -23.896700
C -21.079300 -15.129700 -26.749400
C -20.844700 -14.227600 -27.787200
C -20.676500 -12.806200 -23.948500
C -20.439300 -10.480000 -24.262700
N -20.373500 -14.121600 -23.554000
H -20.281700 -16.718200 -25.795400
C -20.129300 -16.089300 -26.463100
H -19.955200 -9.693800 -24.152100
C -19.924800 -11.663300 -23.762900
C -19.676000 -14.224000 -28.510200
H -19.652800 -14.341700 -23.137900
H -19.529000 -13.605800 -29.189900
H -19.106300 -11.687600 -23.321800
C -18.940400 -16.102700 -27.186800
C -18.727400 -15.174600 -28.187700
H -18.288300 -16.738000 -26.996200
H -17.924000 -15.189900 -28.655500
