3
Fragment
H -27.032000 -15.004800 -21.883800
O -26.768700 -15.758600 -22.172700
H -26.705500 -16.244700 -21.483900
42
Fragment
H -33.631000 -11.764800 -21.991700
H -33.266700 -10.216700 -20.332400
C -32.827600 -11.780100 -21.523900
C -32.614600 -10.852000 -20.523000
H -32.448700 -15.267100 -16.658000
H -32.026000 -13.348900 -22.526100
H -31.902200 -12.613000 -16.474100
C -31.879000 -12.730700 -21.846400
C -31.630200 -15.291400 -17.099200
H -31.599800 -17.260900 -17.488300
C -31.425700 -10.865400 -19.799300
H -31.273300 -10.236500 -19.131600
N -31.181500 -12.833100 -16.890200
C -31.115700 -16.474700 -17.599000
C -30.878500 -14.148500 -17.284700
C -30.710300 -12.727100 -21.123400
C -30.475700 -11.825000 -20.085600
C -30.226000 -11.963400 -17.233000
O -30.164100 -10.786300 -16.945500
C -29.913900 -16.521400 -18.252000
C -29.656000 -14.168300 -17.953600
H -29.594300 -17.334600 -18.571900
N -29.580400 -13.537500 -21.319300
H -29.539300 -14.182700 -21.886400
C -29.164500 -15.361500 -18.443900
C -29.156200 -12.749600 -18.052200
C -29.112400 -12.124200 -19.505500
C -28.575200 -13.179900 -20.513600
H -28.350100 -15.390200 -18.893100
C -28.118800 -11.017300 -19.314100
N -27.931600 -11.938200 -14.858200
C -27.895900 -10.011900 -20.271100
C -27.859300 -12.129600 -15.965800
C -27.754600 -12.393800 -17.425300
N -27.678200 -9.205900 -21.037500
O -27.426700 -13.589700 -20.537100
C -27.339400 -11.143100 -18.213500
C -26.740200 -13.461200 -17.595000
N -26.331200 -10.396400 -17.778200
H -25.966500 -9.730600 -18.258700
N -25.958600 -14.271600 -17.684300
H -25.820500 -10.683000 -17.100500
45
Fragment
H -27.032000 -15.004800 -21.883800
O -26.768700 -15.758600 -22.172700
H -26.705500 -16.244700 -21.483900
H -33.631000 -11.764800 -21.991700
H -33.266700 -10.216700 -20.332400
C -32.827600 -11.780100 -21.523900
C -32.614600 -10.852000 -20.523000
H -32.448700 -15.267100 -16.658000
H -32.026000 -13.348900 -22.526100
H -31.902200 -12.613000 -16.474100
C -31.879000 -12.730700 -21.846400
C -31.630200 -15.291400 -17.099200
H -31.599800 -17.260900 -17.488300
C -31.425700 -10.865400 -19.799300
H -31.273300 -10.236500 -19.131600
N -31.181500 -12.833100 -16.890200
C -31.115700 -16.474700 -17.599000
C -30.878500 -14.148500 -17.284700
C -30.710300 -12.727100 -21.123400
C -30.475700 -11.825000 -20.085600
C -30.226000 -11.963400 -17.233000
O -30.164100 -10.786300 -16.945500
C -29.913900 -16.521400 -18.252000
C -29.656000 -14.168300 -17.953600
H -29.594300 -17.334600 -18.571900
N -29.580400 -13.537500 -21.319300
H -29.539300 -14.182700 -21.886400
C -29.164500 -15.361500 -18.443900
C -29.156200 -12.749600 -18.052200
C -29.112400 -12.124200 -19.505500
C -28.575200 -13.179900 -20.513600
H -28.350100 -15.390200 -18.893100
C -28.118800 -11.017300 -19.314100
N -27.931600 -11.938200 -14.858200
C -27.895900 -10.011900 -20.271100
C -27.859300 -12.129600 -15.965800
C -27.754600 -12.393800 -17.425300
N -27.678200 -9.205900 -21.037500
O -27.426700 -13.589700 -20.537100
C -27.339400 -11.143100 -18.213500
C -26.740200 -13.461200 -17.595000
N -26.331200 -10.396400 -17.778200
H -25.966500 -9.730600 -18.258700
N -25.958600 -14.271600 -17.684300
H -25.820500 -10.683000 -17.100500
