3
Fragment
H -27.032000 -15.004800 -21.883800
O -26.768700 -15.758600 -22.172700
H -26.705500 -16.244700 -21.483900
42
Fragment
H -34.327000 -15.175500 -23.764300
N -34.188900 -18.764100 -24.348000
H -34.181000 -14.223100 -24.922400
N -33.816300 -14.888900 -24.442000
C -33.407300 -17.953600 -24.258700
C -32.808100 -15.635500 -24.877200
O -32.720800 -18.082100 -27.200900
N -32.469300 -13.698400 -27.701200
C -32.392900 -16.886200 -24.089100
C -32.288200 -16.622100 -22.629600
C -32.251600 -14.504300 -26.934900
N -32.215900 -16.430700 -21.521900
C -32.028700 -15.509700 -25.977800
H -31.797400 -19.882700 -25.556800
C -31.572300 -17.672400 -27.177300
C -31.035100 -16.616700 -26.169200
C -30.991300 -17.242000 -24.716000
C -30.983000 -19.853900 -25.107700
H -30.608200 -18.675100 -28.550200
N -30.567100 -18.030000 -27.983100
H -30.553200 -21.827000 -25.235600
C -30.491500 -18.660700 -24.617400
C -30.233600 -21.013900 -24.915800
O -29.983400 -15.278700 -23.609300
C -29.921500 -16.455800 -23.896700
C -29.671800 -16.317500 -26.749400
C -29.437200 -17.219600 -27.787200
C -29.269000 -18.641000 -23.948500
C -29.031800 -20.967200 -24.262700
N -28.966000 -17.325600 -23.554000
H -28.874200 -14.728900 -25.795400
C -28.721800 -15.357900 -26.463100
H -28.547700 -21.753300 -24.152100
C -28.517300 -19.783900 -23.762900
C -28.268500 -17.223200 -28.510200
H -28.245300 -17.105500 -23.137900
H -28.121500 -17.841300 -29.189900
H -27.698800 -19.759600 -23.321800
C -27.532900 -15.344400 -27.186800
C -27.319900 -16.272600 -28.187700
H -26.880800 -14.709200 -26.996200
H -26.516500 -16.257300 -28.655500
45
Fragment
H -27.032000 -15.004800 -21.883800
O -26.768700 -15.758600 -22.172700
H -26.705500 -16.244700 -21.483900
H -34.327000 -15.175500 -23.764300
N -34.188900 -18.764100 -24.348000
H -34.181000 -14.223100 -24.922400
N -33.816300 -14.888900 -24.442000
C -33.407300 -17.953600 -24.258700
C -32.808100 -15.635500 -24.877200
O -32.720800 -18.082100 -27.200900
N -32.469300 -13.698400 -27.701200
C -32.392900 -16.886200 -24.089100
C -32.288200 -16.622100 -22.629600
C -32.251600 -14.504300 -26.934900
N -32.215900 -16.430700 -21.521900
C -32.028700 -15.509700 -25.977800
H -31.797400 -19.882700 -25.556800
C -31.572300 -17.672400 -27.177300
C -31.035100 -16.616700 -26.169200
C -30.991300 -17.242000 -24.716000
C -30.983000 -19.853900 -25.107700
H -30.608200 -18.675100 -28.550200
N -30.567100 -18.030000 -27.983100
H -30.553200 -21.827000 -25.235600
C -30.491500 -18.660700 -24.617400
C -30.233600 -21.013900 -24.915800
O -29.983400 -15.278700 -23.609300
C -29.921500 -16.455800 -23.896700
C -29.671800 -16.317500 -26.749400
C -29.437200 -17.219600 -27.787200
C -29.269000 -18.641000 -23.948500
C -29.031800 -20.967200 -24.262700
N -28.966000 -17.325600 -23.554000
H -28.874200 -14.728900 -25.795400
C -28.721800 -15.357900 -26.463100
H -28.547700 -21.753300 -24.152100
C -28.517300 -19.783900 -23.762900
C -28.268500 -17.223200 -28.510200
H -28.245300 -17.105500 -23.137900
H -28.121500 -17.841300 -29.189900
H -27.698800 -19.759600 -23.321800
C -27.532900 -15.344400 -27.186800
C -27.319900 -16.272600 -28.187700
H -26.880800 -14.709200 -26.996200
H -26.516500 -16.257300 -28.655500
