3
Fragment
H -27.032000 -15.004800 -21.883800
O -26.768700 -15.758600 -22.172700
H -26.705500 -16.244700 -21.483900
42
Fragment
H -33.631000 -20.749700 -21.991700
H -33.266700 -19.201600 -20.332400
C -32.827600 -20.765000 -21.523900
C -32.614600 -19.836900 -20.523000
H -32.448700 -24.252000 -16.658000
H -32.026000 -22.333800 -22.526100
H -31.902200 -21.597900 -16.474100
C -31.879000 -21.715600 -21.846400
C -31.630200 -24.276300 -17.099200
H -31.599800 -26.245800 -17.488300
C -31.425700 -19.850300 -19.799300
H -31.273300 -19.221400 -19.131600
N -31.181500 -21.818000 -16.890200
C -31.115700 -25.459600 -17.599000
C -30.878500 -23.133400 -17.284700
C -30.710300 -21.712000 -21.123400
C -30.475700 -20.809900 -20.085600
C -30.226000 -20.948300 -17.233000
O -30.164100 -19.771200 -16.945500
C -29.913900 -25.506300 -18.252000
C -29.656000 -23.153200 -17.953600
H -29.594300 -26.319500 -18.571900
N -29.580400 -22.522400 -21.319300
H -29.539300 -23.167600 -21.886400
C -29.164500 -24.346400 -18.443900
C -29.156200 -21.734500 -18.052200
C -29.112400 -21.109100 -19.505500
C -28.575200 -22.164800 -20.513600
H -28.350100 -24.375100 -18.893100
C -28.118800 -20.002200 -19.314100
N -27.931600 -20.923100 -14.858200
C -27.895900 -18.996800 -20.271100
C -27.859300 -21.114500 -15.965800
C -27.754600 -21.378700 -17.425300
N -27.678200 -18.190800 -21.037500
O -27.426700 -22.574600 -20.537100
C -27.339400 -20.128000 -18.213500
C -26.740200 -22.446100 -17.595000
N -26.331200 -19.381300 -17.778200
H -25.966500 -18.715500 -18.258700
N -25.958600 -23.256500 -17.684300
H -25.820500 -19.667900 -17.100500
45
Fragment
H -27.032000 -15.004800 -21.883800
O -26.768700 -15.758600 -22.172700
H -26.705500 -16.244700 -21.483900
H -33.631000 -20.749700 -21.991700
H -33.266700 -19.201600 -20.332400
C -32.827600 -20.765000 -21.523900
C -32.614600 -19.836900 -20.523000
H -32.448700 -24.252000 -16.658000
H -32.026000 -22.333800 -22.526100
H -31.902200 -21.597900 -16.474100
C -31.879000 -21.715600 -21.846400
C -31.630200 -24.276300 -17.099200
H -31.599800 -26.245800 -17.488300
C -31.425700 -19.850300 -19.799300
H -31.273300 -19.221400 -19.131600
N -31.181500 -21.818000 -16.890200
C -31.115700 -25.459600 -17.599000
C -30.878500 -23.133400 -17.284700
C -30.710300 -21.712000 -21.123400
C -30.475700 -20.809900 -20.085600
C -30.226000 -20.948300 -17.233000
O -30.164100 -19.771200 -16.945500
C -29.913900 -25.506300 -18.252000
C -29.656000 -23.153200 -17.953600
H -29.594300 -26.319500 -18.571900
N -29.580400 -22.522400 -21.319300
H -29.539300 -23.167600 -21.886400
C -29.164500 -24.346400 -18.443900
C -29.156200 -21.734500 -18.052200
C -29.112400 -21.109100 -19.505500
C -28.575200 -22.164800 -20.513600
H -28.350100 -24.375100 -18.893100
C -28.118800 -20.002200 -19.314100
N -27.931600 -20.923100 -14.858200
C -27.895900 -18.996800 -20.271100
C -27.859300 -21.114500 -15.965800
C -27.754600 -21.378700 -17.425300
N -27.678200 -18.190800 -21.037500
O -27.426700 -22.574600 -20.537100
C -27.339400 -20.128000 -18.213500
C -26.740200 -22.446100 -17.595000
N -26.331200 -19.381300 -17.778200
H -25.966500 -18.715500 -18.258700
N -25.958600 -23.256500 -17.684300
H -25.820500 -19.667900 -17.100500
