21
Fragment
H -5.880700 -27.780900 -10.503300
H -5.864800 -24.088000 -13.678800
H -5.700500 -29.825900 -11.475400
C -5.616500 -27.833800 -11.413900
C -5.520600 -29.047200 -11.988000
O -5.345300 -25.512600 -11.531000
C -5.334100 -26.611400 -12.122300
N -5.165900 -29.168300 -13.309700
H -5.130300 -30.003500 -13.641500
C -5.023600 -26.773100 -13.549200
C -4.944000 -24.236100 -13.978900
C -4.940100 -28.081700 -14.047000
C -4.795800 -25.646500 -14.458000
H -4.736300 -23.618500 -14.711500
C -4.576500 -28.209400 -15.429200
N -4.479000 -25.749300 -15.741400
N -4.362800 -29.275500 -16.144100
C -4.361600 -27.035200 -16.182300
H -4.327900 -24.077400 -13.233300
N -4.014800 -27.359900 -17.406100
O -4.007300 -28.755200 -17.398200
21
Fragment
O -5.147900 -36.279400 -15.223600
N -5.140400 -34.884100 -15.215700
H -4.827300 -31.601600 -19.388500
C -4.793600 -34.559400 -16.439500
N -4.792300 -36.799700 -16.477700
N -4.676200 -33.273500 -16.880400
C -4.578700 -35.733600 -17.192600
H -4.418900 -31.142700 -17.910300
C -4.359400 -33.170700 -18.163800
C -4.215100 -35.605900 -18.574900
C -4.211200 -31.760300 -18.642900
C -4.131600 -34.297300 -19.072600
H -4.024900 -37.527700 -18.980300
N -3.989300 -36.692500 -19.312100
C -3.821000 -34.135600 -20.499500
O -3.809900 -33.036800 -21.090800
C -3.634600 -36.571400 -20.633800
C -3.538700 -35.358000 -21.207900
H -3.454700 -37.350100 -21.146400
H -3.290400 -31.612200 -18.943000
H -3.274500 -35.305100 -22.118500
42
Fragment
H -5.880700 -27.780900 -10.503300
H -5.864800 -24.088000 -13.678800
H -5.700500 -29.825900 -11.475400
C -5.616500 -27.833800 -11.413900
C -5.520600 -29.047200 -11.988000
O -5.345300 -25.512600 -11.531000
C -5.334100 -26.611400 -12.122300
N -5.165900 -29.168300 -13.309700
H -5.130300 -30.003500 -13.641500
C -5.023600 -26.773100 -13.549200
C -4.944000 -24.236100 -13.978900
C -4.940100 -28.081700 -14.047000
C -4.795800 -25.646500 -14.458000
H -4.736300 -23.618500 -14.711500
C -4.576500 -28.209400 -15.429200
N -4.479000 -25.749300 -15.741400
N -4.362800 -29.275500 -16.144100
C -4.361600 -27.035200 -16.182300
H -4.327900 -24.077400 -13.233300
N -4.014800 -27.359900 -17.406100
O -4.007300 -28.755200 -17.398200
O -5.147900 -36.279400 -15.223600
N -5.140400 -34.884100 -15.215700
H -4.827300 -31.601600 -19.388500
C -4.793600 -34.559400 -16.439500
N -4.792300 -36.799700 -16.477700
N -4.676200 -33.273500 -16.880400
C -4.578700 -35.733600 -17.192600
H -4.418900 -31.142700 -17.910300
C -4.359400 -33.170700 -18.163800
C -4.215100 -35.605900 -18.574900
C -4.211200 -31.760300 -18.642900
C -4.131600 -34.297300 -19.072600
H -4.024900 -37.527700 -18.980300
N -3.989300 -36.692500 -19.312100
C -3.821000 -34.135600 -20.499500
O -3.809900 -33.036800 -21.090800
C -3.634600 -36.571400 -20.633800
C -3.538700 -35.358000 -21.207900
H -3.454700 -37.350100 -21.146400
H -3.290400 -31.612200 -18.943000
H -3.274500 -35.305100 -22.118500
