21
Fragment
H -5.880700 -27.780900 -10.503300
H -5.864800 -24.088000 -13.678800
H -5.700500 -29.825900 -11.475400
C -5.616500 -27.833800 -11.413900
C -5.520600 -29.047200 -11.988000
O -5.345300 -25.512600 -11.531000
C -5.334100 -26.611400 -12.122300
N -5.165900 -29.168300 -13.309700
H -5.130300 -30.003500 -13.641500
C -5.023600 -26.773100 -13.549200
C -4.944000 -24.236100 -13.978900
C -4.940100 -28.081700 -14.047000
C -4.795800 -25.646500 -14.458000
H -4.736300 -23.618500 -14.711500
C -4.576500 -28.209400 -15.429200
N -4.479000 -25.749300 -15.741400
N -4.362800 -29.275500 -16.144100
C -4.361600 -27.035200 -16.182300
H -4.327900 -24.077400 -13.233300
N -4.014800 -27.359900 -17.406100
O -4.007300 -28.755200 -17.398200
3
Fragment
H -6.149800 -24.637200 -8.403400
O -6.126000 -24.250900 -9.160800
H -5.932500 -24.872000 -9.708300
24
Fragment
H -5.880700 -27.780900 -10.503300
H -5.864800 -24.088000 -13.678800
H -5.700500 -29.825900 -11.475400
C -5.616500 -27.833800 -11.413900
C -5.520600 -29.047200 -11.988000
O -5.345300 -25.512600 -11.531000
C -5.334100 -26.611400 -12.122300
N -5.165900 -29.168300 -13.309700
H -5.130300 -30.003500 -13.641500
C -5.023600 -26.773100 -13.549200
C -4.944000 -24.236100 -13.978900
C -4.940100 -28.081700 -14.047000
C -4.795800 -25.646500 -14.458000
H -4.736300 -23.618500 -14.711500
C -4.576500 -28.209400 -15.429200
N -4.479000 -25.749300 -15.741400
N -4.362800 -29.275500 -16.144100
C -4.361600 -27.035200 -16.182300
H -4.327900 -24.077400 -13.233300
N -4.014800 -27.359900 -17.406100
O -4.007300 -28.755200 -17.398200
H -6.149800 -24.637200 -8.403400
O -6.126000 -24.250900 -9.160800
H -5.932500 -24.872000 -9.708300
