21
Fragment
H -5.880700 -27.780900 -10.503300
H -5.864800 -24.088000 -13.678800
H -5.700500 -29.825900 -11.475400
C -5.616500 -27.833800 -11.413900
C -5.520600 -29.047200 -11.988000
O -5.345300 -25.512600 -11.531000
C -5.334100 -26.611400 -12.122300
N -5.165900 -29.168300 -13.309700
H -5.130300 -30.003500 -13.641500
C -5.023600 -26.773100 -13.549200
C -4.944000 -24.236100 -13.978900
C -4.940100 -28.081700 -14.047000
C -4.795800 -25.646500 -14.458000
H -4.736300 -23.618500 -14.711500
C -4.576500 -28.209400 -15.429200
N -4.479000 -25.749300 -15.741400
N -4.362800 -29.275500 -16.144100
C -4.361600 -27.035200 -16.182300
H -4.327900 -24.077400 -13.233300
N -4.014800 -27.359900 -17.406100
O -4.007300 -28.755200 -17.398200
21
Fragment
O -7.215000 -36.279400 -5.903100
N -7.207600 -34.884100 -5.895200
H -6.894500 -31.601600 -10.068000
C -6.860800 -34.559400 -7.119000
N -6.859500 -36.799700 -7.157200
N -6.743300 -33.273500 -7.559900
C -6.645900 -35.733600 -7.872100
H -6.486100 -31.142700 -8.589800
C -6.426600 -33.170700 -8.843300
C -6.282300 -35.605900 -9.254300
C -6.278300 -31.760300 -9.322400
C -6.198800 -34.297300 -9.752100
H -6.092100 -37.527700 -9.659800
N -6.056500 -36.692500 -9.991600
C -5.888200 -34.135600 -11.179000
O -5.877000 -33.036800 -11.770300
C -5.701700 -36.571400 -11.313200
C -5.605900 -35.358000 -11.887400
H -5.521800 -37.350100 -11.825900
H -5.357500 -31.612200 -9.622500
H -5.341600 -35.305100 -12.798000
42
Fragment
H -5.880700 -27.780900 -10.503300
H -5.864800 -24.088000 -13.678800
H -5.700500 -29.825900 -11.475400
C -5.616500 -27.833800 -11.413900
C -5.520600 -29.047200 -11.988000
O -5.345300 -25.512600 -11.531000
C -5.334100 -26.611400 -12.122300
N -5.165900 -29.168300 -13.309700
H -5.130300 -30.003500 -13.641500
C -5.023600 -26.773100 -13.549200
C -4.944000 -24.236100 -13.978900
C -4.940100 -28.081700 -14.047000
C -4.795800 -25.646500 -14.458000
H -4.736300 -23.618500 -14.711500
C -4.576500 -28.209400 -15.429200
N -4.479000 -25.749300 -15.741400
N -4.362800 -29.275500 -16.144100
C -4.361600 -27.035200 -16.182300
H -4.327900 -24.077400 -13.233300
N -4.014800 -27.359900 -17.406100
O -4.007300 -28.755200 -17.398200
O -7.215000 -36.279400 -5.903100
N -7.207600 -34.884100 -5.895200
H -6.894500 -31.601600 -10.068000
C -6.860800 -34.559400 -7.119000
N -6.859500 -36.799700 -7.157200
N -6.743300 -33.273500 -7.559900
C -6.645900 -35.733600 -7.872100
H -6.486100 -31.142700 -8.589800
C -6.426600 -33.170700 -8.843300
C -6.282300 -35.605900 -9.254300
C -6.278300 -31.760300 -9.322400
C -6.198800 -34.297300 -9.752100
H -6.092100 -37.527700 -9.659800
N -6.056500 -36.692500 -9.991600
C -5.888200 -34.135600 -11.179000
O -5.877000 -33.036800 -11.770300
C -5.701700 -36.571400 -11.313200
C -5.605900 -35.358000 -11.887400
H -5.521800 -37.350100 -11.825900
H -5.357500 -31.612200 -9.622500
H -5.341600 -35.305100 -12.798000
