39
Fragment
O -9.010200 -29.493900 -19.389300
O -8.474400 -31.513700 -18.924600
N -8.261900 -30.461000 -19.465500
H -8.056400 -29.550900 -21.867700
H -7.675600 -27.747500 -20.584900
O -7.504700 -31.497400 -23.332000
H -7.262100 -27.441700 -21.952400
C -7.256200 -29.449300 -21.533700
C -7.081300 -27.981900 -21.198500
C -7.014600 -30.320400 -20.293300
H -6.755000 -31.214200 -20.600700
N -6.464700 -30.833000 -23.477100
C -6.226400 -29.771000 -22.566000
C -5.903800 -29.802400 -19.361500
H -5.707800 -25.679100 -22.336100
O -5.654200 -31.075100 -24.378800
C -5.644100 -27.740300 -20.742600
C -5.559200 -25.364800 -21.473200
O -5.538000 -30.514800 -18.437000
H -5.484200 -23.402400 -21.962100
C -5.469800 -26.266500 -20.420400
C -5.429900 -24.005500 -21.255400
N -5.375200 -28.592300 -19.589100
C -5.284600 -25.780400 -19.132700
H -5.252400 -26.372500 -18.416300
C -5.219600 -23.566700 -19.972600
C -5.147600 -24.422500 -18.910100
C -5.046700 -29.113700 -22.643400
N -5.028800 -22.123400 -19.746300
O -5.024000 -21.388700 -20.716900
H -5.007900 -24.097700 -18.049600
O -4.892500 -21.735400 -18.607500
H -4.759800 -28.306400 -19.084300
N -4.710100 -28.109700 -21.828300
H -4.421600 -29.422400 -23.271500
C -3.302600 -27.723100 -21.701900
H -3.220400 -26.773700 -21.812100
H -2.979300 -27.973400 -20.833000
H -2.786100 -28.170100 -22.377200
39
Fragment
O -7.869100 -19.196100 -25.440100
O -7.333300 -17.176300 -24.975400
N -7.120700 -18.229000 -25.516400
H -6.915200 -19.139100 -27.918600
H -6.534500 -20.942500 -26.635800
O -6.363500 -17.192600 -29.382900
H -6.120900 -21.248300 -28.003300
C -6.115100 -19.240700 -27.584600
C -5.940100 -20.708100 -27.249300
C -5.873500 -18.369600 -26.344100
H -5.613900 -17.475800 -26.651500
N -5.323600 -17.857000 -29.528000
C -5.085300 -18.919000 -28.616800
C -4.762700 -18.887600 -25.412300
H -4.566700 -23.010900 -28.386900
O -4.513000 -17.614900 -30.429700
C -4.503000 -20.949700 -26.793500
C -4.418100 -23.325200 -27.524000
O -4.396900 -18.175200 -24.487900
H -4.343000 -25.287600 -28.013000
C -4.328700 -22.423500 -26.471200
C -4.288800 -24.684500 -27.306200
N -4.234100 -20.097700 -25.639900
C -4.143500 -22.909600 -25.183600
H -4.111200 -22.317500 -24.467200
C -4.078500 -25.123300 -26.023400
C -4.006500 -24.267500 -24.960900
C -3.905600 -19.576300 -28.694300
N -3.887700 -26.566600 -25.797100
O -3.882900 -27.301300 -26.767700
H -3.866700 -24.592300 -24.100500
O -3.751400 -26.954600 -24.658400
H -3.618700 -20.383600 -25.135200
N -3.569000 -20.580300 -27.879100
H -3.280400 -19.267600 -29.322400
C -2.161500 -20.966900 -27.752800
H -2.079200 -21.916300 -27.862900
H -1.838100 -20.716600 -26.883900
H -1.645000 -20.519900 -28.428000
78
Fragment
O -9.010200 -29.493900 -19.389300
O -8.474400 -31.513700 -18.924600
N -8.261900 -30.461000 -19.465500
H -8.056400 -29.550900 -21.867700
H -7.675600 -27.747500 -20.584900
O -7.504700 -31.497400 -23.332000
H -7.262100 -27.441700 -21.952400
C -7.256200 -29.449300 -21.533700
C -7.081300 -27.981900 -21.198500
C -7.014600 -30.320400 -20.293300
H -6.755000 -31.214200 -20.600700
N -6.464700 -30.833000 -23.477100
C -6.226400 -29.771000 -22.566000
C -5.903800 -29.802400 -19.361500
H -5.707800 -25.679100 -22.336100
O -5.654200 -31.075100 -24.378800
C -5.644100 -27.740300 -20.742600
C -5.559200 -25.364800 -21.473200
O -5.538000 -30.514800 -18.437000
H -5.484200 -23.402400 -21.962100
C -5.469800 -26.266500 -20.420400
C -5.429900 -24.005500 -21.255400
N -5.375200 -28.592300 -19.589100
C -5.284600 -25.780400 -19.132700
H -5.252400 -26.372500 -18.416300
C -5.219600 -23.566700 -19.972600
C -5.147600 -24.422500 -18.910100
C -5.046700 -29.113700 -22.643400
N -5.028800 -22.123400 -19.746300
O -5.024000 -21.388700 -20.716900
H -5.007900 -24.097700 -18.049600
O -4.892500 -21.735400 -18.607500
H -4.759800 -28.306400 -19.084300
N -4.710100 -28.109700 -21.828300
H -4.421600 -29.422400 -23.271500
C -3.302600 -27.723100 -21.701900
H -3.220400 -26.773700 -21.812100
H -2.979300 -27.973400 -20.833000
H -2.786100 -28.170100 -22.377200
O -7.869100 -19.196100 -25.440100
O -7.333300 -17.176300 -24.975400
N -7.120700 -18.229000 -25.516400
H -6.915200 -19.139100 -27.918600
H -6.534500 -20.942500 -26.635800
O -6.363500 -17.192600 -29.382900
H -6.120900 -21.248300 -28.003300
C -6.115100 -19.240700 -27.584600
C -5.940100 -20.708100 -27.249300
C -5.873500 -18.369600 -26.344100
H -5.613900 -17.475800 -26.651500
N -5.323600 -17.857000 -29.528000
C -5.085300 -18.919000 -28.616800
C -4.762700 -18.887600 -25.412300
H -4.566700 -23.010900 -28.386900
O -4.513000 -17.614900 -30.429700
C -4.503000 -20.949700 -26.793500
C -4.418100 -23.325200 -27.524000
O -4.396900 -18.175200 -24.487900
H -4.343000 -25.287600 -28.013000
C -4.328700 -22.423500 -26.471200
C -4.288800 -24.684500 -27.306200
N -4.234100 -20.097700 -25.639900
C -4.143500 -22.909600 -25.183600
H -4.111200 -22.317500 -24.467200
C -4.078500 -25.123300 -26.023400
C -4.006500 -24.267500 -24.960900
C -3.905600 -19.576300 -28.694300
N -3.887700 -26.566600 -25.797100
O -3.882900 -27.301300 -26.767700
H -3.866700 -24.592300 -24.100500
O -3.751400 -26.954600 -24.658400
H -3.618700 -20.383600 -25.135200
N -3.569000 -20.580300 -27.879100
H -3.280400 -19.267600 -29.322400
C -2.161500 -20.966900 -27.752800
H -2.079200 -21.916300 -27.862900
H -1.838100 -20.716600 -26.883900
H -1.645000 -20.519900 -28.428000
