39
Fragment
O -9.010200 -29.493900 -19.389300
O -8.474400 -31.513700 -18.924600
N -8.261900 -30.461000 -19.465500
H -8.056400 -29.550900 -21.867700
H -7.675600 -27.747500 -20.584900
O -7.504700 -31.497400 -23.332000
H -7.262100 -27.441700 -21.952400
C -7.256200 -29.449300 -21.533700
C -7.081300 -27.981900 -21.198500
C -7.014600 -30.320400 -20.293300
H -6.755000 -31.214200 -20.600700
N -6.464700 -30.833000 -23.477100
C -6.226400 -29.771000 -22.566000
C -5.903800 -29.802400 -19.361500
H -5.707800 -25.679100 -22.336100
O -5.654200 -31.075100 -24.378800
C -5.644100 -27.740300 -20.742600
C -5.559200 -25.364800 -21.473200
O -5.538000 -30.514800 -18.437000
H -5.484200 -23.402400 -21.962100
C -5.469800 -26.266500 -20.420400
C -5.429900 -24.005500 -21.255400
N -5.375200 -28.592300 -19.589100
C -5.284600 -25.780400 -19.132700
H -5.252400 -26.372500 -18.416300
C -5.219600 -23.566700 -19.972600
C -5.147600 -24.422500 -18.910100
C -5.046700 -29.113700 -22.643400
N -5.028800 -22.123400 -19.746300
O -5.024000 -21.388700 -20.716900
H -5.007900 -24.097700 -18.049600
O -4.892500 -21.735400 -18.607500
H -4.759800 -28.306400 -19.084300
N -4.710100 -28.109700 -21.828300
H -4.421600 -29.422400 -23.271500
C -3.302600 -27.723100 -21.701900
H -3.220400 -26.773700 -21.812100
H -2.979300 -27.973400 -20.833000
H -2.786100 -28.170100 -22.377200
39
Fragment
H -4.792000 -37.908100 -19.978700
H -4.598800 -37.711400 -21.522800
H -4.357700 -36.511700 -20.543800
C -4.275500 -37.461100 -20.653900
H -3.156500 -39.160400 -19.084300
N -2.868000 -37.847700 -20.527600
H -2.818300 -38.044400 -23.271500
O -2.685500 -31.473400 -23.748300
H -2.570200 -33.835700 -24.306200
O -2.554100 -31.126700 -21.639000
N -2.549300 -31.861400 -22.609600
C -2.531400 -38.851700 -19.712400
C -2.430500 -34.160500 -23.445800
C -2.358500 -33.304700 -22.383300
H -2.325700 -36.110500 -23.939500
C -2.293500 -35.518400 -23.223100
N -2.202900 -38.330300 -22.766800
C -2.148200 -33.743500 -21.100500
C -2.108300 -36.004500 -21.935500
H -2.093900 -33.140400 -20.393700
O -2.040100 -40.252800 -23.918800
C -2.018800 -35.102800 -20.882600
C -1.934000 -37.478300 -21.613200
O -1.923900 -40.813100 -17.977000
H -1.870200 -35.417100 -20.019800
C -1.674300 -39.540400 -22.994400
C -1.351700 -39.509000 -19.789900
N -1.113300 -40.571000 -18.878700
H -0.823000 -40.952200 -21.755200
C -0.563500 -40.058400 -22.062600
C -0.496800 -37.719900 -21.157400
C -0.321900 -39.187300 -20.822100
H -0.316000 -37.179700 -20.403400
O -0.073400 -41.235400 -19.023800
H 0.097500 -37.485500 -21.770900
H 0.478300 -39.288900 -20.488100
N 0.683800 -40.199000 -22.890300
O 0.896300 -41.251700 -23.431300
O 1.432100 -39.231900 -22.966600
78
Fragment
O -9.010200 -29.493900 -19.389300
O -8.474400 -31.513700 -18.924600
N -8.261900 -30.461000 -19.465500
H -8.056400 -29.550900 -21.867700
H -7.675600 -27.747500 -20.584900
O -7.504700 -31.497400 -23.332000
H -7.262100 -27.441700 -21.952400
C -7.256200 -29.449300 -21.533700
C -7.081300 -27.981900 -21.198500
C -7.014600 -30.320400 -20.293300
H -6.755000 -31.214200 -20.600700
N -6.464700 -30.833000 -23.477100
C -6.226400 -29.771000 -22.566000
C -5.903800 -29.802400 -19.361500
H -5.707800 -25.679100 -22.336100
O -5.654200 -31.075100 -24.378800
C -5.644100 -27.740300 -20.742600
C -5.559200 -25.364800 -21.473200
O -5.538000 -30.514800 -18.437000
H -5.484200 -23.402400 -21.962100
C -5.469800 -26.266500 -20.420400
C -5.429900 -24.005500 -21.255400
N -5.375200 -28.592300 -19.589100
C -5.284600 -25.780400 -19.132700
H -5.252400 -26.372500 -18.416300
C -5.219600 -23.566700 -19.972600
C -5.147600 -24.422500 -18.910100
C -5.046700 -29.113700 -22.643400
N -5.028800 -22.123400 -19.746300
O -5.024000 -21.388700 -20.716900
H -5.007900 -24.097700 -18.049600
O -4.892500 -21.735400 -18.607500
H -4.759800 -28.306400 -19.084300
N -4.710100 -28.109700 -21.828300
H -4.421600 -29.422400 -23.271500
C -3.302600 -27.723100 -21.701900
H -3.220400 -26.773700 -21.812100
H -2.979300 -27.973400 -20.833000
H -2.786100 -28.170100 -22.377200
H -4.792000 -37.908100 -19.978700
H -4.598800 -37.711400 -21.522800
H -4.357700 -36.511700 -20.543800
C -4.275500 -37.461100 -20.653900
H -3.156500 -39.160400 -19.084300
N -2.868000 -37.847700 -20.527600
H -2.818300 -38.044400 -23.271500
O -2.685500 -31.473400 -23.748300
H -2.570200 -33.835700 -24.306200
O -2.554100 -31.126700 -21.639000
N -2.549300 -31.861400 -22.609600
C -2.531400 -38.851700 -19.712400
C -2.430500 -34.160500 -23.445800
C -2.358500 -33.304700 -22.383300
H -2.325700 -36.110500 -23.939500
C -2.293500 -35.518400 -23.223100
N -2.202900 -38.330300 -22.766800
C -2.148200 -33.743500 -21.100500
C -2.108300 -36.004500 -21.935500
H -2.093900 -33.140400 -20.393700
O -2.040100 -40.252800 -23.918800
C -2.018800 -35.102800 -20.882600
C -1.934000 -37.478300 -21.613200
O -1.923900 -40.813100 -17.977000
H -1.870200 -35.417100 -20.019800
C -1.674300 -39.540400 -22.994400
C -1.351700 -39.509000 -19.789900
N -1.113300 -40.571000 -18.878700
H -0.823000 -40.952200 -21.755200
C -0.563500 -40.058400 -22.062600
C -0.496800 -37.719900 -21.157400
C -0.321900 -39.187300 -20.822100
H -0.316000 -37.179700 -20.403400
O -0.073400 -41.235400 -19.023800
H 0.097500 -37.485500 -21.770900
H 0.478300 -39.288900 -20.488100
N 0.683800 -40.199000 -22.890300
O 0.896300 -41.251700 -23.431300
O 1.432100 -39.231900 -22.966600
