39
Fragment
O -9.010200 -29.493900 -19.389300
O -8.474400 -31.513700 -18.924600
N -8.261900 -30.461000 -19.465500
H -8.056400 -29.550900 -21.867700
H -7.675600 -27.747500 -20.584900
O -7.504700 -31.497400 -23.332000
H -7.262100 -27.441700 -21.952400
C -7.256200 -29.449300 -21.533700
C -7.081300 -27.981900 -21.198500
C -7.014600 -30.320400 -20.293300
H -6.755000 -31.214200 -20.600700
N -6.464700 -30.833000 -23.477100
C -6.226400 -29.771000 -22.566000
C -5.903800 -29.802400 -19.361500
H -5.707800 -25.679100 -22.336100
O -5.654200 -31.075100 -24.378800
C -5.644100 -27.740300 -20.742600
C -5.559200 -25.364800 -21.473200
O -5.538000 -30.514800 -18.437000
H -5.484200 -23.402400 -21.962100
C -5.469800 -26.266500 -20.420400
C -5.429900 -24.005500 -21.255400
N -5.375200 -28.592300 -19.589100
C -5.284600 -25.780400 -19.132700
H -5.252400 -26.372500 -18.416300
C -5.219600 -23.566700 -19.972600
C -5.147600 -24.422500 -18.910100
C -5.046700 -29.113700 -22.643400
N -5.028800 -22.123400 -19.746300
O -5.024000 -21.388700 -20.716900
H -5.007900 -24.097700 -18.049600
O -4.892500 -21.735400 -18.607500
H -4.759800 -28.306400 -19.084300
N -4.710100 -28.109700 -21.828300
H -4.421600 -29.422400 -23.271500
C -3.302600 -27.723100 -21.701900
H -3.220400 -26.773700 -21.812100
H -2.979300 -27.973400 -20.833000
H -2.786100 -28.170100 -22.377200
39
Fragment
O -1.227200 -29.493900 -19.389300
O -0.691400 -31.513700 -18.924600
N -0.478900 -30.461000 -19.465500
H -0.273400 -29.550900 -21.867700
H 0.107400 -27.747500 -20.584900
O 0.278300 -31.497400 -23.332000
H 0.520900 -27.441700 -21.952400
C 0.526800 -29.449300 -21.533700
C 0.701700 -27.981900 -21.198500
C 0.768400 -30.320400 -20.293300
H 1.028000 -31.214200 -20.600700
N 1.318300 -30.833000 -23.477100
C 1.556600 -29.771000 -22.566000
C 1.879200 -29.802400 -19.361500
H 2.075200 -25.679100 -22.336100
O 2.128800 -31.075100 -24.378800
C 2.138900 -27.740300 -20.742600
C 2.223800 -25.364800 -21.473200
O 2.245000 -30.514800 -18.437000
H 2.298800 -23.402400 -21.962100
C 2.313200 -26.266500 -20.420400
C 2.353100 -24.005500 -21.255400
N 2.407800 -28.592300 -19.589100
C 2.498400 -25.780400 -19.132700
H 2.530600 -26.372500 -18.416300
C 2.563400 -23.566700 -19.972600
C 2.635400 -24.422500 -18.910100
C 2.736300 -29.113700 -22.643400
N 2.754200 -22.123400 -19.746300
O 2.759000 -21.388700 -20.716900
H 2.775100 -24.097700 -18.049600
O 2.890500 -21.735400 -18.607500
H 3.023200 -28.306400 -19.084300
N 3.072900 -28.109700 -21.828300
H 3.361400 -29.422400 -23.271500
C 4.480400 -27.723100 -21.701900
H 4.562600 -26.773700 -21.812100
H 4.803700 -27.973400 -20.833000
H 4.996900 -28.170100 -22.377200
78
Fragment
O -9.010200 -29.493900 -19.389300
O -8.474400 -31.513700 -18.924600
N -8.261900 -30.461000 -19.465500
H -8.056400 -29.550900 -21.867700
H -7.675600 -27.747500 -20.584900
O -7.504700 -31.497400 -23.332000
H -7.262100 -27.441700 -21.952400
C -7.256200 -29.449300 -21.533700
C -7.081300 -27.981900 -21.198500
C -7.014600 -30.320400 -20.293300
H -6.755000 -31.214200 -20.600700
N -6.464700 -30.833000 -23.477100
C -6.226400 -29.771000 -22.566000
C -5.903800 -29.802400 -19.361500
H -5.707800 -25.679100 -22.336100
O -5.654200 -31.075100 -24.378800
C -5.644100 -27.740300 -20.742600
C -5.559200 -25.364800 -21.473200
O -5.538000 -30.514800 -18.437000
H -5.484200 -23.402400 -21.962100
C -5.469800 -26.266500 -20.420400
C -5.429900 -24.005500 -21.255400
N -5.375200 -28.592300 -19.589100
C -5.284600 -25.780400 -19.132700
H -5.252400 -26.372500 -18.416300
C -5.219600 -23.566700 -19.972600
C -5.147600 -24.422500 -18.910100
C -5.046700 -29.113700 -22.643400
N -5.028800 -22.123400 -19.746300
O -5.024000 -21.388700 -20.716900
H -5.007900 -24.097700 -18.049600
O -4.892500 -21.735400 -18.607500
H -4.759800 -28.306400 -19.084300
N -4.710100 -28.109700 -21.828300
H -4.421600 -29.422400 -23.271500
C -3.302600 -27.723100 -21.701900
H -3.220400 -26.773700 -21.812100
H -2.979300 -27.973400 -20.833000
H -2.786100 -28.170100 -22.377200
O -1.227200 -29.493900 -19.389300
O -0.691400 -31.513700 -18.924600
N -0.478900 -30.461000 -19.465500
H -0.273400 -29.550900 -21.867700
H 0.107400 -27.747500 -20.584900
O 0.278300 -31.497400 -23.332000
H 0.520900 -27.441700 -21.952400
C 0.526800 -29.449300 -21.533700
C 0.701700 -27.981900 -21.198500
C 0.768400 -30.320400 -20.293300
H 1.028000 -31.214200 -20.600700
N 1.318300 -30.833000 -23.477100
C 1.556600 -29.771000 -22.566000
C 1.879200 -29.802400 -19.361500
H 2.075200 -25.679100 -22.336100
O 2.128800 -31.075100 -24.378800
C 2.138900 -27.740300 -20.742600
C 2.223800 -25.364800 -21.473200
O 2.245000 -30.514800 -18.437000
H 2.298800 -23.402400 -21.962100
C 2.313200 -26.266500 -20.420400
C 2.353100 -24.005500 -21.255400
N 2.407800 -28.592300 -19.589100
C 2.498400 -25.780400 -19.132700
H 2.530600 -26.372500 -18.416300
C 2.563400 -23.566700 -19.972600
C 2.635400 -24.422500 -18.910100
C 2.736300 -29.113700 -22.643400
N 2.754200 -22.123400 -19.746300
O 2.759000 -21.388700 -20.716900
H 2.775100 -24.097700 -18.049600
O 2.890500 -21.735400 -18.607500
H 3.023200 -28.306400 -19.084300
N 3.072900 -28.109700 -21.828300
H 3.361400 -29.422400 -23.271500
C 4.480400 -27.723100 -21.701900
H 4.562600 -26.773700 -21.812100
H 4.803700 -27.973400 -20.833000
H 4.996900 -28.170100 -22.377200
