39
Fragment
O -9.010200 -29.493900 -19.389300
O -8.474400 -31.513700 -18.924600
N -8.261900 -30.461000 -19.465500
H -8.056400 -29.550900 -21.867700
H -7.675600 -27.747500 -20.584900
O -7.504700 -31.497400 -23.332000
H -7.262100 -27.441700 -21.952400
C -7.256200 -29.449300 -21.533700
C -7.081300 -27.981900 -21.198500
C -7.014600 -30.320400 -20.293300
H -6.755000 -31.214200 -20.600700
N -6.464700 -30.833000 -23.477100
C -6.226400 -29.771000 -22.566000
C -5.903800 -29.802400 -19.361500
H -5.707800 -25.679100 -22.336100
O -5.654200 -31.075100 -24.378800
C -5.644100 -27.740300 -20.742600
C -5.559200 -25.364800 -21.473200
O -5.538000 -30.514800 -18.437000
H -5.484200 -23.402400 -21.962100
C -5.469800 -26.266500 -20.420400
C -5.429900 -24.005500 -21.255400
N -5.375200 -28.592300 -19.589100
C -5.284600 -25.780400 -19.132700
H -5.252400 -26.372500 -18.416300
C -5.219600 -23.566700 -19.972600
C -5.147600 -24.422500 -18.910100
C -5.046700 -29.113700 -22.643400
N -5.028800 -22.123400 -19.746300
O -5.024000 -21.388700 -20.716900
H -5.007900 -24.097700 -18.049600
O -4.892500 -21.735400 -18.607500
H -4.759800 -28.306400 -19.084300
N -4.710100 -28.109700 -21.828300
H -4.421600 -29.422400 -23.271500
C -3.302600 -27.723100 -21.701900
H -3.220400 -26.773700 -21.812100
H -2.979300 -27.973400 -20.833000
H -2.786100 -28.170100 -22.377200
39
Fragment
O -16.793200 -29.493900 -19.389300
O -16.257400 -31.513700 -18.924600
N -16.044900 -30.461000 -19.465500
H -15.839400 -29.550900 -21.867700
H -15.458600 -27.747500 -20.584900
O -15.287700 -31.497400 -23.332000
H -15.045100 -27.441700 -21.952400
C -15.039200 -29.449300 -21.533700
C -14.864300 -27.981900 -21.198500
C -14.797600 -30.320400 -20.293300
H -14.538000 -31.214200 -20.600700
N -14.247700 -30.833000 -23.477100
C -14.009400 -29.771000 -22.566000
C -13.686800 -29.802400 -19.361500
H -13.490800 -25.679100 -22.336100
O -13.437200 -31.075100 -24.378800
C -13.427100 -27.740300 -20.742600
C -13.342200 -25.364800 -21.473200
O -13.321000 -30.514800 -18.437000
H -13.267200 -23.402400 -21.962100
C -13.252800 -26.266500 -20.420400
C -13.212900 -24.005500 -21.255400
N -13.158200 -28.592300 -19.589100
C -13.067600 -25.780400 -19.132700
H -13.035400 -26.372500 -18.416300
C -13.002600 -23.566700 -19.972600
C -12.930600 -24.422500 -18.910100
C -12.829700 -29.113700 -22.643400
N -12.811800 -22.123400 -19.746300
O -12.807000 -21.388700 -20.716900
H -12.790900 -24.097700 -18.049600
O -12.675500 -21.735400 -18.607500
H -12.542800 -28.306400 -19.084300
N -12.493100 -28.109700 -21.828300
H -12.204600 -29.422400 -23.271500
C -11.085600 -27.723100 -21.701900
H -11.003400 -26.773700 -21.812100
H -10.762300 -27.973400 -20.833000
H -10.569100 -28.170100 -22.377200
78
Fragment
O -9.010200 -29.493900 -19.389300
O -8.474400 -31.513700 -18.924600
N -8.261900 -30.461000 -19.465500
H -8.056400 -29.550900 -21.867700
H -7.675600 -27.747500 -20.584900
O -7.504700 -31.497400 -23.332000
H -7.262100 -27.441700 -21.952400
C -7.256200 -29.449300 -21.533700
C -7.081300 -27.981900 -21.198500
C -7.014600 -30.320400 -20.293300
H -6.755000 -31.214200 -20.600700
N -6.464700 -30.833000 -23.477100
C -6.226400 -29.771000 -22.566000
C -5.903800 -29.802400 -19.361500
H -5.707800 -25.679100 -22.336100
O -5.654200 -31.075100 -24.378800
C -5.644100 -27.740300 -20.742600
C -5.559200 -25.364800 -21.473200
O -5.538000 -30.514800 -18.437000
H -5.484200 -23.402400 -21.962100
C -5.469800 -26.266500 -20.420400
C -5.429900 -24.005500 -21.255400
N -5.375200 -28.592300 -19.589100
C -5.284600 -25.780400 -19.132700
H -5.252400 -26.372500 -18.416300
C -5.219600 -23.566700 -19.972600
C -5.147600 -24.422500 -18.910100
C -5.046700 -29.113700 -22.643400
N -5.028800 -22.123400 -19.746300
O -5.024000 -21.388700 -20.716900
H -5.007900 -24.097700 -18.049600
O -4.892500 -21.735400 -18.607500
H -4.759800 -28.306400 -19.084300
N -4.710100 -28.109700 -21.828300
H -4.421600 -29.422400 -23.271500
C -3.302600 -27.723100 -21.701900
H -3.220400 -26.773700 -21.812100
H -2.979300 -27.973400 -20.833000
H -2.786100 -28.170100 -22.377200
O -16.793200 -29.493900 -19.389300
O -16.257400 -31.513700 -18.924600
N -16.044900 -30.461000 -19.465500
H -15.839400 -29.550900 -21.867700
H -15.458600 -27.747500 -20.584900
O -15.287700 -31.497400 -23.332000
H -15.045100 -27.441700 -21.952400
C -15.039200 -29.449300 -21.533700
C -14.864300 -27.981900 -21.198500
C -14.797600 -30.320400 -20.293300
H -14.538000 -31.214200 -20.600700
N -14.247700 -30.833000 -23.477100
C -14.009400 -29.771000 -22.566000
C -13.686800 -29.802400 -19.361500
H -13.490800 -25.679100 -22.336100
O -13.437200 -31.075100 -24.378800
C -13.427100 -27.740300 -20.742600
C -13.342200 -25.364800 -21.473200
O -13.321000 -30.514800 -18.437000
H -13.267200 -23.402400 -21.962100
C -13.252800 -26.266500 -20.420400
C -13.212900 -24.005500 -21.255400
N -13.158200 -28.592300 -19.589100
C -13.067600 -25.780400 -19.132700
H -13.035400 -26.372500 -18.416300
C -13.002600 -23.566700 -19.972600
C -12.930600 -24.422500 -18.910100
C -12.829700 -29.113700 -22.643400
N -12.811800 -22.123400 -19.746300
O -12.807000 -21.388700 -20.716900
H -12.790900 -24.097700 -18.049600
O -12.675500 -21.735400 -18.607500
H -12.542800 -28.306400 -19.084300
N -12.493100 -28.109700 -21.828300
H -12.204600 -29.422400 -23.271500
C -11.085600 -27.723100 -21.701900
H -11.003400 -26.773700 -21.812100
H -10.762300 -27.973400 -20.833000
H -10.569100 -28.170100 -22.377200
