39
Fragment
O -9.010200 -29.493900 -19.389300
O -8.474400 -31.513700 -18.924600
N -8.261900 -30.461000 -19.465500
H -8.056400 -29.550900 -21.867700
H -7.675600 -27.747500 -20.584900
O -7.504700 -31.497400 -23.332000
H -7.262100 -27.441700 -21.952400
C -7.256200 -29.449300 -21.533700
C -7.081300 -27.981900 -21.198500
C -7.014600 -30.320400 -20.293300
H -6.755000 -31.214200 -20.600700
N -6.464700 -30.833000 -23.477100
C -6.226400 -29.771000 -22.566000
C -5.903800 -29.802400 -19.361500
H -5.707800 -25.679100 -22.336100
O -5.654200 -31.075100 -24.378800
C -5.644100 -27.740300 -20.742600
C -5.559200 -25.364800 -21.473200
O -5.538000 -30.514800 -18.437000
H -5.484200 -23.402400 -21.962100
C -5.469800 -26.266500 -20.420400
C -5.429900 -24.005500 -21.255400
N -5.375200 -28.592300 -19.589100
C -5.284600 -25.780400 -19.132700
H -5.252400 -26.372500 -18.416300
C -5.219600 -23.566700 -19.972600
C -5.147600 -24.422500 -18.910100
C -5.046700 -29.113700 -22.643400
N -5.028800 -22.123400 -19.746300
O -5.024000 -21.388700 -20.716900
H -5.007900 -24.097700 -18.049600
O -4.892500 -21.735400 -18.607500
H -4.759800 -28.306400 -19.084300
N -4.710100 -28.109700 -21.828300
H -4.421600 -29.422400 -23.271500
C -3.302600 -27.723100 -21.701900
H -3.220400 -26.773700 -21.812100
H -2.979300 -27.973400 -20.833000
H -2.786100 -28.170100 -22.377200
39
Fragment
H -13.716100 -30.257900 -13.927800
H -13.522900 -30.454600 -15.472000
H -13.281800 -31.654300 -14.493000
C -13.199600 -30.704900 -14.603100
H -12.080600 -29.005600 -13.033500
N -11.792100 -30.318300 -14.476700
H -11.742400 -30.121600 -17.220700
O -11.609700 -36.692600 -17.697500
H -11.494300 -34.330300 -18.255400
O -11.478200 -37.039300 -15.588200
N -11.473400 -36.304600 -16.558700
C -11.455500 -29.314300 -13.661600
C -11.354600 -34.005500 -17.394900
C -11.282600 -34.861300 -16.332400
H -11.249800 -32.055500 -17.888700
C -11.217600 -32.647600 -17.172300
N -11.127000 -29.835700 -16.715900
C -11.072300 -34.422500 -15.049600
C -11.032400 -32.161500 -15.884700
H -11.018100 -35.025600 -14.342900
O -10.964200 -27.913200 -17.868000
C -10.943000 -33.063200 -14.831800
C -10.858100 -30.687700 -15.562400
O -10.848100 -27.352900 -11.926200
H -10.794400 -32.748900 -13.969000
C -10.598400 -28.625600 -16.943600
C -10.275800 -28.657000 -13.739000
N -10.037500 -27.595000 -12.827900
H -9.747200 -27.213800 -15.704300
C -9.487600 -28.107600 -16.011700
C -9.421000 -30.446100 -15.106500
C -9.246000 -28.978700 -14.771300
H -9.240100 -30.986300 -14.352600
O -8.997500 -26.930600 -12.973000
H -8.826600 -30.680500 -15.720100
H -8.445900 -28.877100 -14.437300
N -8.240300 -27.967000 -16.839500
O -8.027800 -26.914300 -17.380400
O -7.492000 -28.934100 -16.915700
78
Fragment
O -9.010200 -29.493900 -19.389300
O -8.474400 -31.513700 -18.924600
N -8.261900 -30.461000 -19.465500
H -8.056400 -29.550900 -21.867700
H -7.675600 -27.747500 -20.584900
O -7.504700 -31.497400 -23.332000
H -7.262100 -27.441700 -21.952400
C -7.256200 -29.449300 -21.533700
C -7.081300 -27.981900 -21.198500
C -7.014600 -30.320400 -20.293300
H -6.755000 -31.214200 -20.600700
N -6.464700 -30.833000 -23.477100
C -6.226400 -29.771000 -22.566000
C -5.903800 -29.802400 -19.361500
H -5.707800 -25.679100 -22.336100
O -5.654200 -31.075100 -24.378800
C -5.644100 -27.740300 -20.742600
C -5.559200 -25.364800 -21.473200
O -5.538000 -30.514800 -18.437000
H -5.484200 -23.402400 -21.962100
C -5.469800 -26.266500 -20.420400
C -5.429900 -24.005500 -21.255400
N -5.375200 -28.592300 -19.589100
C -5.284600 -25.780400 -19.132700
H -5.252400 -26.372500 -18.416300
C -5.219600 -23.566700 -19.972600
C -5.147600 -24.422500 -18.910100
C -5.046700 -29.113700 -22.643400
N -5.028800 -22.123400 -19.746300
O -5.024000 -21.388700 -20.716900
H -5.007900 -24.097700 -18.049600
O -4.892500 -21.735400 -18.607500
H -4.759800 -28.306400 -19.084300
N -4.710100 -28.109700 -21.828300
H -4.421600 -29.422400 -23.271500
C -3.302600 -27.723100 -21.701900
H -3.220400 -26.773700 -21.812100
H -2.979300 -27.973400 -20.833000
H -2.786100 -28.170100 -22.377200
H -13.716100 -30.257900 -13.927800
H -13.522900 -30.454600 -15.472000
H -13.281800 -31.654300 -14.493000
C -13.199600 -30.704900 -14.603100
H -12.080600 -29.005600 -13.033500
N -11.792100 -30.318300 -14.476700
H -11.742400 -30.121600 -17.220700
O -11.609700 -36.692600 -17.697500
H -11.494300 -34.330300 -18.255400
O -11.478200 -37.039300 -15.588200
N -11.473400 -36.304600 -16.558700
C -11.455500 -29.314300 -13.661600
C -11.354600 -34.005500 -17.394900
C -11.282600 -34.861300 -16.332400
H -11.249800 -32.055500 -17.888700
C -11.217600 -32.647600 -17.172300
N -11.127000 -29.835700 -16.715900
C -11.072300 -34.422500 -15.049600
C -11.032400 -32.161500 -15.884700
H -11.018100 -35.025600 -14.342900
O -10.964200 -27.913200 -17.868000
C -10.943000 -33.063200 -14.831800
C -10.858100 -30.687700 -15.562400
O -10.848100 -27.352900 -11.926200
H -10.794400 -32.748900 -13.969000
C -10.598400 -28.625600 -16.943600
C -10.275800 -28.657000 -13.739000
N -10.037500 -27.595000 -12.827900
H -9.747200 -27.213800 -15.704300
C -9.487600 -28.107600 -16.011700
C -9.421000 -30.446100 -15.106500
C -9.246000 -28.978700 -14.771300
H -9.240100 -30.986300 -14.352600
O -8.997500 -26.930600 -12.973000
H -8.826600 -30.680500 -15.720100
H -8.445900 -28.877100 -14.437300
N -8.240300 -27.967000 -16.839500
O -8.027800 -26.914300 -17.380400
O -7.492000 -28.934100 -16.915700
