21
Fragment
O -7.731600 -8.934500 -45.824800
H -7.703900 -10.998900 -43.752200
H -7.587800 -8.787200 -48.223600
C -7.197700 -9.722600 -46.582900
N -7.179300 -9.506800 -47.955200
C -6.742200 -11.126200 -43.745800
O -6.658400 -9.904300 -50.120200
C -6.608000 -10.266400 -48.954700
C -6.528000 -10.946400 -46.267400
H -6.507700 -11.785700 -43.074600
H -6.306400 -10.284600 -43.538500
N -6.302500 -11.592100 -45.062600
N -5.991300 -11.431900 -48.560300
C -5.967000 -11.747200 -47.222600
H -5.771800 -13.208000 -49.476700
C -5.637000 -12.705700 -45.344900
H -5.555900 -11.974600 -50.446800
N -5.406400 -12.840500 -46.653000
C -5.385400 -12.322000 -49.557200
H -5.359000 -13.328400 -44.697600
H -4.428500 -12.371400 -49.407200
21
Fragment
H -10.216700 -9.206100 -52.373900
H -9.286300 -10.163100 -57.083500
C -9.259900 -9.156700 -52.223900
N -9.238800 -9.675200 -55.128100
H -9.089400 -8.809300 -51.334300
C -9.008300 -9.540300 -56.436200
H -8.873500 -10.042700 -52.304400
C -8.678300 -8.581900 -54.558400
N -8.654000 -8.266600 -53.220800
N -8.342800 -8.426800 -56.718500
H -8.338900 -7.119200 -58.242600
H -8.137600 -8.620300 -58.706500
C -8.117300 -7.781000 -55.513700
C -8.037300 -7.101100 -52.826400
O -7.986800 -6.739000 -51.660900
C -7.903100 -7.960800 -58.035300
N -7.466000 -6.341400 -53.825900
C -7.447500 -6.557300 -55.198200
H -7.057500 -5.621900 -53.557500
H -6.941400 -7.833600 -58.028900
O -6.913700 -5.769100 -55.956300
42
Fragment
O -7.731600 -8.934500 -45.824800
H -7.703900 -10.998900 -43.752200
H -7.587800 -8.787200 -48.223600
C -7.197700 -9.722600 -46.582900
N -7.179300 -9.506800 -47.955200
C -6.742200 -11.126200 -43.745800
O -6.658400 -9.904300 -50.120200
C -6.608000 -10.266400 -48.954700
C -6.528000 -10.946400 -46.267400
H -6.507700 -11.785700 -43.074600
H -6.306400 -10.284600 -43.538500
N -6.302500 -11.592100 -45.062600
N -5.991300 -11.431900 -48.560300
C -5.967000 -11.747200 -47.222600
H -5.771800 -13.208000 -49.476700
C -5.637000 -12.705700 -45.344900
H -5.555900 -11.974600 -50.446800
N -5.406400 -12.840500 -46.653000
C -5.385400 -12.322000 -49.557200
H -5.359000 -13.328400 -44.697600
H -4.428500 -12.371400 -49.407200
H -10.216700 -9.206100 -52.373900
H -9.286300 -10.163100 -57.083500
C -9.259900 -9.156700 -52.223900
N -9.238800 -9.675200 -55.128100
H -9.089400 -8.809300 -51.334300
C -9.008300 -9.540300 -56.436200
H -8.873500 -10.042700 -52.304400
C -8.678300 -8.581900 -54.558400
N -8.654000 -8.266600 -53.220800
N -8.342800 -8.426800 -56.718500
H -8.338900 -7.119200 -58.242600
H -8.137600 -8.620300 -58.706500
C -8.117300 -7.781000 -55.513700
C -8.037300 -7.101100 -52.826400
O -7.986800 -6.739000 -51.660900
C -7.903100 -7.960800 -58.035300
N -7.466000 -6.341400 -53.825900
C -7.447500 -6.557300 -55.198200
H -7.057500 -5.621900 -53.557500
H -6.941400 -7.833600 -58.028900
O -6.913700 -5.769100 -55.956300
