21
Fragment
O -7.731600 -8.934500 -45.824800
H -7.703900 -10.998900 -43.752200
H -7.587800 -8.787200 -48.223600
C -7.197700 -9.722600 -46.582900
N -7.179300 -9.506800 -47.955200
C -6.742200 -11.126200 -43.745800
O -6.658400 -9.904300 -50.120200
C -6.608000 -10.266400 -48.954700
C -6.528000 -10.946400 -46.267400
H -6.507700 -11.785700 -43.074600
H -6.306400 -10.284600 -43.538500
N -6.302500 -11.592100 -45.062600
N -5.991300 -11.431900 -48.560300
C -5.967000 -11.747200 -47.222600
H -5.771800 -13.208000 -49.476700
C -5.637000 -12.705700 -45.344900
H -5.555900 -11.974600 -50.446800
N -5.406400 -12.840500 -46.653000
C -5.385400 -12.322000 -49.557200
H -5.359000 -13.328400 -44.697600
H -4.428500 -12.371400 -49.407200
18
Fragment
H -4.477700 -14.174900 -47.219400
O -4.089200 -14.776400 -47.639100
O -3.741100 -15.539900 -45.574400
C -3.566800 -15.631700 -46.793700
H -3.489900 -15.328300 -49.262900
O -3.085000 -15.922900 -49.676400
H -2.867600 -17.044900 -45.042800
C -2.787600 -16.718000 -47.399700
C -2.572600 -16.813000 -48.798800
O -2.395200 -17.696800 -45.244900
C -2.226800 -17.733500 -46.593900
C -1.844300 -17.853100 -49.340300
H -1.704400 -17.899300 -50.268800
C -1.505000 -18.781800 -47.132800
C -1.321400 -18.824900 -48.509700
H -1.145700 -19.451300 -46.579400
O -0.596500 -19.861200 -49.020700
H -0.488700 -19.748500 -49.835800
39
Fragment
O -7.731600 -8.934500 -45.824800
H -7.703900 -10.998900 -43.752200
H -7.587800 -8.787200 -48.223600
C -7.197700 -9.722600 -46.582900
N -7.179300 -9.506800 -47.955200
C -6.742200 -11.126200 -43.745800
O -6.658400 -9.904300 -50.120200
C -6.608000 -10.266400 -48.954700
C -6.528000 -10.946400 -46.267400
H -6.507700 -11.785700 -43.074600
H -6.306400 -10.284600 -43.538500
N -6.302500 -11.592100 -45.062600
N -5.991300 -11.431900 -48.560300
C -5.967000 -11.747200 -47.222600
H -5.771800 -13.208000 -49.476700
C -5.637000 -12.705700 -45.344900
H -5.555900 -11.974600 -50.446800
N -5.406400 -12.840500 -46.653000
C -5.385400 -12.322000 -49.557200
H -5.359000 -13.328400 -44.697600
H -4.428500 -12.371400 -49.407200
H -4.477700 -14.174900 -47.219400
O -4.089200 -14.776400 -47.639100
O -3.741100 -15.539900 -45.574400
C -3.566800 -15.631700 -46.793700
H -3.489900 -15.328300 -49.262900
O -3.085000 -15.922900 -49.676400
H -2.867600 -17.044900 -45.042800
C -2.787600 -16.718000 -47.399700
C -2.572600 -16.813000 -48.798800
O -2.395200 -17.696800 -45.244900
C -2.226800 -17.733500 -46.593900
C -1.844300 -17.853100 -49.340300
H -1.704400 -17.899300 -50.268800
C -1.505000 -18.781800 -47.132800
C -1.321400 -18.824900 -48.509700
H -1.145700 -19.451300 -46.579400
O -0.596500 -19.861200 -49.020700
H -0.488700 -19.748500 -49.835800
