21
Fragment
O -7.731600 -8.934500 -45.824800
H -7.703900 -10.998900 -43.752200
H -7.587800 -8.787200 -48.223600
C -7.197700 -9.722600 -46.582900
N -7.179300 -9.506800 -47.955200
C -6.742200 -11.126200 -43.745800
O -6.658400 -9.904300 -50.120200
C -6.608000 -10.266400 -48.954700
C -6.528000 -10.946400 -46.267400
H -6.507700 -11.785700 -43.074600
H -6.306400 -10.284600 -43.538500
N -6.302500 -11.592100 -45.062600
N -5.991300 -11.431900 -48.560300
C -5.967000 -11.747200 -47.222600
H -5.771800 -13.208000 -49.476700
C -5.637000 -12.705700 -45.344900
H -5.555900 -11.974600 -50.446800
N -5.406400 -12.840500 -46.653000
C -5.385400 -12.322000 -49.557200
H -5.359000 -13.328400 -44.697600
H -4.428500 -12.371400 -49.407200
18
Fragment
H -7.537100 -11.904800 -37.405100
O -7.429300 -11.792100 -38.220300
H -6.880000 -12.202000 -40.661500
C -6.704400 -12.828500 -38.731200
C -6.520800 -12.871500 -40.108100
H -6.321400 -13.754100 -36.972100
C -6.181500 -13.800200 -37.900700
C -5.799000 -13.919900 -40.647000
O -5.630600 -13.956600 -41.996000
C -5.453100 -14.840400 -38.442100
C -5.238200 -14.935300 -39.841200
H -5.158100 -14.608400 -42.198200
O -4.940800 -15.730400 -37.564500
H -4.535800 -16.325100 -37.978000
C -4.459000 -16.021700 -40.447200
O -4.284700 -16.113500 -41.666600
O -3.936600 -16.876900 -39.601900
H -3.548000 -17.478400 -40.021500
39
Fragment
O -7.731600 -8.934500 -45.824800
H -7.703900 -10.998900 -43.752200
H -7.587800 -8.787200 -48.223600
C -7.197700 -9.722600 -46.582900
N -7.179300 -9.506800 -47.955200
C -6.742200 -11.126200 -43.745800
O -6.658400 -9.904300 -50.120200
C -6.608000 -10.266400 -48.954700
C -6.528000 -10.946400 -46.267400
H -6.507700 -11.785700 -43.074600
H -6.306400 -10.284600 -43.538500
N -6.302500 -11.592100 -45.062600
N -5.991300 -11.431900 -48.560300
C -5.967000 -11.747200 -47.222600
H -5.771800 -13.208000 -49.476700
C -5.637000 -12.705700 -45.344900
H -5.555900 -11.974600 -50.446800
N -5.406400 -12.840500 -46.653000
C -5.385400 -12.322000 -49.557200
H -5.359000 -13.328400 -44.697600
H -4.428500 -12.371400 -49.407200
H -7.537100 -11.904800 -37.405100
O -7.429300 -11.792100 -38.220300
H -6.880000 -12.202000 -40.661500
C -6.704400 -12.828500 -38.731200
C -6.520800 -12.871500 -40.108100
H -6.321400 -13.754100 -36.972100
C -6.181500 -13.800200 -37.900700
C -5.799000 -13.919900 -40.647000
O -5.630600 -13.956600 -41.996000
C -5.453100 -14.840400 -38.442100
C -5.238200 -14.935300 -39.841200
H -5.158100 -14.608400 -42.198200
O -4.940800 -15.730400 -37.564500
H -4.535800 -16.325100 -37.978000
C -4.459000 -16.021700 -40.447200
O -4.284700 -16.113500 -41.666600
O -3.936600 -16.876900 -39.601900
H -3.548000 -17.478400 -40.021500
