21
Fragment
O -7.731600 -8.934500 -45.824800
H -7.703900 -10.998900 -43.752200
H -7.587800 -8.787200 -48.223600
C -7.197700 -9.722600 -46.582900
N -7.179300 -9.506800 -47.955200
C -6.742200 -11.126200 -43.745800
O -6.658400 -9.904300 -50.120200
C -6.608000 -10.266400 -48.954700
C -6.528000 -10.946400 -46.267400
H -6.507700 -11.785700 -43.074600
H -6.306400 -10.284600 -43.538500
N -6.302500 -11.592100 -45.062600
N -5.991300 -11.431900 -48.560300
C -5.967000 -11.747200 -47.222600
H -5.771800 -13.208000 -49.476700
C -5.637000 -12.705700 -45.344900
H -5.555900 -11.974600 -50.446800
N -5.406400 -12.840500 -46.653000
C -5.385400 -12.322000 -49.557200
H -5.359000 -13.328400 -44.697600
H -4.428500 -12.371400 -49.407200
21
Fragment
H -11.520000 -6.620600 -37.833800
H -10.589600 -5.663600 -42.543300
C -10.563200 -6.670000 -37.683700
N -10.542100 -6.151500 -40.588000
H -10.392700 -7.017400 -36.794200
C -10.311600 -6.286400 -41.896000
H -10.176800 -5.784000 -37.764300
C -9.981600 -7.244800 -40.018300
N -9.957300 -7.560100 -38.680600
N -9.646100 -7.399900 -42.178400
H -9.642200 -8.707500 -43.702500
H -9.440900 -7.206300 -44.166300
C -9.420600 -8.045600 -40.973600
C -9.340600 -8.725600 -38.286300
O -9.290200 -9.087700 -37.120700
C -9.206400 -7.865900 -43.495100
N -8.769300 -9.485200 -39.285800
C -8.750800 -9.269400 -40.658100
H -8.360800 -10.204800 -39.017300
H -8.244700 -7.993100 -43.488700
O -8.217000 -10.057500 -41.416200
42
Fragment
O -7.731600 -8.934500 -45.824800
H -7.703900 -10.998900 -43.752200
H -7.587800 -8.787200 -48.223600
C -7.197700 -9.722600 -46.582900
N -7.179300 -9.506800 -47.955200
C -6.742200 -11.126200 -43.745800
O -6.658400 -9.904300 -50.120200
C -6.608000 -10.266400 -48.954700
C -6.528000 -10.946400 -46.267400
H -6.507700 -11.785700 -43.074600
H -6.306400 -10.284600 -43.538500
N -6.302500 -11.592100 -45.062600
N -5.991300 -11.431900 -48.560300
C -5.967000 -11.747200 -47.222600
H -5.771800 -13.208000 -49.476700
C -5.637000 -12.705700 -45.344900
H -5.555900 -11.974600 -50.446800
N -5.406400 -12.840500 -46.653000
C -5.385400 -12.322000 -49.557200
H -5.359000 -13.328400 -44.697600
H -4.428500 -12.371400 -49.407200
H -11.520000 -6.620600 -37.833800
H -10.589600 -5.663600 -42.543300
C -10.563200 -6.670000 -37.683700
N -10.542100 -6.151500 -40.588000
H -10.392700 -7.017400 -36.794200
C -10.311600 -6.286400 -41.896000
H -10.176800 -5.784000 -37.764300
C -9.981600 -7.244800 -40.018300
N -9.957300 -7.560100 -38.680600
N -9.646100 -7.399900 -42.178400
H -9.642200 -8.707500 -43.702500
H -9.440900 -7.206300 -44.166300
C -9.420600 -8.045600 -40.973600
C -9.340600 -8.725600 -38.286300
O -9.290200 -9.087700 -37.120700
C -9.206400 -7.865900 -43.495100
N -8.769300 -9.485200 -39.285800
C -8.750800 -9.269400 -40.658100
H -8.360800 -10.204800 -39.017300
H -8.244700 -7.993100 -43.488700
O -8.217000 -10.057500 -41.416200
