37
Fragment
H -4.276300 -10.996600 -15.320200
H -4.260000 -9.551600 -15.546000
H -3.922500 -10.302200 -14.188100
C -3.796500 -10.178400 -15.047800
H -2.839100 -11.330100 -17.113600
O -2.672400 -8.402400 -17.558600
N -2.397100 -10.247200 -15.469100
C -2.182600 -9.493700 -17.833800
C -2.132900 -10.648700 -16.838400
H -1.925800 -9.061300 -20.874100
H -1.862300 -7.974100 -19.769600
O -1.700300 -9.704700 -13.406200
N -1.629600 -9.776800 -19.019000
C -1.473200 -8.799500 -20.083700
C -1.435100 -9.934600 -14.586700
H -1.260000 -7.262900 -15.812600
H -1.244300 -11.066900 -16.923800
H -1.244100 -10.602400 -19.152800
H -0.400800 -7.465700 -18.165000
C -0.277500 -7.410500 -15.555500
H -0.190400 -7.399900 -14.583800
C -0.022700 -8.592300 -20.507900
C 0.015000 -9.837500 -15.070600
N 0.158900 -8.737100 -16.023300
H 0.290300 -10.649900 -15.506100
H 0.297900 -6.700600 -15.935100
O 0.303200 -8.825900 -21.666500
C 0.516300 -7.789300 -18.233300
H 0.597300 -9.649000 -14.249800
C 0.648900 -8.954300 -17.256900
N 0.864400 -8.135600 -19.593100
O 1.116800 -10.037300 -17.603200
H 1.130500 -7.071700 -17.925900
C 2.263900 -7.950200 -19.967000
H 2.442700 -8.179500 -20.927300
H 2.512300 -7.043400 -19.803800
H 2.851000 -8.534400 -19.401400
37
Fragment
H -9.604700 -13.439500 -18.555000
H -9.266000 -14.930400 -18.152700
H -9.196400 -13.794400 -17.029200
C -9.017600 -14.023700 -17.989400
H -7.884200 -14.902200 -20.030600
O -7.870500 -11.936500 -20.353200
N -7.618100 -13.838300 -18.363300
C -7.402600 -13.019600 -20.699500
H -7.351100 -12.324900 -23.706600
C -7.270000 -14.184600 -19.723100
O -7.056900 -13.148000 -16.289900
H -7.051600 -15.273200 -22.021400
H -7.044000 -11.324000 -22.450300
N -6.912600 -13.236700 -21.933100
C -6.768700 -12.136300 -22.885800
C -6.731000 -13.381600 -17.448600
H -6.563300 -14.574000 -23.372600
C -6.476200 -14.563300 -22.400900
H -6.352900 -14.508100 -19.791400
H -5.509600 -11.371500 -18.803600
H -5.509400 -10.907000 -21.032600
H -5.493700 -14.711000 -22.143800
C -5.318600 -12.039300 -23.369800
C -5.280500 -13.174400 -17.872700
N -5.124100 -12.197100 -18.937400
O -5.053400 -12.269200 -24.550200
H -4.891400 -13.999800 -18.186800
H -4.827900 -12.912500 -17.082300
C -4.620800 -11.325200 -21.118000
C -4.571100 -12.480200 -20.122600
N -4.356600 -11.726700 -22.487300
O -4.081300 -13.571500 -20.397800
H -3.914600 -10.643800 -20.842800
C -2.957200 -11.795500 -22.908600
H -2.831200 -11.671700 -23.768300
H -2.493700 -12.422200 -22.410400
H -2.477400 -10.977300 -22.636300
74
Fragment
H -4.276300 -10.996600 -15.320200
H -4.260000 -9.551600 -15.546000
H -3.922500 -10.302200 -14.188100
C -3.796500 -10.178400 -15.047800
H -2.839100 -11.330100 -17.113600
O -2.672400 -8.402400 -17.558600
N -2.397100 -10.247200 -15.469100
C -2.182600 -9.493700 -17.833800
C -2.132900 -10.648700 -16.838400
H -1.925800 -9.061300 -20.874100
H -1.862300 -7.974100 -19.769600
O -1.700300 -9.704700 -13.406200
N -1.629600 -9.776800 -19.019000
C -1.473200 -8.799500 -20.083700
C -1.435100 -9.934600 -14.586700
H -1.260000 -7.262900 -15.812600
H -1.244300 -11.066900 -16.923800
H -1.244100 -10.602400 -19.152800
H -0.400800 -7.465700 -18.165000
C -0.277500 -7.410500 -15.555500
H -0.190400 -7.399900 -14.583800
C -0.022700 -8.592300 -20.507900
C 0.015000 -9.837500 -15.070600
N 0.158900 -8.737100 -16.023300
H 0.290300 -10.649900 -15.506100
H 0.297900 -6.700600 -15.935100
O 0.303200 -8.825900 -21.666500
C 0.516300 -7.789300 -18.233300
H 0.597300 -9.649000 -14.249800
C 0.648900 -8.954300 -17.256900
N 0.864400 -8.135600 -19.593100
O 1.116800 -10.037300 -17.603200
H 1.130500 -7.071700 -17.925900
C 2.263900 -7.950200 -19.967000
H 2.442700 -8.179500 -20.927300
H 2.512300 -7.043400 -19.803800
H 2.851000 -8.534400 -19.401400
H -9.604700 -13.439500 -18.555000
H -9.266000 -14.930400 -18.152700
H -9.196400 -13.794400 -17.029200
C -9.017600 -14.023700 -17.989400
H -7.884200 -14.902200 -20.030600
O -7.870500 -11.936500 -20.353200
N -7.618100 -13.838300 -18.363300
C -7.402600 -13.019600 -20.699500
H -7.351100 -12.324900 -23.706600
C -7.270000 -14.184600 -19.723100
O -7.056900 -13.148000 -16.289900
H -7.051600 -15.273200 -22.021400
H -7.044000 -11.324000 -22.450300
N -6.912600 -13.236700 -21.933100
C -6.768700 -12.136300 -22.885800
C -6.731000 -13.381600 -17.448600
H -6.563300 -14.574000 -23.372600
C -6.476200 -14.563300 -22.400900
H -6.352900 -14.508100 -19.791400
H -5.509600 -11.371500 -18.803600
H -5.509400 -10.907000 -21.032600
H -5.493700 -14.711000 -22.143800
C -5.318600 -12.039300 -23.369800
C -5.280500 -13.174400 -17.872700
N -5.124100 -12.197100 -18.937400
O -5.053400 -12.269200 -24.550200
H -4.891400 -13.999800 -18.186800
H -4.827900 -12.912500 -17.082300
C -4.620800 -11.325200 -21.118000
C -4.571100 -12.480200 -20.122600
N -4.356600 -11.726700 -22.487300
O -4.081300 -13.571500 -20.397800
H -3.914600 -10.643800 -20.842800
C -2.957200 -11.795500 -22.908600
H -2.831200 -11.671700 -23.768300
H -2.493700 -12.422200 -22.410400
H -2.477400 -10.977300 -22.636300
