37
Fragment
H -4.276300 -10.996600 -15.320200
H -4.260000 -9.551600 -15.546000
H -3.922500 -10.302200 -14.188100
C -3.796500 -10.178400 -15.047800
H -2.839100 -11.330100 -17.113600
O -2.672400 -8.402400 -17.558600
N -2.397100 -10.247200 -15.469100
C -2.182600 -9.493700 -17.833800
C -2.132900 -10.648700 -16.838400
H -1.925800 -9.061300 -20.874100
H -1.862300 -7.974100 -19.769600
O -1.700300 -9.704700 -13.406200
N -1.629600 -9.776800 -19.019000
C -1.473200 -8.799500 -20.083700
C -1.435100 -9.934600 -14.586700
H -1.260000 -7.262900 -15.812600
H -1.244300 -11.066900 -16.923800
H -1.244100 -10.602400 -19.152800
H -0.400800 -7.465700 -18.165000
C -0.277500 -7.410500 -15.555500
H -0.190400 -7.399900 -14.583800
C -0.022700 -8.592300 -20.507900
C 0.015000 -9.837500 -15.070600
N 0.158900 -8.737100 -16.023300
H 0.290300 -10.649900 -15.506100
H 0.297900 -6.700600 -15.935100
O 0.303200 -8.825900 -21.666500
C 0.516300 -7.789300 -18.233300
H 0.597300 -9.649000 -14.249800
C 0.648900 -8.954300 -17.256900
N 0.864400 -8.135600 -19.593100
O 1.116800 -10.037300 -17.603200
H 1.130500 -7.071700 -17.925900
C 2.263900 -7.950200 -19.967000
H 2.442700 -8.179500 -20.927300
H 2.512300 -7.043400 -19.803800
H 2.851000 -8.534400 -19.401400
37
Fragment
H -0.488500 -5.579300 -9.065900
H -0.149700 -7.070300 -8.663600
H -0.080100 -5.934200 -7.540000
C 0.098700 -6.163600 -8.500300
H 1.232100 -7.042000 -10.541400
O 1.245700 -4.076400 -10.864100
N 1.498200 -5.978100 -8.874200
C 1.713600 -5.159400 -11.210400
H 1.765200 -4.464800 -14.217500
C 1.846300 -6.324400 -10.234000
O 2.059400 -5.287800 -6.800800
H 2.064700 -7.413100 -12.532300
H 2.072300 -3.463800 -12.961200
N 2.203600 -5.376600 -12.444000
C 2.347600 -4.276200 -13.396700
C 2.385200 -5.521500 -7.959500
H 2.553000 -6.713800 -13.883500
C 2.640000 -6.703200 -12.911800
H 2.763300 -6.648000 -10.302300
H 3.606700 -3.511400 -9.314500
H 3.606800 -3.046900 -11.543500
H 3.622500 -6.850900 -12.654700
C 3.797600 -4.179100 -13.880700
C 3.835700 -5.314300 -8.383600
N 3.992200 -4.336900 -9.448300
O 4.062900 -4.409000 -15.061100
H 4.224800 -6.139600 -8.697700
H 4.288400 -5.052400 -7.593200
C 4.495500 -3.465000 -11.628900
C 4.545100 -4.620000 -10.633500
N 4.759600 -3.866500 -12.998200
O 5.035000 -5.711300 -10.908700
H 5.201600 -2.783600 -11.353700
C 6.159100 -3.935300 -13.419500
H 6.285000 -3.811500 -14.279200
H 6.622600 -4.562100 -12.921300
H 6.638800 -3.117100 -13.147200
74
Fragment
H -4.276300 -10.996600 -15.320200
H -4.260000 -9.551600 -15.546000
H -3.922500 -10.302200 -14.188100
C -3.796500 -10.178400 -15.047800
H -2.839100 -11.330100 -17.113600
O -2.672400 -8.402400 -17.558600
N -2.397100 -10.247200 -15.469100
C -2.182600 -9.493700 -17.833800
C -2.132900 -10.648700 -16.838400
H -1.925800 -9.061300 -20.874100
H -1.862300 -7.974100 -19.769600
O -1.700300 -9.704700 -13.406200
N -1.629600 -9.776800 -19.019000
C -1.473200 -8.799500 -20.083700
C -1.435100 -9.934600 -14.586700
H -1.260000 -7.262900 -15.812600
H -1.244300 -11.066900 -16.923800
H -1.244100 -10.602400 -19.152800
H -0.400800 -7.465700 -18.165000
C -0.277500 -7.410500 -15.555500
H -0.190400 -7.399900 -14.583800
C -0.022700 -8.592300 -20.507900
C 0.015000 -9.837500 -15.070600
N 0.158900 -8.737100 -16.023300
H 0.290300 -10.649900 -15.506100
H 0.297900 -6.700600 -15.935100
O 0.303200 -8.825900 -21.666500
C 0.516300 -7.789300 -18.233300
H 0.597300 -9.649000 -14.249800
C 0.648900 -8.954300 -17.256900
N 0.864400 -8.135600 -19.593100
O 1.116800 -10.037300 -17.603200
H 1.130500 -7.071700 -17.925900
C 2.263900 -7.950200 -19.967000
H 2.442700 -8.179500 -20.927300
H 2.512300 -7.043400 -19.803800
H 2.851000 -8.534400 -19.401400
H -0.488500 -5.579300 -9.065900
H -0.149700 -7.070300 -8.663600
H -0.080100 -5.934200 -7.540000
C 0.098700 -6.163600 -8.500300
H 1.232100 -7.042000 -10.541400
O 1.245700 -4.076400 -10.864100
N 1.498200 -5.978100 -8.874200
C 1.713600 -5.159400 -11.210400
H 1.765200 -4.464800 -14.217500
C 1.846300 -6.324400 -10.234000
O 2.059400 -5.287800 -6.800800
H 2.064700 -7.413100 -12.532300
H 2.072300 -3.463800 -12.961200
N 2.203600 -5.376600 -12.444000
C 2.347600 -4.276200 -13.396700
C 2.385200 -5.521500 -7.959500
H 2.553000 -6.713800 -13.883500
C 2.640000 -6.703200 -12.911800
H 2.763300 -6.648000 -10.302300
H 3.606700 -3.511400 -9.314500
H 3.606800 -3.046900 -11.543500
H 3.622500 -6.850900 -12.654700
C 3.797600 -4.179100 -13.880700
C 3.835700 -5.314300 -8.383600
N 3.992200 -4.336900 -9.448300
O 4.062900 -4.409000 -15.061100
H 4.224800 -6.139600 -8.697700
H 4.288400 -5.052400 -7.593200
C 4.495500 -3.465000 -11.628900
C 4.545100 -4.620000 -10.633500
N 4.759600 -3.866500 -12.998200
O 5.035000 -5.711300 -10.908700
H 5.201600 -2.783600 -11.353700
C 6.159100 -3.935300 -13.419500
H 6.285000 -3.811500 -14.279200
H 6.622600 -4.562100 -12.921300
H 6.638800 -3.117100 -13.147200
