37
Fragment
H -4.276300 -10.996600 -15.320200
H -4.260000 -9.551600 -15.546000
H -3.922500 -10.302200 -14.188100
C -3.796500 -10.178400 -15.047800
H -2.839100 -11.330100 -17.113600
O -2.672400 -8.402400 -17.558600
N -2.397100 -10.247200 -15.469100
C -2.182600 -9.493700 -17.833800
C -2.132900 -10.648700 -16.838400
H -1.925800 -9.061300 -20.874100
H -1.862300 -7.974100 -19.769600
O -1.700300 -9.704700 -13.406200
N -1.629600 -9.776800 -19.019000
C -1.473200 -8.799500 -20.083700
C -1.435100 -9.934600 -14.586700
H -1.260000 -7.262900 -15.812600
H -1.244300 -11.066900 -16.923800
H -1.244100 -10.602400 -19.152800
H -0.400800 -7.465700 -18.165000
C -0.277500 -7.410500 -15.555500
H -0.190400 -7.399900 -14.583800
C -0.022700 -8.592300 -20.507900
C 0.015000 -9.837500 -15.070600
N 0.158900 -8.737100 -16.023300
H 0.290300 -10.649900 -15.506100
H 0.297900 -6.700600 -15.935100
O 0.303200 -8.825900 -21.666500
C 0.516300 -7.789300 -18.233300
H 0.597300 -9.649000 -14.249800
C 0.648900 -8.954300 -17.256900
N 0.864400 -8.135600 -19.593100
O 1.116800 -10.037300 -17.603200
H 1.130500 -7.071700 -17.925900
C 2.263900 -7.950200 -19.967000
H 2.442700 -8.179500 -20.927300
H 2.512300 -7.043400 -19.803800
H 2.851000 -8.534400 -19.401400
37
Fragment
H -2.231400 -3.972700 -18.555000
H -1.892700 -5.463700 -18.152700
H -1.823100 -4.327600 -17.029200
C -1.644300 -4.557000 -17.989400
H -0.510900 -5.435500 -20.030600
O -0.497200 -2.469800 -20.353200
N -0.244800 -4.371600 -18.363300
C -0.029300 -3.552900 -20.699500
H 0.022200 -2.858200 -23.706600
C 0.103300 -4.717900 -19.723100
O 0.316400 -3.681300 -16.289900
H 0.321700 -5.806500 -22.021400
H 0.329300 -1.857300 -22.450300
N 0.460700 -3.770000 -21.933100
C 0.604600 -2.669600 -22.885800
C 0.642300 -3.914900 -17.448600
H 0.810000 -5.107200 -23.372600
C 0.897100 -5.096600 -22.400900
H 1.020400 -5.041400 -19.791400
H 1.863700 -1.904800 -18.803600
H 1.863900 -1.440300 -21.032600
H 1.879600 -5.244300 -22.143800
C 2.054700 -2.572500 -23.369800
C 2.092800 -3.707700 -17.872700
N 2.249200 -2.730300 -18.937400
O 2.319900 -2.802500 -24.550200
H 2.481900 -4.533000 -18.186800
H 2.545400 -3.445800 -17.082300
C 2.752500 -1.858500 -21.118000
C 2.802200 -3.013400 -20.122600
N 3.016600 -2.260000 -22.487300
O 3.292000 -4.104700 -20.397800
H 3.458700 -1.177100 -20.842800
C 4.416100 -2.328700 -22.908600
H 4.542100 -2.205000 -23.768300
H 4.879600 -2.955500 -22.410400
H 4.895900 -1.510500 -22.636300
74
Fragment
H -4.276300 -10.996600 -15.320200
H -4.260000 -9.551600 -15.546000
H -3.922500 -10.302200 -14.188100
C -3.796500 -10.178400 -15.047800
H -2.839100 -11.330100 -17.113600
O -2.672400 -8.402400 -17.558600
N -2.397100 -10.247200 -15.469100
C -2.182600 -9.493700 -17.833800
C -2.132900 -10.648700 -16.838400
H -1.925800 -9.061300 -20.874100
H -1.862300 -7.974100 -19.769600
O -1.700300 -9.704700 -13.406200
N -1.629600 -9.776800 -19.019000
C -1.473200 -8.799500 -20.083700
C -1.435100 -9.934600 -14.586700
H -1.260000 -7.262900 -15.812600
H -1.244300 -11.066900 -16.923800
H -1.244100 -10.602400 -19.152800
H -0.400800 -7.465700 -18.165000
C -0.277500 -7.410500 -15.555500
H -0.190400 -7.399900 -14.583800
C -0.022700 -8.592300 -20.507900
C 0.015000 -9.837500 -15.070600
N 0.158900 -8.737100 -16.023300
H 0.290300 -10.649900 -15.506100
H 0.297900 -6.700600 -15.935100
O 0.303200 -8.825900 -21.666500
C 0.516300 -7.789300 -18.233300
H 0.597300 -9.649000 -14.249800
C 0.648900 -8.954300 -17.256900
N 0.864400 -8.135600 -19.593100
O 1.116800 -10.037300 -17.603200
H 1.130500 -7.071700 -17.925900
C 2.263900 -7.950200 -19.967000
H 2.442700 -8.179500 -20.927300
H 2.512300 -7.043400 -19.803800
H 2.851000 -8.534400 -19.401400
H -2.231400 -3.972700 -18.555000
H -1.892700 -5.463700 -18.152700
H -1.823100 -4.327600 -17.029200
C -1.644300 -4.557000 -17.989400
H -0.510900 -5.435500 -20.030600
O -0.497200 -2.469800 -20.353200
N -0.244800 -4.371600 -18.363300
C -0.029300 -3.552900 -20.699500
H 0.022200 -2.858200 -23.706600
C 0.103300 -4.717900 -19.723100
O 0.316400 -3.681300 -16.289900
H 0.321700 -5.806500 -22.021400
H 0.329300 -1.857300 -22.450300
N 0.460700 -3.770000 -21.933100
C 0.604600 -2.669600 -22.885800
C 0.642300 -3.914900 -17.448600
H 0.810000 -5.107200 -23.372600
C 0.897100 -5.096600 -22.400900
H 1.020400 -5.041400 -19.791400
H 1.863700 -1.904800 -18.803600
H 1.863900 -1.440300 -21.032600
H 1.879600 -5.244300 -22.143800
C 2.054700 -2.572500 -23.369800
C 2.092800 -3.707700 -17.872700
N 2.249200 -2.730300 -18.937400
O 2.319900 -2.802500 -24.550200
H 2.481900 -4.533000 -18.186800
H 2.545400 -3.445800 -17.082300
C 2.752500 -1.858500 -21.118000
C 2.802200 -3.013400 -20.122600
N 3.016600 -2.260000 -22.487300
O 3.292000 -4.104700 -20.397800
H 3.458700 -1.177100 -20.842800
C 4.416100 -2.328700 -22.908600
H 4.542100 -2.205000 -23.768300
H 4.879600 -2.955500 -22.410400
H 4.895900 -1.510500 -22.636300
