18
Fragment
O -11.763200 -12.146900 -23.860800
O -11.671600 -13.593500 -28.360100
H -11.397200 -12.955900 -26.028500
N -10.662800 -12.612300 -23.602100
N -10.596800 -14.151500 -28.199700
C -10.567100 -13.408300 -25.876800
O -10.127500 -12.450800 -22.510500
O -10.024400 -14.756100 -29.091300
C -9.967000 -14.103300 -26.890800
C -9.966400 -13.364600 -24.628200
C -8.768100 -14.776000 -26.677000
C -8.739400 -14.019800 -24.359200
H -8.413100 -13.667000 -22.607000
H -8.360700 -15.272000 -27.389200
C -8.181800 -14.724800 -25.454300
N -8.099400 -14.022100 -23.200300
H -7.373500 -14.502000 -23.150300
H -7.353800 -15.187800 -25.326700
44
Fragment
H -8.115300 -10.058900 -25.504300
H -7.560900 -11.468800 -25.102500
H -7.499900 -11.315700 -27.372000
H -7.478500 -9.437400 -23.221000
C -7.339100 -10.619200 -25.490500
C -6.850900 -10.818900 -26.871800
H -6.743300 -10.796700 -22.964000
H -6.721400 -7.892000 -29.355200
C -6.656000 -9.915800 -23.334800
O -6.642300 -9.553000 -27.492700
H -6.540900 -10.226500 -29.329300
O -6.331900 -10.000000 -24.719600
H -6.026700 -11.306500 -26.851200
C -6.010700 -9.673900 -28.753300
C -5.866400 -8.323000 -29.351700
H -5.716500 -9.168000 -21.703400
H -5.673100 -5.677700 -28.912000
C -5.551600 -9.180200 -22.650200
H -5.549100 -8.413300 -30.252000
N -5.468500 -7.810100 -23.139900
H -5.253300 -7.471800 -27.791000
H -5.250000 -5.236900 -23.095100
H -5.146600 -10.071100 -28.641200
H -5.143300 -7.836200 -23.945300
N -4.928100 -7.497900 -28.596400
H -4.847500 -6.894700 -21.484400
C -4.845100 -6.127800 -29.086200
H -4.723500 -9.630300 -22.824300
H -4.680100 -6.140000 -30.032900
C -4.530200 -6.985000 -22.384600
C -4.385900 -5.634100 -22.983000
H -4.369900 -4.001500 -24.885200
O -4.064800 -5.308000 -27.016700
H -3.855800 -5.081500 -22.407000
O -3.754300 -5.755000 -24.243600
C -3.740600 -5.392200 -28.401500
H -3.675300 -7.416000 -22.381100
H -3.653300 -4.511300 -28.772300
C -3.545800 -4.489100 -24.864500
C -3.057600 -4.688800 -26.245800
H -2.918100 -5.870600 -28.515300
H -2.896700 -3.992300 -24.364400
H -2.835700 -3.839200 -26.633900
H -2.281300 -5.249100 -26.232000
62
Fragment
O -11.763200 -12.146900 -23.860800
O -11.671600 -13.593500 -28.360100
H -11.397200 -12.955900 -26.028500
N -10.662800 -12.612300 -23.602100
N -10.596800 -14.151500 -28.199700
C -10.567100 -13.408300 -25.876800
O -10.127500 -12.450800 -22.510500
O -10.024400 -14.756100 -29.091300
C -9.967000 -14.103300 -26.890800
C -9.966400 -13.364600 -24.628200
C -8.768100 -14.776000 -26.677000
C -8.739400 -14.019800 -24.359200
H -8.413100 -13.667000 -22.607000
H -8.360700 -15.272000 -27.389200
C -8.181800 -14.724800 -25.454300
N -8.099400 -14.022100 -23.200300
H -7.373500 -14.502000 -23.150300
H -7.353800 -15.187800 -25.326700
H -8.115300 -10.058900 -25.504300
H -7.560900 -11.468800 -25.102500
H -7.499900 -11.315700 -27.372000
H -7.478500 -9.437400 -23.221000
C -7.339100 -10.619200 -25.490500
C -6.850900 -10.818900 -26.871800
H -6.743300 -10.796700 -22.964000
H -6.721400 -7.892000 -29.355200
C -6.656000 -9.915800 -23.334800
O -6.642300 -9.553000 -27.492700
H -6.540900 -10.226500 -29.329300
O -6.331900 -10.000000 -24.719600
H -6.026700 -11.306500 -26.851200
C -6.010700 -9.673900 -28.753300
C -5.866400 -8.323000 -29.351700
H -5.716500 -9.168000 -21.703400
H -5.673100 -5.677700 -28.912000
C -5.551600 -9.180200 -22.650200
H -5.549100 -8.413300 -30.252000
N -5.468500 -7.810100 -23.139900
H -5.253300 -7.471800 -27.791000
H -5.250000 -5.236900 -23.095100
H -5.146600 -10.071100 -28.641200
H -5.143300 -7.836200 -23.945300
N -4.928100 -7.497900 -28.596400
H -4.847500 -6.894700 -21.484400
C -4.845100 -6.127800 -29.086200
H -4.723500 -9.630300 -22.824300
H -4.680100 -6.140000 -30.032900
C -4.530200 -6.985000 -22.384600
C -4.385900 -5.634100 -22.983000
H -4.369900 -4.001500 -24.885200
O -4.064800 -5.308000 -27.016700
H -3.855800 -5.081500 -22.407000
O -3.754300 -5.755000 -24.243600
C -3.740600 -5.392200 -28.401500
H -3.675300 -7.416000 -22.381100
H -3.653300 -4.511300 -28.772300
C -3.545800 -4.489100 -24.864500
C -3.057600 -4.688800 -26.245800
H -2.918100 -5.870600 -28.515300
H -2.896700 -3.992300 -24.364400
H -2.835700 -3.839200 -26.633900
H -2.281300 -5.249100 -26.232000
