18
Fragment
O -11.763200 -12.146900 -23.860800
O -11.671600 -13.593500 -28.360100
H -11.397200 -12.955900 -26.028500
N -10.662800 -12.612300 -23.602100
N -10.596800 -14.151500 -28.199700
C -10.567100 -13.408300 -25.876800
O -10.127500 -12.450800 -22.510500
O -10.024400 -14.756100 -29.091300
C -9.967000 -14.103300 -26.890800
C -9.966400 -13.364600 -24.628200
C -8.768100 -14.776000 -26.677000
C -8.739400 -14.019800 -24.359200
H -8.413100 -13.667000 -22.607000
H -8.360700 -15.272000 -27.389200
C -8.181800 -14.724800 -25.454300
N -8.099400 -14.022100 -23.200300
H -7.373500 -14.502000 -23.150300
H -7.353800 -15.187800 -25.326700
18
Fragment
O -15.418100 -14.642100 -32.483500
O -15.326600 -13.195500 -36.982800
H -15.052200 -13.833100 -34.651300
N -14.317800 -14.176700 -32.224800
N -14.251800 -12.637500 -36.822500
C -14.222100 -13.380700 -34.499500
O -13.782400 -14.338200 -31.133200
O -13.679400 -12.032900 -37.714100
C -13.622000 -12.685700 -35.513500
C -13.621300 -13.424400 -33.250900
C -12.423000 -12.013000 -35.299700
C -12.394400 -12.769200 -32.981900
H -12.068000 -13.122000 -31.229800
H -12.015600 -11.517000 -36.011900
C -11.836700 -12.064200 -34.077000
N -11.754400 -12.766900 -31.823000
H -11.028500 -12.287000 -31.773000
H -11.008700 -11.601200 -33.949400
36
Fragment
O -11.763200 -12.146900 -23.860800
O -11.671600 -13.593500 -28.360100
H -11.397200 -12.955900 -26.028500
N -10.662800 -12.612300 -23.602100
N -10.596800 -14.151500 -28.199700
C -10.567100 -13.408300 -25.876800
O -10.127500 -12.450800 -22.510500
O -10.024400 -14.756100 -29.091300
C -9.967000 -14.103300 -26.890800
C -9.966400 -13.364600 -24.628200
C -8.768100 -14.776000 -26.677000
C -8.739400 -14.019800 -24.359200
H -8.413100 -13.667000 -22.607000
H -8.360700 -15.272000 -27.389200
C -8.181800 -14.724800 -25.454300
N -8.099400 -14.022100 -23.200300
H -7.373500 -14.502000 -23.150300
H -7.353800 -15.187800 -25.326700
O -15.418100 -14.642100 -32.483500
O -15.326600 -13.195500 -36.982800
H -15.052200 -13.833100 -34.651300
N -14.317800 -14.176700 -32.224800
N -14.251800 -12.637500 -36.822500
C -14.222100 -13.380700 -34.499500
O -13.782400 -14.338200 -31.133200
O -13.679400 -12.032900 -37.714100
C -13.622000 -12.685700 -35.513500
C -13.621300 -13.424400 -33.250900
C -12.423000 -12.013000 -35.299700
C -12.394400 -12.769200 -32.981900
H -12.068000 -13.122000 -31.229800
H -12.015600 -11.517000 -36.011900
C -11.836700 -12.064200 -34.077000
N -11.754400 -12.766900 -31.823000
H -11.028500 -12.287000 -31.773000
H -11.008700 -11.601200 -33.949400
