18
Fragment
O -11.763200 -12.146900 -23.860800
O -11.671600 -13.593500 -28.360100
H -11.397200 -12.955900 -26.028500
N -10.662800 -12.612300 -23.602100
N -10.596800 -14.151500 -28.199700
C -10.567100 -13.408300 -25.876800
O -10.127500 -12.450800 -22.510500
O -10.024400 -14.756100 -29.091300
C -9.967000 -14.103300 -26.890800
C -9.966400 -13.364600 -24.628200
C -8.768100 -14.776000 -26.677000
C -8.739400 -14.019800 -24.359200
H -8.413100 -13.667000 -22.607000
H -8.360700 -15.272000 -27.389200
C -8.181800 -14.724800 -25.454300
N -8.099400 -14.022100 -23.200300
H -7.373500 -14.502000 -23.150300
H -7.353800 -15.187800 -25.326700
18
Fragment
O -8.108200 -14.642100 -15.238100
O -8.016700 -13.195500 -19.737400
H -7.742300 -13.833100 -17.405800
N -7.007900 -14.176700 -14.979400
N -6.941900 -12.637500 -19.577000
C -6.912200 -13.380700 -17.254100
O -6.472500 -14.338200 -13.887800
O -6.369500 -12.032900 -20.468600
C -6.312100 -12.685700 -18.268100
C -6.311400 -13.424400 -16.005500
C -5.113100 -12.013000 -18.054300
C -5.084500 -12.769200 -15.736500
H -4.758100 -13.122000 -13.984300
H -4.705800 -11.517000 -18.766500
C -4.526800 -12.064200 -16.831600
N -4.444500 -12.766900 -14.577600
H -3.718600 -12.287000 -14.527600
H -3.698900 -11.601200 -16.703900
36
Fragment
O -11.763200 -12.146900 -23.860800
O -11.671600 -13.593500 -28.360100
H -11.397200 -12.955900 -26.028500
N -10.662800 -12.612300 -23.602100
N -10.596800 -14.151500 -28.199700
C -10.567100 -13.408300 -25.876800
O -10.127500 -12.450800 -22.510500
O -10.024400 -14.756100 -29.091300
C -9.967000 -14.103300 -26.890800
C -9.966400 -13.364600 -24.628200
C -8.768100 -14.776000 -26.677000
C -8.739400 -14.019800 -24.359200
H -8.413100 -13.667000 -22.607000
H -8.360700 -15.272000 -27.389200
C -8.181800 -14.724800 -25.454300
N -8.099400 -14.022100 -23.200300
H -7.373500 -14.502000 -23.150300
H -7.353800 -15.187800 -25.326700
O -8.108200 -14.642100 -15.238100
O -8.016700 -13.195500 -19.737400
H -7.742300 -13.833100 -17.405800
N -7.007900 -14.176700 -14.979400
N -6.941900 -12.637500 -19.577000
C -6.912200 -13.380700 -17.254100
O -6.472500 -14.338200 -13.887800
O -6.369500 -12.032900 -20.468600
C -6.312100 -12.685700 -18.268100
C -6.311400 -13.424400 -16.005500
C -5.113100 -12.013000 -18.054300
C -5.084500 -12.769200 -15.736500
H -4.758100 -13.122000 -13.984300
H -4.705800 -11.517000 -18.766500
C -4.526800 -12.064200 -16.831600
N -4.444500 -12.766900 -14.577600
H -3.718600 -12.287000 -14.527600
H -3.698900 -11.601200 -16.703900
