18
Fragment
O -11.763200 -12.146900 -23.860800
O -11.671600 -13.593500 -28.360100
H -11.397200 -12.955900 -26.028500
N -10.662800 -12.612300 -23.602100
N -10.596800 -14.151500 -28.199700
C -10.567100 -13.408300 -25.876800
O -10.127500 -12.450800 -22.510500
O -10.024400 -14.756100 -29.091300
C -9.967000 -14.103300 -26.890800
C -9.966400 -13.364600 -24.628200
C -8.768100 -14.776000 -26.677000
C -8.739400 -14.019800 -24.359200
H -8.413100 -13.667000 -22.607000
H -8.360700 -15.272000 -27.389200
C -8.181800 -14.724800 -25.454300
N -8.099400 -14.022100 -23.200300
H -7.373500 -14.502000 -23.150300
H -7.353800 -15.187800 -25.326700
44
Fragment
H -11.770300 -16.730100 -34.127000
H -11.215900 -15.320200 -33.725200
H -11.154900 -15.473300 -35.994700
H -11.133400 -17.351600 -31.843700
C -10.994000 -16.169800 -34.113200
C -10.505800 -15.970100 -35.494600
H -10.398300 -15.992300 -31.586800
H -10.376300 -18.897000 -37.977900
C -10.310900 -16.873200 -31.957500
O -10.297300 -17.236000 -36.115400
H -10.195800 -16.562500 -37.952000
O -9.986800 -16.789000 -33.342300
H -9.681600 -15.482500 -35.473900
C -9.665600 -17.115100 -37.376000
C -9.521400 -18.466000 -37.974500
H -9.371500 -17.621000 -30.326100
H -9.328100 -21.111300 -37.534700
C -9.206500 -17.608800 -31.272900
H -9.204100 -18.375700 -38.874700
N -9.123500 -18.978900 -31.762700
H -8.908300 -19.317200 -36.413800
H -8.904900 -21.552100 -31.717800
H -8.801600 -16.717900 -37.264000
H -8.798200 -18.952800 -32.568000
N -8.583000 -19.291100 -37.219100
H -8.502400 -19.894300 -30.107100
C -8.500000 -20.661200 -37.708900
H -8.378400 -17.158700 -31.447100
H -8.335100 -20.649000 -38.655700
C -8.185100 -19.804000 -31.007300
C -8.040900 -21.154900 -31.605700
H -8.024900 -22.787500 -33.507900
O -7.719700 -21.481000 -35.639400
H -7.510700 -21.707500 -31.029700
O -7.409300 -21.034000 -32.866400
C -7.395600 -21.396800 -37.024200
H -7.330200 -19.373000 -31.003900
H -7.308200 -22.277700 -37.395000
C -7.200700 -22.299900 -33.487200
C -6.712500 -22.100200 -34.868600
H -6.573100 -20.918400 -37.138100
H -6.551600 -22.796700 -32.987100
H -6.490600 -22.949800 -35.256600
H -5.936300 -21.539900 -34.854800
62
Fragment
O -11.763200 -12.146900 -23.860800
O -11.671600 -13.593500 -28.360100
H -11.397200 -12.955900 -26.028500
N -10.662800 -12.612300 -23.602100
N -10.596800 -14.151500 -28.199700
C -10.567100 -13.408300 -25.876800
O -10.127500 -12.450800 -22.510500
O -10.024400 -14.756100 -29.091300
C -9.967000 -14.103300 -26.890800
C -9.966400 -13.364600 -24.628200
C -8.768100 -14.776000 -26.677000
C -8.739400 -14.019800 -24.359200
H -8.413100 -13.667000 -22.607000
H -8.360700 -15.272000 -27.389200
C -8.181800 -14.724800 -25.454300
N -8.099400 -14.022100 -23.200300
H -7.373500 -14.502000 -23.150300
H -7.353800 -15.187800 -25.326700
H -11.770300 -16.730100 -34.127000
H -11.215900 -15.320200 -33.725200
H -11.154900 -15.473300 -35.994700
H -11.133400 -17.351600 -31.843700
C -10.994000 -16.169800 -34.113200
C -10.505800 -15.970100 -35.494600
H -10.398300 -15.992300 -31.586800
H -10.376300 -18.897000 -37.977900
C -10.310900 -16.873200 -31.957500
O -10.297300 -17.236000 -36.115400
H -10.195800 -16.562500 -37.952000
O -9.986800 -16.789000 -33.342300
H -9.681600 -15.482500 -35.473900
C -9.665600 -17.115100 -37.376000
C -9.521400 -18.466000 -37.974500
H -9.371500 -17.621000 -30.326100
H -9.328100 -21.111300 -37.534700
C -9.206500 -17.608800 -31.272900
H -9.204100 -18.375700 -38.874700
N -9.123500 -18.978900 -31.762700
H -8.908300 -19.317200 -36.413800
H -8.904900 -21.552100 -31.717800
H -8.801600 -16.717900 -37.264000
H -8.798200 -18.952800 -32.568000
N -8.583000 -19.291100 -37.219100
H -8.502400 -19.894300 -30.107100
C -8.500000 -20.661200 -37.708900
H -8.378400 -17.158700 -31.447100
H -8.335100 -20.649000 -38.655700
C -8.185100 -19.804000 -31.007300
C -8.040900 -21.154900 -31.605700
H -8.024900 -22.787500 -33.507900
O -7.719700 -21.481000 -35.639400
H -7.510700 -21.707500 -31.029700
O -7.409300 -21.034000 -32.866400
C -7.395600 -21.396800 -37.024200
H -7.330200 -19.373000 -31.003900
H -7.308200 -22.277700 -37.395000
C -7.200700 -22.299900 -33.487200
C -6.712500 -22.100200 -34.868600
H -6.573100 -20.918400 -37.138100
H -6.551600 -22.796700 -32.987100
H -6.490600 -22.949800 -35.256600
H -5.936300 -21.539900 -34.854800
