18
Fragment
O -11.763200 -12.146900 -23.860800
O -11.671600 -13.593500 -28.360100
H -11.397200 -12.955900 -26.028500
N -10.662800 -12.612300 -23.602100
N -10.596800 -14.151500 -28.199700
C -10.567100 -13.408300 -25.876800
O -10.127500 -12.450800 -22.510500
O -10.024400 -14.756100 -29.091300
C -9.967000 -14.103300 -26.890800
C -9.966400 -13.364600 -24.628200
C -8.768100 -14.776000 -26.677000
C -8.739400 -14.019800 -24.359200
H -8.413100 -13.667000 -22.607000
H -8.360700 -15.272000 -27.389200
C -8.181800 -14.724800 -25.454300
N -8.099400 -14.022100 -23.200300
H -7.373500 -14.502000 -23.150300
H -7.353800 -15.187800 -25.326700
44
Fragment
H -8.115300 -17.712900 -25.504300
H -7.560900 -19.122800 -25.102500
H -7.499900 -18.969700 -27.372000
H -7.478500 -17.091400 -23.221000
C -7.339100 -18.273200 -25.490500
C -6.850900 -18.472900 -26.871800
H -6.743300 -18.450700 -22.964000
H -6.721400 -15.546000 -29.355200
C -6.656000 -17.569800 -23.334800
O -6.642300 -17.207000 -27.492700
H -6.540900 -17.880500 -29.329300
O -6.331900 -17.654000 -24.719600
H -6.026700 -18.960500 -26.851200
C -6.010700 -17.327900 -28.753300
C -5.866400 -15.977000 -29.351700
H -5.716500 -16.822000 -21.703400
H -5.673100 -13.331700 -28.912000
C -5.551600 -16.834200 -22.650200
H -5.549100 -16.067300 -30.252000
N -5.468500 -15.464100 -23.139900
H -5.253300 -15.125800 -27.791000
H -5.250000 -12.890900 -23.095100
H -5.146600 -17.725100 -28.641200
H -5.143300 -15.490200 -23.945300
N -4.928100 -15.151900 -28.596400
H -4.847500 -14.548700 -21.484400
C -4.845100 -13.781800 -29.086200
H -4.723500 -17.284300 -22.824300
H -4.680100 -13.794000 -30.032900
C -4.530200 -14.639000 -22.384600
C -4.385900 -13.288100 -22.983000
H -4.369900 -11.655500 -24.885200
O -4.064800 -12.962000 -27.016700
H -3.855800 -12.735500 -22.407000
O -3.754300 -13.409000 -24.243600
C -3.740600 -13.046200 -28.401500
H -3.675300 -15.070000 -22.381100
H -3.653300 -12.165300 -28.772300
C -3.545800 -12.143100 -24.864500
C -3.057600 -12.342800 -26.245800
H -2.918100 -13.524600 -28.515300
H -2.896700 -11.646300 -24.364400
H -2.835700 -11.493200 -26.633900
H -2.281300 -12.903100 -26.232000
62
Fragment
O -11.763200 -12.146900 -23.860800
O -11.671600 -13.593500 -28.360100
H -11.397200 -12.955900 -26.028500
N -10.662800 -12.612300 -23.602100
N -10.596800 -14.151500 -28.199700
C -10.567100 -13.408300 -25.876800
O -10.127500 -12.450800 -22.510500
O -10.024400 -14.756100 -29.091300
C -9.967000 -14.103300 -26.890800
C -9.966400 -13.364600 -24.628200
C -8.768100 -14.776000 -26.677000
C -8.739400 -14.019800 -24.359200
H -8.413100 -13.667000 -22.607000
H -8.360700 -15.272000 -27.389200
C -8.181800 -14.724800 -25.454300
N -8.099400 -14.022100 -23.200300
H -7.373500 -14.502000 -23.150300
H -7.353800 -15.187800 -25.326700
H -8.115300 -17.712900 -25.504300
H -7.560900 -19.122800 -25.102500
H -7.499900 -18.969700 -27.372000
H -7.478500 -17.091400 -23.221000
C -7.339100 -18.273200 -25.490500
C -6.850900 -18.472900 -26.871800
H -6.743300 -18.450700 -22.964000
H -6.721400 -15.546000 -29.355200
C -6.656000 -17.569800 -23.334800
O -6.642300 -17.207000 -27.492700
H -6.540900 -17.880500 -29.329300
O -6.331900 -17.654000 -24.719600
H -6.026700 -18.960500 -26.851200
C -6.010700 -17.327900 -28.753300
C -5.866400 -15.977000 -29.351700
H -5.716500 -16.822000 -21.703400
H -5.673100 -13.331700 -28.912000
C -5.551600 -16.834200 -22.650200
H -5.549100 -16.067300 -30.252000
N -5.468500 -15.464100 -23.139900
H -5.253300 -15.125800 -27.791000
H -5.250000 -12.890900 -23.095100
H -5.146600 -17.725100 -28.641200
H -5.143300 -15.490200 -23.945300
N -4.928100 -15.151900 -28.596400
H -4.847500 -14.548700 -21.484400
C -4.845100 -13.781800 -29.086200
H -4.723500 -17.284300 -22.824300
H -4.680100 -13.794000 -30.032900
C -4.530200 -14.639000 -22.384600
C -4.385900 -13.288100 -22.983000
H -4.369900 -11.655500 -24.885200
O -4.064800 -12.962000 -27.016700
H -3.855800 -12.735500 -22.407000
O -3.754300 -13.409000 -24.243600
C -3.740600 -13.046200 -28.401500
H -3.675300 -15.070000 -22.381100
H -3.653300 -12.165300 -28.772300
C -3.545800 -12.143100 -24.864500
C -3.057600 -12.342800 -26.245800
H -2.918100 -13.524600 -28.515300
H -2.896700 -11.646300 -24.364400
H -2.835700 -11.493200 -26.633900
H -2.281300 -12.903100 -26.232000
