18
Fragment
O -11.763200 -12.146900 -23.860800
O -11.671600 -13.593500 -28.360100
H -11.397200 -12.955900 -26.028500
N -10.662800 -12.612300 -23.602100
N -10.596800 -14.151500 -28.199700
C -10.567100 -13.408300 -25.876800
O -10.127500 -12.450800 -22.510500
O -10.024400 -14.756100 -29.091300
C -9.967000 -14.103300 -26.890800
C -9.966400 -13.364600 -24.628200
C -8.768100 -14.776000 -26.677000
C -8.739400 -14.019800 -24.359200
H -8.413100 -13.667000 -22.607000
H -8.360700 -15.272000 -27.389200
C -8.181800 -14.724800 -25.454300
N -8.099400 -14.022100 -23.200300
H -7.373500 -14.502000 -23.150300
H -7.353800 -15.187800 -25.326700
18
Fragment
H -10.920900 -19.014800 -17.786900
H -10.901100 -18.329000 -19.963300
N -10.175300 -17.849100 -19.913300
C -10.092900 -18.551800 -17.659300
H -9.914000 -19.099000 -15.724400
H -9.861600 -17.494000 -20.506600
C -9.535300 -17.846800 -18.754400
C -9.506600 -18.603000 -16.436600
C -8.308300 -17.191600 -18.485400
C -8.307600 -17.930300 -16.222800
O -8.250300 -18.583100 -14.022300
O -8.147200 -16.277800 -20.603100
C -7.707600 -17.235300 -17.236800
N -7.677900 -17.978500 -14.913900
N -7.611900 -16.439300 -19.511500
H -6.877500 -16.782900 -17.085100
O -6.603000 -17.420500 -14.753500
O -6.511500 -15.973900 -19.252800
36
Fragment
O -11.763200 -12.146900 -23.860800
O -11.671600 -13.593500 -28.360100
H -11.397200 -12.955900 -26.028500
N -10.662800 -12.612300 -23.602100
N -10.596800 -14.151500 -28.199700
C -10.567100 -13.408300 -25.876800
O -10.127500 -12.450800 -22.510500
O -10.024400 -14.756100 -29.091300
C -9.967000 -14.103300 -26.890800
C -9.966400 -13.364600 -24.628200
C -8.768100 -14.776000 -26.677000
C -8.739400 -14.019800 -24.359200
H -8.413100 -13.667000 -22.607000
H -8.360700 -15.272000 -27.389200
C -8.181800 -14.724800 -25.454300
N -8.099400 -14.022100 -23.200300
H -7.373500 -14.502000 -23.150300
H -7.353800 -15.187800 -25.326700
H -10.920900 -19.014800 -17.786900
H -10.901100 -18.329000 -19.963300
N -10.175300 -17.849100 -19.913300
C -10.092900 -18.551800 -17.659300
H -9.914000 -19.099000 -15.724400
H -9.861600 -17.494000 -20.506600
C -9.535300 -17.846800 -18.754400
C -9.506600 -18.603000 -16.436600
C -8.308300 -17.191600 -18.485400
C -8.307600 -17.930300 -16.222800
O -8.250300 -18.583100 -14.022300
O -8.147200 -16.277800 -20.603100
C -7.707600 -17.235300 -17.236800
N -7.677900 -17.978500 -14.913900
N -7.611900 -16.439300 -19.511500
H -6.877500 -16.782900 -17.085100
O -6.603000 -17.420500 -14.753500
O -6.511500 -15.973900 -19.252800
