41
Fragment
O -30.959600 -13.138800 -21.383600
O -30.857400 -14.711800 -22.876400
N -30.326800 -13.756600 -22.263200
H -29.399100 -10.930700 -23.015100
H -29.238600 -9.426100 -21.005300
C -29.042600 -13.343300 -22.476600
N -28.929500 -10.966700 -22.271400
C -28.609800 -12.142100 -21.773500
O -28.609000 -14.704000 -24.278300
C -28.527500 -9.722600 -21.627100
H -28.405100 -9.018200 -22.312600
N -28.262000 -13.780900 -23.539600
H -28.088000 -10.774900 -19.269600
N -27.903400 -12.230100 -20.673600
H -27.704900 -13.022700 -20.346800
C -27.437200 -11.018900 -19.974500
N -27.287600 -9.912000 -20.896600
O -27.179700 -13.176700 -23.682300
H -26.568300 -11.204600 -19.538700
H -26.349900 -10.629300 -22.557600
C -26.130400 -10.035700 -21.796700
N -25.803400 -8.694400 -22.279600
H -25.616300 -9.287000 -24.185600
H -25.468700 -7.986300 -20.437700
H -25.358100 -10.421300 -21.310500
H -25.211200 -7.754500 -23.948100
C -25.153700 -8.666500 -23.568300
H -25.085700 -6.953400 -21.601500
C -25.056000 -7.905800 -21.334300
N -23.738600 -9.060500 -23.442500
N -23.654800 -8.355500 -21.271400
H -23.326500 -9.407100 -24.138700
H -23.196000 -8.255500 -20.527300
C -23.082400 -8.907500 -22.328900
O -22.403600 -11.416400 -21.910400
C -21.681400 -9.333600 -22.246800
N -21.406300 -10.674900 -22.058000
O -21.157500 -7.197200 -22.595900
N -20.716900 -8.374800 -22.449300
O -20.244300 -11.108200 -22.010700
O -19.511400 -8.608600 -22.458900
41
Fragment
O -23.947000 -12.183600 -25.422000
O -23.214100 -14.683200 -25.870200
N -22.741600 -11.949800 -25.431600
O -22.300900 -10.772200 -25.284900
N -22.052200 -14.250000 -25.822800
C -21.777000 -12.908600 -25.634000
O -21.054900 -14.991400 -25.970400
C -20.376000 -12.482500 -25.552000
H -20.262400 -11.830500 -27.353500
H -20.131900 -12.982100 -23.742200
N -19.803600 -11.930500 -26.609400
N -19.719900 -12.635500 -24.438400
C -18.402500 -11.480800 -26.546500
H -18.372800 -10.528400 -26.279300
C -18.304700 -12.241500 -24.312500
H -18.247200 -11.329500 -23.932800
H -18.100300 -13.996300 -26.570300
H -17.989700 -11.561300 -27.443100
H -17.842200 -12.862000 -23.695300
N -17.655000 -12.269400 -25.601200
C -17.328000 -13.610700 -26.084100
H -17.108600 -14.204300 -25.323200
H -16.890100 -14.779600 -28.342200
O -16.278700 -16.751700 -24.198600
N -16.170800 -13.487000 -26.984300
C -16.021200 -14.593900 -27.906300
H -15.753600 -16.597700 -27.534100
N -15.555000 -15.805100 -27.207300
H -15.370400 -14.349900 -28.611300
N -15.196500 -17.355900 -24.341300
H -15.053300 -12.593200 -25.568200
C -14.930900 -13.297600 -26.253800
O -14.849500 -18.279000 -23.602500
C -14.848700 -15.717100 -26.107400
N -14.528900 -14.541700 -25.609400
C -14.415900 -16.918300 -25.404200
H -14.219800 -13.001100 -26.875500
H -14.059300 -14.505700 -24.865800
N -13.131700 -17.331600 -25.617600
O -12.601000 -18.286800 -25.004500
O -12.498800 -16.713800 -26.497300
82
Fragment
O -30.959600 -13.138800 -21.383600
O -30.857400 -14.711800 -22.876400
N -30.326800 -13.756600 -22.263200
H -29.399100 -10.930700 -23.015100
H -29.238600 -9.426100 -21.005300
C -29.042600 -13.343300 -22.476600
N -28.929500 -10.966700 -22.271400
C -28.609800 -12.142100 -21.773500
O -28.609000 -14.704000 -24.278300
C -28.527500 -9.722600 -21.627100
H -28.405100 -9.018200 -22.312600
N -28.262000 -13.780900 -23.539600
H -28.088000 -10.774900 -19.269600
N -27.903400 -12.230100 -20.673600
H -27.704900 -13.022700 -20.346800
C -27.437200 -11.018900 -19.974500
N -27.287600 -9.912000 -20.896600
O -27.179700 -13.176700 -23.682300
H -26.568300 -11.204600 -19.538700
H -26.349900 -10.629300 -22.557600
C -26.130400 -10.035700 -21.796700
N -25.803400 -8.694400 -22.279600
H -25.616300 -9.287000 -24.185600
H -25.468700 -7.986300 -20.437700
H -25.358100 -10.421300 -21.310500
H -25.211200 -7.754500 -23.948100
C -25.153700 -8.666500 -23.568300
H -25.085700 -6.953400 -21.601500
C -25.056000 -7.905800 -21.334300
N -23.738600 -9.060500 -23.442500
N -23.654800 -8.355500 -21.271400
H -23.326500 -9.407100 -24.138700
H -23.196000 -8.255500 -20.527300
C -23.082400 -8.907500 -22.328900
O -22.403600 -11.416400 -21.910400
C -21.681400 -9.333600 -22.246800
N -21.406300 -10.674900 -22.058000
O -21.157500 -7.197200 -22.595900
N -20.716900 -8.374800 -22.449300
O -20.244300 -11.108200 -22.010700
O -19.511400 -8.608600 -22.458900
O -23.947000 -12.183600 -25.422000
O -23.214100 -14.683200 -25.870200
N -22.741600 -11.949800 -25.431600
O -22.300900 -10.772200 -25.284900
N -22.052200 -14.250000 -25.822800
C -21.777000 -12.908600 -25.634000
O -21.054900 -14.991400 -25.970400
C -20.376000 -12.482500 -25.552000
H -20.262400 -11.830500 -27.353500
H -20.131900 -12.982100 -23.742200
N -19.803600 -11.930500 -26.609400
N -19.719900 -12.635500 -24.438400
C -18.402500 -11.480800 -26.546500
H -18.372800 -10.528400 -26.279300
C -18.304700 -12.241500 -24.312500
H -18.247200 -11.329500 -23.932800
H -18.100300 -13.996300 -26.570300
H -17.989700 -11.561300 -27.443100
H -17.842200 -12.862000 -23.695300
N -17.655000 -12.269400 -25.601200
C -17.328000 -13.610700 -26.084100
H -17.108600 -14.204300 -25.323200
H -16.890100 -14.779600 -28.342200
O -16.278700 -16.751700 -24.198600
N -16.170800 -13.487000 -26.984300
C -16.021200 -14.593900 -27.906300
H -15.753600 -16.597700 -27.534100
N -15.555000 -15.805100 -27.207300
H -15.370400 -14.349900 -28.611300
N -15.196500 -17.355900 -24.341300
H -15.053300 -12.593200 -25.568200
C -14.930900 -13.297600 -26.253800
O -14.849500 -18.279000 -23.602500
C -14.848700 -15.717100 -26.107400
N -14.528900 -14.541700 -25.609400
C -14.415900 -16.918300 -25.404200
H -14.219800 -13.001100 -26.875500
H -14.059300 -14.505700 -24.865800
N -13.131700 -17.331600 -25.617600
O -12.601000 -18.286800 -25.004500
O -12.498800 -16.713800 -26.497300
