41
Fragment
O -30.959600 -13.138800 -21.383600
O -30.857400 -14.711800 -22.876400
N -30.326800 -13.756600 -22.263200
H -29.399100 -10.930700 -23.015100
H -29.238600 -9.426100 -21.005300
C -29.042600 -13.343300 -22.476600
N -28.929500 -10.966700 -22.271400
C -28.609800 -12.142100 -21.773500
O -28.609000 -14.704000 -24.278300
C -28.527500 -9.722600 -21.627100
H -28.405100 -9.018200 -22.312600
N -28.262000 -13.780900 -23.539600
H -28.088000 -10.774900 -19.269600
N -27.903400 -12.230100 -20.673600
H -27.704900 -13.022700 -20.346800
C -27.437200 -11.018900 -19.974500
N -27.287600 -9.912000 -20.896600
O -27.179700 -13.176700 -23.682300
H -26.568300 -11.204600 -19.538700
H -26.349900 -10.629300 -22.557600
C -26.130400 -10.035700 -21.796700
N -25.803400 -8.694400 -22.279600
H -25.616300 -9.287000 -24.185600
H -25.468700 -7.986300 -20.437700
H -25.358100 -10.421300 -21.310500
H -25.211200 -7.754500 -23.948100
C -25.153700 -8.666500 -23.568300
H -25.085700 -6.953400 -21.601500
C -25.056000 -7.905800 -21.334300
N -23.738600 -9.060500 -23.442500
N -23.654800 -8.355500 -21.271400
H -23.326500 -9.407100 -24.138700
H -23.196000 -8.255500 -20.527300
C -23.082400 -8.907500 -22.328900
O -22.403600 -11.416400 -21.910400
C -21.681400 -9.333600 -22.246800
N -21.406300 -10.674900 -22.058000
O -21.157500 -7.197200 -22.595900
N -20.716900 -8.374800 -22.449300
O -20.244300 -11.108200 -22.010700
O -19.511400 -8.608600 -22.458900
41
Fragment
O -40.985000 -5.033600 -25.422000
O -40.252100 -7.533200 -25.870200
N -39.779600 -4.799800 -25.431600
O -39.338900 -3.622200 -25.284900
N -39.090200 -7.099900 -25.822800
C -38.815000 -5.758600 -25.634000
O -38.092900 -7.841400 -25.970400
C -37.414000 -5.332500 -25.552000
H -37.300400 -4.680500 -27.353500
H -37.169900 -5.832100 -23.742200
N -36.841600 -4.780500 -26.609400
N -36.757900 -5.485500 -24.438400
C -35.440500 -4.330800 -26.546500
H -35.410800 -3.378400 -26.279300
C -35.342700 -5.091500 -24.312500
H -35.285200 -4.179500 -23.932800
H -35.138300 -6.846300 -26.570300
H -35.027700 -4.411300 -27.443100
H -34.880200 -5.712000 -23.695300
N -34.693000 -5.119400 -25.601200
C -34.366000 -6.460700 -26.084100
H -34.146600 -7.054300 -25.323200
H -33.928100 -7.629600 -28.342200
O -33.316700 -9.601700 -24.198600
N -33.208800 -6.337000 -26.984300
C -33.059200 -7.443900 -27.906300
H -32.791600 -9.447700 -27.534100
N -32.593000 -8.655100 -27.207300
H -32.408400 -7.199900 -28.611300
N -32.234500 -10.205900 -24.341300
H -32.091300 -5.443200 -25.568200
C -31.968900 -6.147600 -26.253800
O -31.887500 -11.129000 -23.602500
C -31.886700 -8.567100 -26.107400
N -31.566900 -7.391700 -25.609400
C -31.453900 -9.768300 -25.404200
H -31.257800 -5.851100 -26.875500
H -31.097300 -7.355700 -24.865800
N -30.169700 -10.181600 -25.617600
O -29.639000 -11.136800 -25.004500
O -29.536800 -9.563800 -26.497300
82
Fragment
O -30.959600 -13.138800 -21.383600
O -30.857400 -14.711800 -22.876400
N -30.326800 -13.756600 -22.263200
H -29.399100 -10.930700 -23.015100
H -29.238600 -9.426100 -21.005300
C -29.042600 -13.343300 -22.476600
N -28.929500 -10.966700 -22.271400
C -28.609800 -12.142100 -21.773500
O -28.609000 -14.704000 -24.278300
C -28.527500 -9.722600 -21.627100
H -28.405100 -9.018200 -22.312600
N -28.262000 -13.780900 -23.539600
H -28.088000 -10.774900 -19.269600
N -27.903400 -12.230100 -20.673600
H -27.704900 -13.022700 -20.346800
C -27.437200 -11.018900 -19.974500
N -27.287600 -9.912000 -20.896600
O -27.179700 -13.176700 -23.682300
H -26.568300 -11.204600 -19.538700
H -26.349900 -10.629300 -22.557600
C -26.130400 -10.035700 -21.796700
N -25.803400 -8.694400 -22.279600
H -25.616300 -9.287000 -24.185600
H -25.468700 -7.986300 -20.437700
H -25.358100 -10.421300 -21.310500
H -25.211200 -7.754500 -23.948100
C -25.153700 -8.666500 -23.568300
H -25.085700 -6.953400 -21.601500
C -25.056000 -7.905800 -21.334300
N -23.738600 -9.060500 -23.442500
N -23.654800 -8.355500 -21.271400
H -23.326500 -9.407100 -24.138700
H -23.196000 -8.255500 -20.527300
C -23.082400 -8.907500 -22.328900
O -22.403600 -11.416400 -21.910400
C -21.681400 -9.333600 -22.246800
N -21.406300 -10.674900 -22.058000
O -21.157500 -7.197200 -22.595900
N -20.716900 -8.374800 -22.449300
O -20.244300 -11.108200 -22.010700
O -19.511400 -8.608600 -22.458900
O -40.985000 -5.033600 -25.422000
O -40.252100 -7.533200 -25.870200
N -39.779600 -4.799800 -25.431600
O -39.338900 -3.622200 -25.284900
N -39.090200 -7.099900 -25.822800
C -38.815000 -5.758600 -25.634000
O -38.092900 -7.841400 -25.970400
C -37.414000 -5.332500 -25.552000
H -37.300400 -4.680500 -27.353500
H -37.169900 -5.832100 -23.742200
N -36.841600 -4.780500 -26.609400
N -36.757900 -5.485500 -24.438400
C -35.440500 -4.330800 -26.546500
H -35.410800 -3.378400 -26.279300
C -35.342700 -5.091500 -24.312500
H -35.285200 -4.179500 -23.932800
H -35.138300 -6.846300 -26.570300
H -35.027700 -4.411300 -27.443100
H -34.880200 -5.712000 -23.695300
N -34.693000 -5.119400 -25.601200
C -34.366000 -6.460700 -26.084100
H -34.146600 -7.054300 -25.323200
H -33.928100 -7.629600 -28.342200
O -33.316700 -9.601700 -24.198600
N -33.208800 -6.337000 -26.984300
C -33.059200 -7.443900 -27.906300
H -32.791600 -9.447700 -27.534100
N -32.593000 -8.655100 -27.207300
H -32.408400 -7.199900 -28.611300
N -32.234500 -10.205900 -24.341300
H -32.091300 -5.443200 -25.568200
C -31.968900 -6.147600 -26.253800
O -31.887500 -11.129000 -23.602500
C -31.886700 -8.567100 -26.107400
N -31.566900 -7.391700 -25.609400
C -31.453900 -9.768300 -25.404200
H -31.257800 -5.851100 -26.875500
H -31.097300 -7.355700 -24.865800
N -30.169700 -10.181600 -25.617600
O -29.639000 -11.136800 -25.004500
O -29.536800 -9.563800 -26.497300
