41
Fragment
O -30.959600 -13.138800 -21.383600
O -30.857400 -14.711800 -22.876400
N -30.326800 -13.756600 -22.263200
H -29.399100 -10.930700 -23.015100
H -29.238600 -9.426100 -21.005300
C -29.042600 -13.343300 -22.476600
N -28.929500 -10.966700 -22.271400
C -28.609800 -12.142100 -21.773500
O -28.609000 -14.704000 -24.278300
C -28.527500 -9.722600 -21.627100
H -28.405100 -9.018200 -22.312600
N -28.262000 -13.780900 -23.539600
H -28.088000 -10.774900 -19.269600
N -27.903400 -12.230100 -20.673600
H -27.704900 -13.022700 -20.346800
C -27.437200 -11.018900 -19.974500
N -27.287600 -9.912000 -20.896600
O -27.179700 -13.176700 -23.682300
H -26.568300 -11.204600 -19.538700
H -26.349900 -10.629300 -22.557600
C -26.130400 -10.035700 -21.796700
N -25.803400 -8.694400 -22.279600
H -25.616300 -9.287000 -24.185600
H -25.468700 -7.986300 -20.437700
H -25.358100 -10.421300 -21.310500
H -25.211200 -7.754500 -23.948100
C -25.153700 -8.666500 -23.568300
H -25.085700 -6.953400 -21.601500
C -25.056000 -7.905800 -21.334300
N -23.738600 -9.060500 -23.442500
N -23.654800 -8.355500 -21.271400
H -23.326500 -9.407100 -24.138700
H -23.196000 -8.255500 -20.527300
C -23.082400 -8.907500 -22.328900
O -22.403600 -11.416400 -21.910400
C -21.681400 -9.333600 -22.246800
N -21.406300 -10.674900 -22.058000
O -21.157500 -7.197200 -22.595900
N -20.716900 -8.374800 -22.449300
O -20.244300 -11.108200 -22.010700
O -19.511400 -8.608600 -22.458900
41
Fragment
O -42.078700 -12.841400 -18.581900
O -41.345800 -10.341800 -19.030000
N -40.873200 -13.075200 -18.591400
O -40.432500 -14.252800 -18.444800
N -40.183800 -10.775100 -18.982700
C -39.908700 -12.116400 -18.793900
O -39.186500 -10.033600 -19.130300
C -38.507700 -12.542500 -18.711800
H -38.394100 -13.194500 -20.513400
H -38.263600 -12.042900 -16.902100
N -37.935300 -13.094500 -19.769300
N -37.851500 -12.389500 -17.598300
C -36.534100 -13.544200 -19.706400
H -36.504400 -14.496600 -19.439200
C -36.436400 -12.783500 -17.472400
H -36.378800 -13.695500 -17.092600
H -36.232000 -11.028700 -19.730200
H -36.121400 -13.463700 -20.603000
H -35.973800 -12.163000 -16.855200
N -35.786700 -12.755600 -18.761100
C -35.459700 -11.414300 -19.244000
H -35.240200 -10.820700 -18.483100
H -35.021800 -10.245400 -21.502100
O -34.410400 -8.273300 -17.358400
N -34.302500 -11.538000 -20.144200
C -34.152900 -10.431100 -21.066200
H -33.885200 -8.427300 -20.694000
N -33.686700 -9.219900 -20.367100
H -33.502100 -10.675100 -21.771100
N -33.328100 -7.669100 -17.501100
H -33.184900 -12.431800 -18.728100
C -33.062600 -11.727400 -19.413600
O -32.981100 -6.746000 -16.762400
C -32.980300 -9.307900 -19.267300
N -32.660600 -10.483300 -18.769300
C -32.547500 -8.106700 -18.564100
H -32.351500 -12.023900 -20.035400
H -32.191000 -10.519300 -18.025600
N -31.263300 -7.693400 -18.777500
O -30.732700 -6.738200 -18.164400
O -30.630500 -8.311200 -19.657100
82
Fragment
O -30.959600 -13.138800 -21.383600
O -30.857400 -14.711800 -22.876400
N -30.326800 -13.756600 -22.263200
H -29.399100 -10.930700 -23.015100
H -29.238600 -9.426100 -21.005300
C -29.042600 -13.343300 -22.476600
N -28.929500 -10.966700 -22.271400
C -28.609800 -12.142100 -21.773500
O -28.609000 -14.704000 -24.278300
C -28.527500 -9.722600 -21.627100
H -28.405100 -9.018200 -22.312600
N -28.262000 -13.780900 -23.539600
H -28.088000 -10.774900 -19.269600
N -27.903400 -12.230100 -20.673600
H -27.704900 -13.022700 -20.346800
C -27.437200 -11.018900 -19.974500
N -27.287600 -9.912000 -20.896600
O -27.179700 -13.176700 -23.682300
H -26.568300 -11.204600 -19.538700
H -26.349900 -10.629300 -22.557600
C -26.130400 -10.035700 -21.796700
N -25.803400 -8.694400 -22.279600
H -25.616300 -9.287000 -24.185600
H -25.468700 -7.986300 -20.437700
H -25.358100 -10.421300 -21.310500
H -25.211200 -7.754500 -23.948100
C -25.153700 -8.666500 -23.568300
H -25.085700 -6.953400 -21.601500
C -25.056000 -7.905800 -21.334300
N -23.738600 -9.060500 -23.442500
N -23.654800 -8.355500 -21.271400
H -23.326500 -9.407100 -24.138700
H -23.196000 -8.255500 -20.527300
C -23.082400 -8.907500 -22.328900
O -22.403600 -11.416400 -21.910400
C -21.681400 -9.333600 -22.246800
N -21.406300 -10.674900 -22.058000
O -21.157500 -7.197200 -22.595900
N -20.716900 -8.374800 -22.449300
O -20.244300 -11.108200 -22.010700
O -19.511400 -8.608600 -22.458900
O -42.078700 -12.841400 -18.581900
O -41.345800 -10.341800 -19.030000
N -40.873200 -13.075200 -18.591400
O -40.432500 -14.252800 -18.444800
N -40.183800 -10.775100 -18.982700
C -39.908700 -12.116400 -18.793900
O -39.186500 -10.033600 -19.130300
C -38.507700 -12.542500 -18.711800
H -38.394100 -13.194500 -20.513400
H -38.263600 -12.042900 -16.902100
N -37.935300 -13.094500 -19.769300
N -37.851500 -12.389500 -17.598300
C -36.534100 -13.544200 -19.706400
H -36.504400 -14.496600 -19.439200
C -36.436400 -12.783500 -17.472400
H -36.378800 -13.695500 -17.092600
H -36.232000 -11.028700 -19.730200
H -36.121400 -13.463700 -20.603000
H -35.973800 -12.163000 -16.855200
N -35.786700 -12.755600 -18.761100
C -35.459700 -11.414300 -19.244000
H -35.240200 -10.820700 -18.483100
H -35.021800 -10.245400 -21.502100
O -34.410400 -8.273300 -17.358400
N -34.302500 -11.538000 -20.144200
C -34.152900 -10.431100 -21.066200
H -33.885200 -8.427300 -20.694000
N -33.686700 -9.219900 -20.367100
H -33.502100 -10.675100 -21.771100
N -33.328100 -7.669100 -17.501100
H -33.184900 -12.431800 -18.728100
C -33.062600 -11.727400 -19.413600
O -32.981100 -6.746000 -16.762400
C -32.980300 -9.307900 -19.267300
N -32.660600 -10.483300 -18.769300
C -32.547500 -8.106700 -18.564100
H -32.351500 -12.023900 -20.035400
H -32.191000 -10.519300 -18.025600
N -31.263300 -7.693400 -18.777500
O -30.732700 -6.738200 -18.164400
O -30.630500 -8.311200 -19.657100
