3
Fragment
O -9.949300 -20.103200 -64.307200
H -9.385900 -20.725000 -64.766000
H -9.385900 -19.481300 -63.848500
26
Fragment
H -8.711900 -14.204900 -66.472300
H -8.691300 -14.797300 -64.221500
C -8.416000 -15.069300 -66.214200
C -8.400800 -15.419000 -64.878300
H -8.391600 -19.198500 -60.984700
N -8.320000 -18.354000 -62.790500
C -8.196400 -18.422500 -61.494000
H -8.095000 -17.208300 -69.516100
O -8.055400 -15.528200 -68.467900
C -8.001300 -15.976600 -67.176200
C -7.960800 -16.675700 -64.495500
N -7.947900 -17.057700 -63.118900
C -7.740500 -17.213100 -60.938800
C -7.591800 -17.243100 -66.806200
H -7.583400 -15.939100 -70.347800
C -7.581100 -16.345900 -62.022200
C -7.565900 -17.586200 -65.449800
C -7.549900 -16.394800 -69.480100
C -7.486600 -16.949800 -59.573400
H -7.329500 -17.874400 -67.466900
N -7.291400 -16.755800 -58.459100
H -7.274600 -18.452000 -65.186100
N -7.184700 -15.060700 -62.043200
H -7.149600 -14.623000 -62.806700
H -6.960500 -14.657900 -61.293400
H -6.622000 -16.633300 -69.271800
29
Fragment
O -9.949300 -20.103200 -64.307200
H -9.385900 -20.725000 -64.766000
H -9.385900 -19.481300 -63.848500
H -8.711900 -14.204900 -66.472300
H -8.691300 -14.797300 -64.221500
C -8.416000 -15.069300 -66.214200
C -8.400800 -15.419000 -64.878300
H -8.391600 -19.198500 -60.984700
N -8.320000 -18.354000 -62.790500
C -8.196400 -18.422500 -61.494000
H -8.095000 -17.208300 -69.516100
O -8.055400 -15.528200 -68.467900
C -8.001300 -15.976600 -67.176200
C -7.960800 -16.675700 -64.495500
N -7.947900 -17.057700 -63.118900
C -7.740500 -17.213100 -60.938800
C -7.591800 -17.243100 -66.806200
H -7.583400 -15.939100 -70.347800
C -7.581100 -16.345900 -62.022200
C -7.565900 -17.586200 -65.449800
C -7.549900 -16.394800 -69.480100
C -7.486600 -16.949800 -59.573400
H -7.329500 -17.874400 -67.466900
N -7.291400 -16.755800 -58.459100
H -7.274600 -18.452000 -65.186100
N -7.184700 -15.060700 -62.043200
H -7.149600 -14.623000 -62.806700
H -6.960500 -14.657900 -61.293400
H -6.622000 -16.633300 -69.271800
