3
Fragment
O -9.949300 -20.103200 -64.307200
H -9.385900 -20.725000 -64.766000
H -9.385900 -19.481300 -63.848500
26
Fragment
H -12.524200 -19.300400 -62.142200
H -12.503600 -18.708000 -64.393000
C -12.228300 -18.435900 -62.400300
C -12.213100 -18.086300 -63.736200
H -12.203900 -14.306700 -67.629800
N -12.132300 -15.151200 -65.824000
C -12.008700 -15.082700 -67.120500
H -11.907300 -16.297000 -59.098400
O -11.867700 -17.977000 -60.146600
C -11.813600 -17.528600 -61.438300
C -11.773100 -16.829600 -64.119000
N -11.760200 -16.447600 -65.495600
C -11.552800 -16.292100 -67.675700
C -11.404100 -16.262100 -61.808300
H -11.395700 -17.566100 -58.266700
C -11.393400 -17.159400 -66.592300
C -11.378200 -15.919000 -63.164700
C -11.362200 -17.110500 -59.134400
C -11.298900 -16.555500 -69.041100
H -11.141800 -15.630900 -61.147600
N -11.103700 -16.749400 -70.155400
H -11.086900 -15.053200 -63.428400
N -10.997000 -18.444500 -66.571300
H -10.961900 -18.882200 -65.807800
H -10.772800 -18.847400 -67.321100
H -10.434300 -16.871900 -59.342700
29
Fragment
O -9.949300 -20.103200 -64.307200
H -9.385900 -20.725000 -64.766000
H -9.385900 -19.481300 -63.848500
H -12.524200 -19.300400 -62.142200
H -12.503600 -18.708000 -64.393000
C -12.228300 -18.435900 -62.400300
C -12.213100 -18.086300 -63.736200
H -12.203900 -14.306700 -67.629800
N -12.132300 -15.151200 -65.824000
C -12.008700 -15.082700 -67.120500
H -11.907300 -16.297000 -59.098400
O -11.867700 -17.977000 -60.146600
C -11.813600 -17.528600 -61.438300
C -11.773100 -16.829600 -64.119000
N -11.760200 -16.447600 -65.495600
C -11.552800 -16.292100 -67.675700
C -11.404100 -16.262100 -61.808300
H -11.395700 -17.566100 -58.266700
C -11.393400 -17.159400 -66.592300
C -11.378200 -15.919000 -63.164700
C -11.362200 -17.110500 -59.134400
C -11.298900 -16.555500 -69.041100
H -11.141800 -15.630900 -61.147600
N -11.103700 -16.749400 -70.155400
H -11.086900 -15.053200 -63.428400
N -10.997000 -18.444500 -66.571300
H -10.961900 -18.882200 -65.807800
H -10.772800 -18.847400 -67.321100
H -10.434300 -16.871900 -59.342700
