3
Fragment
O -9.949300 -20.103200 -64.307200
H -9.385900 -20.725000 -64.766000
H -9.385900 -19.481300 -63.848500
26
Fragment
H -8.711900 -26.001400 -62.142200
H -8.691300 -25.409000 -64.393000
C -8.416000 -25.137000 -62.400300
C -8.400800 -24.787300 -63.736200
H -8.391600 -21.007800 -67.629800
N -8.320000 -21.852300 -65.824000
C -8.196400 -21.783800 -67.120500
H -8.095000 -22.998000 -59.098400
O -8.055400 -24.678100 -60.146600
C -8.001300 -24.229700 -61.438300
C -7.960800 -23.530600 -64.119000
N -7.947900 -23.148600 -65.495600
C -7.740500 -22.993200 -67.675700
C -7.591800 -22.963200 -61.808300
H -7.583400 -24.267200 -58.266700
C -7.581100 -23.860400 -66.592300
C -7.565900 -22.620100 -63.164700
C -7.549900 -23.811500 -59.134400
C -7.486600 -23.256500 -69.041100
H -7.329500 -22.331900 -61.147600
N -7.291400 -23.450500 -70.155400
H -7.274600 -21.754300 -63.428400
N -7.184700 -25.145600 -66.571300
H -7.149600 -25.583300 -65.807800
H -6.960500 -25.548400 -67.321100
H -6.622000 -23.573000 -59.342700
29
Fragment
O -9.949300 -20.103200 -64.307200
H -9.385900 -20.725000 -64.766000
H -9.385900 -19.481300 -63.848500
H -8.711900 -26.001400 -62.142200
H -8.691300 -25.409000 -64.393000
C -8.416000 -25.137000 -62.400300
C -8.400800 -24.787300 -63.736200
H -8.391600 -21.007800 -67.629800
N -8.320000 -21.852300 -65.824000
C -8.196400 -21.783800 -67.120500
H -8.095000 -22.998000 -59.098400
O -8.055400 -24.678100 -60.146600
C -8.001300 -24.229700 -61.438300
C -7.960800 -23.530600 -64.119000
N -7.947900 -23.148600 -65.495600
C -7.740500 -22.993200 -67.675700
C -7.591800 -22.963200 -61.808300
H -7.583400 -24.267200 -58.266700
C -7.581100 -23.860400 -66.592300
C -7.565900 -22.620100 -63.164700
C -7.549900 -23.811500 -59.134400
C -7.486600 -23.256500 -69.041100
H -7.329500 -22.331900 -61.147600
N -7.291400 -23.450500 -70.155400
H -7.274600 -21.754300 -63.428400
N -7.184700 -25.145600 -66.571300
H -7.149600 -25.583300 -65.807800
H -6.960500 -25.548400 -67.321100
H -6.622000 -23.573000 -59.342700
