19
Fragment
H -23.025900 -4.954700 -29.523900
H -22.708500 -6.134600 -31.461800
C -22.644800 -5.802400 -29.493600
N -22.508100 -5.633500 -27.110400
C -22.454500 -6.508600 -30.648700
C -22.263100 -6.360200 -28.260100
N -22.198600 -6.109300 -25.941000
H -22.187700 -8.184700 -32.358700
C -21.875900 -7.803300 -30.623000
O -21.715500 -8.513200 -31.751200
C -21.684500 -7.649500 -28.263500
C -21.643200 -7.353500 -25.897000
C -21.467300 -8.374800 -29.426600
N -21.386000 -8.106000 -27.002900
N -21.290800 -8.041200 -24.810500
H -21.063000 -9.212200 -29.404500
N -20.863000 -9.308600 -26.651200
C -20.830600 -9.203300 -25.330100
H -20.508800 -9.889600 -24.791000
19
Fragment
H -20.028500 -10.618400 -32.095200
C -19.706700 -11.304700 -31.556100
N -19.674300 -11.199400 -30.235000
H -19.474300 -11.295800 -27.481700
N -19.246500 -12.466800 -32.075600
N -19.151300 -12.402000 -29.883200
C -19.070000 -12.133200 -27.459500
C -18.894100 -13.154500 -30.989100
C -18.852800 -12.858500 -28.622600
O -18.821800 -11.994800 -25.135000
C -18.661400 -12.704700 -26.263200
H -18.349600 -12.323300 -24.527400
N -18.338700 -14.398700 -30.945100
C -18.274200 -14.147800 -28.626100
C -18.082800 -13.999400 -26.237400
N -18.029200 -14.874500 -29.775700
C -17.892500 -14.705600 -27.392600
H -17.828800 -14.373400 -25.424300
H -17.511400 -15.553300 -27.362200
38
Fragment
H -23.025900 -4.954700 -29.523900
H -22.708500 -6.134600 -31.461800
C -22.644800 -5.802400 -29.493600
N -22.508100 -5.633500 -27.110400
C -22.454500 -6.508600 -30.648700
C -22.263100 -6.360200 -28.260100
N -22.198600 -6.109300 -25.941000
H -22.187700 -8.184700 -32.358700
C -21.875900 -7.803300 -30.623000
O -21.715500 -8.513200 -31.751200
C -21.684500 -7.649500 -28.263500
C -21.643200 -7.353500 -25.897000
C -21.467300 -8.374800 -29.426600
N -21.386000 -8.106000 -27.002900
N -21.290800 -8.041200 -24.810500
H -21.063000 -9.212200 -29.404500
N -20.863000 -9.308600 -26.651200
C -20.830600 -9.203300 -25.330100
H -20.508800 -9.889600 -24.791000
H -20.028500 -10.618400 -32.095200
C -19.706700 -11.304700 -31.556100
N -19.674300 -11.199400 -30.235000
H -19.474300 -11.295800 -27.481700
N -19.246500 -12.466800 -32.075600
N -19.151300 -12.402000 -29.883200
C -19.070000 -12.133200 -27.459500
C -18.894100 -13.154500 -30.989100
C -18.852800 -12.858500 -28.622600
O -18.821800 -11.994800 -25.135000
C -18.661400 -12.704700 -26.263200
H -18.349600 -12.323300 -24.527400
N -18.338700 -14.398700 -30.945100
C -18.274200 -14.147800 -28.626100
C -18.082800 -13.999400 -26.237400
N -18.029200 -14.874500 -29.775700
C -17.892500 -14.705600 -27.392600
H -17.828800 -14.373400 -25.424300
H -17.511400 -15.553300 -27.362200
