22
Fragment
H -7.403700 -23.923400 -24.156300
O -7.329700 -24.018600 -24.967800
H -7.244700 -24.980000 -27.249600
C -7.084200 -25.640900 -26.615600
C -7.084000 -25.301800 -25.243700
C -6.853800 -26.909500 -27.023500
H -6.851500 -27.110000 -27.931700
C -6.846200 -26.273200 -24.289400
H -6.834900 -26.063800 -23.383300
C -6.625100 -27.568700 -24.727200
C -6.619700 -27.922800 -26.085300
H -6.473600 -29.831800 -20.294000
N -6.409200 -29.201800 -26.541600
N -6.406700 -28.634100 -23.895600
H -6.380100 -31.307400 -20.816200
N -6.353200 -28.637800 -22.536900
C -6.235800 -29.894700 -24.382400
N -6.219300 -30.184000 -25.706300
C -6.150200 -29.939800 -22.284300
N -6.080400 -30.739400 -23.365500
C -6.008000 -30.425200 -20.887700
H -5.077500 -30.450800 -20.651200
22
Fragment
H -5.723800 -33.576900 -30.882000
O -5.643500 -32.986900 -30.318200
H -5.610600 -31.749200 -28.152500
C -5.460900 -32.656600 -28.010900
C -5.430800 -33.544600 -29.112600
H -5.310600 -32.526500 -26.033600
C -5.273300 -33.116800 -26.752000
C -5.190200 -34.883500 -28.931200
H -5.170000 -35.469300 -29.653000
C -5.024700 -34.476200 -26.523200
C -4.977300 -35.335500 -27.640400
H -4.947000 -40.594100 -27.548400
N -4.852700 -34.917000 -25.234100
N -4.726000 -36.634100 -27.310700
N -4.621800 -36.165200 -24.966000
N -4.598500 -37.693700 -28.141600
C -4.551000 -37.030100 -26.016600
C -4.355000 -38.689200 -27.286000
N -4.307200 -38.326200 -25.977900
C -4.168200 -40.075600 -27.761500
H -4.035300 -40.073100 -28.712400
H -3.399900 -40.460700 -27.332700
44
Fragment
H -7.403700 -23.923400 -24.156300
O -7.329700 -24.018600 -24.967800
H -7.244700 -24.980000 -27.249600
C -7.084200 -25.640900 -26.615600
C -7.084000 -25.301800 -25.243700
C -6.853800 -26.909500 -27.023500
H -6.851500 -27.110000 -27.931700
C -6.846200 -26.273200 -24.289400
H -6.834900 -26.063800 -23.383300
C -6.625100 -27.568700 -24.727200
C -6.619700 -27.922800 -26.085300
H -6.473600 -29.831800 -20.294000
N -6.409200 -29.201800 -26.541600
N -6.406700 -28.634100 -23.895600
H -6.380100 -31.307400 -20.816200
N -6.353200 -28.637800 -22.536900
C -6.235800 -29.894700 -24.382400
N -6.219300 -30.184000 -25.706300
C -6.150200 -29.939800 -22.284300
N -6.080400 -30.739400 -23.365500
C -6.008000 -30.425200 -20.887700
H -5.077500 -30.450800 -20.651200
H -5.723800 -33.576900 -30.882000
O -5.643500 -32.986900 -30.318200
H -5.610600 -31.749200 -28.152500
C -5.460900 -32.656600 -28.010900
C -5.430800 -33.544600 -29.112600
H -5.310600 -32.526500 -26.033600
C -5.273300 -33.116800 -26.752000
C -5.190200 -34.883500 -28.931200
H -5.170000 -35.469300 -29.653000
C -5.024700 -34.476200 -26.523200
C -4.977300 -35.335500 -27.640400
H -4.947000 -40.594100 -27.548400
N -4.852700 -34.917000 -25.234100
N -4.726000 -36.634100 -27.310700
N -4.621800 -36.165200 -24.966000
N -4.598500 -37.693700 -28.141600
C -4.551000 -37.030100 -26.016600
C -4.355000 -38.689200 -27.286000
N -4.307200 -38.326200 -25.977900
C -4.168200 -40.075600 -27.761500
H -4.035300 -40.073100 -28.712400
H -3.399900 -40.460700 -27.332700
