22
Fragment
H -7.403700 -23.923400 -24.156300
O -7.329700 -24.018600 -24.967800
H -7.244700 -24.980000 -27.249600
C -7.084200 -25.640900 -26.615600
C -7.084000 -25.301800 -25.243700
C -6.853800 -26.909500 -27.023500
H -6.851500 -27.110000 -27.931700
C -6.846200 -26.273200 -24.289400
H -6.834900 -26.063800 -23.383300
C -6.625100 -27.568700 -24.727200
C -6.619700 -27.922800 -26.085300
H -6.473600 -29.831800 -20.294000
N -6.409200 -29.201800 -26.541600
N -6.406700 -28.634100 -23.895600
H -6.380100 -31.307400 -20.816200
N -6.353200 -28.637800 -22.536900
C -6.235800 -29.894700 -24.382400
N -6.219300 -30.184000 -25.706300
C -6.150200 -29.939800 -22.284300
N -6.080400 -30.739400 -23.365500
C -6.008000 -30.425200 -20.887700
H -5.077500 -30.450800 -20.651200
22
Fragment
H -8.107600 -20.030300 -24.818900
C -7.177100 -20.004700 -24.582500
N -7.104700 -20.318900 -22.104600
C -7.034900 -19.519300 -23.185900
N -6.965900 -19.763500 -19.763800
C -6.949300 -19.474200 -21.087700
N -6.832000 -18.217300 -22.933200
H -6.805000 -20.886900 -24.653900
N -6.778400 -18.213600 -21.574500
N -6.775900 -18.781300 -18.928600
H -6.711600 -19.411300 -25.176200
C -6.565500 -17.502300 -19.384800
C -6.560000 -17.148200 -20.743000
H -6.350200 -15.643300 -22.086800
C -6.338900 -15.852700 -21.180800
H -6.333600 -16.689500 -17.538500
C -6.331400 -16.489000 -18.446600
C -6.101100 -14.881300 -20.226400
C -6.100900 -15.220400 -18.854500
H -5.940400 -14.559500 -18.220500
O -5.855400 -13.598100 -20.502400
H -5.781400 -13.502900 -21.313800
44
Fragment
H -7.403700 -23.923400 -24.156300
O -7.329700 -24.018600 -24.967800
H -7.244700 -24.980000 -27.249600
C -7.084200 -25.640900 -26.615600
C -7.084000 -25.301800 -25.243700
C -6.853800 -26.909500 -27.023500
H -6.851500 -27.110000 -27.931700
C -6.846200 -26.273200 -24.289400
H -6.834900 -26.063800 -23.383300
C -6.625100 -27.568700 -24.727200
C -6.619700 -27.922800 -26.085300
H -6.473600 -29.831800 -20.294000
N -6.409200 -29.201800 -26.541600
N -6.406700 -28.634100 -23.895600
H -6.380100 -31.307400 -20.816200
N -6.353200 -28.637800 -22.536900
C -6.235800 -29.894700 -24.382400
N -6.219300 -30.184000 -25.706300
C -6.150200 -29.939800 -22.284300
N -6.080400 -30.739400 -23.365500
C -6.008000 -30.425200 -20.887700
H -5.077500 -30.450800 -20.651200
H -8.107600 -20.030300 -24.818900
C -7.177100 -20.004700 -24.582500
N -7.104700 -20.318900 -22.104600
C -7.034900 -19.519300 -23.185900
N -6.965900 -19.763500 -19.763800
C -6.949300 -19.474200 -21.087700
N -6.832000 -18.217300 -22.933200
H -6.805000 -20.886900 -24.653900
N -6.778400 -18.213600 -21.574500
N -6.775900 -18.781300 -18.928600
H -6.711600 -19.411300 -25.176200
C -6.565500 -17.502300 -19.384800
C -6.560000 -17.148200 -20.743000
H -6.350200 -15.643300 -22.086800
C -6.338900 -15.852700 -21.180800
H -6.333600 -16.689500 -17.538500
C -6.331400 -16.489000 -18.446600
C -6.101100 -14.881300 -20.226400
C -6.100900 -15.220400 -18.854500
H -5.940400 -14.559500 -18.220500
O -5.855400 -13.598100 -20.502400
H -5.781400 -13.502900 -21.313800
