22
Fragment
H -7.403700 -23.923400 -24.156300
O -7.329700 -24.018600 -24.967800
H -7.244700 -24.980000 -27.249600
C -7.084200 -25.640900 -26.615600
C -7.084000 -25.301800 -25.243700
C -6.853800 -26.909500 -27.023500
H -6.851500 -27.110000 -27.931700
C -6.846200 -26.273200 -24.289400
H -6.834900 -26.063800 -23.383300
C -6.625100 -27.568700 -24.727200
C -6.619700 -27.922800 -26.085300
H -6.473600 -29.831800 -20.294000
N -6.409200 -29.201800 -26.541600
N -6.406700 -28.634100 -23.895600
H -6.380100 -31.307400 -20.816200
N -6.353200 -28.637800 -22.536900
C -6.235800 -29.894700 -24.382400
N -6.219300 -30.184000 -25.706300
C -6.150200 -29.939800 -22.284300
N -6.080400 -30.739400 -23.365500
C -6.008000 -30.425200 -20.887700
H -5.077500 -30.450800 -20.651200
22
Fragment
H -4.789600 -22.062300 -24.633100
H -4.154200 -22.449900 -23.253400
C -4.021400 -22.447400 -24.204400
N -3.882400 -24.196800 -25.988000
C -3.834500 -23.833800 -24.679900
C -3.638500 -25.492900 -25.949300
N -3.591000 -24.829300 -23.824300
N -3.567700 -26.357800 -26.999900
N -3.463500 -25.888900 -24.655200
N -3.336800 -27.606000 -26.731800
H -3.242500 -21.928900 -24.417500
C -3.212300 -27.187500 -24.325500
C -3.164800 -28.046800 -25.442600
H -3.019500 -27.053700 -22.312800
C -2.999300 -27.639500 -23.034600
C -2.916200 -29.406200 -25.213800
H -2.879000 -29.996500 -25.932300
C -2.758700 -28.978400 -22.853300
C -2.728700 -29.866400 -23.955000
H -2.578900 -30.773800 -23.813400
O -2.546000 -29.536100 -21.647700
H -2.465700 -28.946100 -21.083900
44
Fragment
H -7.403700 -23.923400 -24.156300
O -7.329700 -24.018600 -24.967800
H -7.244700 -24.980000 -27.249600
C -7.084200 -25.640900 -26.615600
C -7.084000 -25.301800 -25.243700
C -6.853800 -26.909500 -27.023500
H -6.851500 -27.110000 -27.931700
C -6.846200 -26.273200 -24.289400
H -6.834900 -26.063800 -23.383300
C -6.625100 -27.568700 -24.727200
C -6.619700 -27.922800 -26.085300
H -6.473600 -29.831800 -20.294000
N -6.409200 -29.201800 -26.541600
N -6.406700 -28.634100 -23.895600
H -6.380100 -31.307400 -20.816200
N -6.353200 -28.637800 -22.536900
C -6.235800 -29.894700 -24.382400
N -6.219300 -30.184000 -25.706300
C -6.150200 -29.939800 -22.284300
N -6.080400 -30.739400 -23.365500
C -6.008000 -30.425200 -20.887700
H -5.077500 -30.450800 -20.651200
H -4.789600 -22.062300 -24.633100
H -4.154200 -22.449900 -23.253400
C -4.021400 -22.447400 -24.204400
N -3.882400 -24.196800 -25.988000
C -3.834500 -23.833800 -24.679900
C -3.638500 -25.492900 -25.949300
N -3.591000 -24.829300 -23.824300
N -3.567700 -26.357800 -26.999900
N -3.463500 -25.888900 -24.655200
N -3.336800 -27.606000 -26.731800
H -3.242500 -21.928900 -24.417500
C -3.212300 -27.187500 -24.325500
C -3.164800 -28.046800 -25.442600
H -3.019500 -27.053700 -22.312800
C -2.999300 -27.639500 -23.034600
C -2.916200 -29.406200 -25.213800
H -2.879000 -29.996500 -25.932300
C -2.758700 -28.978400 -22.853300
C -2.728700 -29.866400 -23.955000
H -2.578900 -30.773800 -23.813400
O -2.546000 -29.536100 -21.647700
H -2.465700 -28.946100 -21.083900
