22
Fragment
H -7.403700 -23.923400 -24.156300
O -7.329700 -24.018600 -24.967800
H -7.244700 -24.980000 -27.249600
C -7.084200 -25.640900 -26.615600
C -7.084000 -25.301800 -25.243700
C -6.853800 -26.909500 -27.023500
H -6.851500 -27.110000 -27.931700
C -6.846200 -26.273200 -24.289400
H -6.834900 -26.063800 -23.383300
C -6.625100 -27.568700 -24.727200
C -6.619700 -27.922800 -26.085300
H -6.473600 -29.831800 -20.294000
N -6.409200 -29.201800 -26.541600
N -6.406700 -28.634100 -23.895600
H -6.380100 -31.307400 -20.816200
N -6.353200 -28.637800 -22.536900
C -6.235800 -29.894700 -24.382400
N -6.219300 -30.184000 -25.706300
C -6.150200 -29.939800 -22.284300
N -6.080400 -30.739400 -23.365500
C -6.008000 -30.425200 -20.887700
H -5.077500 -30.450800 -20.651200
22
Fragment
H -8.107600 -40.871300 -24.818900
C -7.177100 -40.845700 -24.582500
N -7.104700 -41.159900 -22.104600
C -7.034900 -40.360300 -23.185900
N -6.965900 -40.604500 -19.763800
C -6.949300 -40.315200 -21.087700
N -6.832000 -39.058300 -22.933200
H -6.805000 -41.727900 -24.653900
N -6.778400 -39.054600 -21.574500
N -6.775900 -39.622300 -18.928600
H -6.711600 -40.252300 -25.176200
C -6.565500 -38.343300 -19.384800
C -6.560000 -37.989200 -20.743000
H -6.350200 -36.484300 -22.086800
C -6.338900 -36.693700 -21.180800
H -6.333600 -37.530500 -17.538500
C -6.331400 -37.330000 -18.446600
C -6.101100 -35.722300 -20.226400
C -6.100900 -36.061400 -18.854500
H -5.940400 -35.400500 -18.220500
O -5.855400 -34.439100 -20.502400
H -5.781400 -34.343900 -21.313800
44
Fragment
H -7.403700 -23.923400 -24.156300
O -7.329700 -24.018600 -24.967800
H -7.244700 -24.980000 -27.249600
C -7.084200 -25.640900 -26.615600
C -7.084000 -25.301800 -25.243700
C -6.853800 -26.909500 -27.023500
H -6.851500 -27.110000 -27.931700
C -6.846200 -26.273200 -24.289400
H -6.834900 -26.063800 -23.383300
C -6.625100 -27.568700 -24.727200
C -6.619700 -27.922800 -26.085300
H -6.473600 -29.831800 -20.294000
N -6.409200 -29.201800 -26.541600
N -6.406700 -28.634100 -23.895600
H -6.380100 -31.307400 -20.816200
N -6.353200 -28.637800 -22.536900
C -6.235800 -29.894700 -24.382400
N -6.219300 -30.184000 -25.706300
C -6.150200 -29.939800 -22.284300
N -6.080400 -30.739400 -23.365500
C -6.008000 -30.425200 -20.887700
H -5.077500 -30.450800 -20.651200
H -8.107600 -40.871300 -24.818900
C -7.177100 -40.845700 -24.582500
N -7.104700 -41.159900 -22.104600
C -7.034900 -40.360300 -23.185900
N -6.965900 -40.604500 -19.763800
C -6.949300 -40.315200 -21.087700
N -6.832000 -39.058300 -22.933200
H -6.805000 -41.727900 -24.653900
N -6.778400 -39.054600 -21.574500
N -6.775900 -39.622300 -18.928600
H -6.711600 -40.252300 -25.176200
C -6.565500 -38.343300 -19.384800
C -6.560000 -37.989200 -20.743000
H -6.350200 -36.484300 -22.086800
C -6.338900 -36.693700 -21.180800
H -6.333600 -37.530500 -17.538500
C -6.331400 -37.330000 -18.446600
C -6.101100 -35.722300 -20.226400
C -6.100900 -36.061400 -18.854500
H -5.940400 -35.400500 -18.220500
O -5.855400 -34.439100 -20.502400
H -5.781400 -34.343900 -21.313800
