22
Fragment
H -7.403700 -23.923400 -24.156300
O -7.329700 -24.018600 -24.967800
H -7.244700 -24.980000 -27.249600
C -7.084200 -25.640900 -26.615600
C -7.084000 -25.301800 -25.243700
C -6.853800 -26.909500 -27.023500
H -6.851500 -27.110000 -27.931700
C -6.846200 -26.273200 -24.289400
H -6.834900 -26.063800 -23.383300
C -6.625100 -27.568700 -24.727200
C -6.619700 -27.922800 -26.085300
H -6.473600 -29.831800 -20.294000
N -6.409200 -29.201800 -26.541600
N -6.406700 -28.634100 -23.895600
H -6.380100 -31.307400 -20.816200
N -6.353200 -28.637800 -22.536900
C -6.235800 -29.894700 -24.382400
N -6.219300 -30.184000 -25.706300
C -6.150200 -29.939800 -22.284300
N -6.080400 -30.739400 -23.365500
C -6.008000 -30.425200 -20.887700
H -5.077500 -30.450800 -20.651200
22
Fragment
H -6.673200 -30.040200 -31.128900
H -6.037800 -29.652600 -29.749200
C -5.905000 -29.655100 -30.700100
N -5.765900 -27.905700 -32.483700
C -5.718100 -28.268700 -31.175600
C -5.522100 -26.609600 -32.445000
N -5.474600 -27.273200 -30.320000
N -5.451300 -25.744700 -33.495600
N -5.347100 -26.213600 -31.150900
N -5.220400 -24.496500 -33.227500
H -5.126100 -30.173600 -30.913200
C -5.095800 -24.915000 -30.821200
C -5.048400 -24.055700 -31.938400
H -4.903100 -25.048800 -28.808600
C -4.882900 -24.463000 -29.530400
C -4.799800 -22.696300 -31.709600
H -4.762500 -22.106000 -32.428000
C -4.642300 -23.124100 -29.349000
C -4.612300 -22.236100 -30.450700
H -4.462500 -21.328700 -30.309100
O -4.429600 -22.566400 -28.143400
H -4.349300 -23.156400 -27.579600
44
Fragment
H -7.403700 -23.923400 -24.156300
O -7.329700 -24.018600 -24.967800
H -7.244700 -24.980000 -27.249600
C -7.084200 -25.640900 -26.615600
C -7.084000 -25.301800 -25.243700
C -6.853800 -26.909500 -27.023500
H -6.851500 -27.110000 -27.931700
C -6.846200 -26.273200 -24.289400
H -6.834900 -26.063800 -23.383300
C -6.625100 -27.568700 -24.727200
C -6.619700 -27.922800 -26.085300
H -6.473600 -29.831800 -20.294000
N -6.409200 -29.201800 -26.541600
N -6.406700 -28.634100 -23.895600
H -6.380100 -31.307400 -20.816200
N -6.353200 -28.637800 -22.536900
C -6.235800 -29.894700 -24.382400
N -6.219300 -30.184000 -25.706300
C -6.150200 -29.939800 -22.284300
N -6.080400 -30.739400 -23.365500
C -6.008000 -30.425200 -20.887700
H -5.077500 -30.450800 -20.651200
H -6.673200 -30.040200 -31.128900
H -6.037800 -29.652600 -29.749200
C -5.905000 -29.655100 -30.700100
N -5.765900 -27.905700 -32.483700
C -5.718100 -28.268700 -31.175600
C -5.522100 -26.609600 -32.445000
N -5.474600 -27.273200 -30.320000
N -5.451300 -25.744700 -33.495600
N -5.347100 -26.213600 -31.150900
N -5.220400 -24.496500 -33.227500
H -5.126100 -30.173600 -30.913200
C -5.095800 -24.915000 -30.821200
C -5.048400 -24.055700 -31.938400
H -4.903100 -25.048800 -28.808600
C -4.882900 -24.463000 -29.530400
C -4.799800 -22.696300 -31.709600
H -4.762500 -22.106000 -32.428000
C -4.642300 -23.124100 -29.349000
C -4.612300 -22.236100 -30.450700
H -4.462500 -21.328700 -30.309100
O -4.429600 -22.566400 -28.143400
H -4.349300 -23.156400 -27.579600
