21
Fragment
H -4.000200 -12.920500 -23.157400
H -3.843300 -14.328600 -18.990000
N -3.513300 -13.506800 -20.825900
H -3.400600 -11.530500 -23.788300
C -3.224300 -13.844700 -19.562200
C -3.197800 -12.443100 -23.547600
H -2.921400 -12.971600 -24.318900
C -2.389800 -12.865100 -21.230500
N -2.187600 -12.329200 -22.488400
N -2.010300 -13.450700 -19.164900
H -1.976400 -14.319500 -17.349300
C -1.446100 -12.794600 -20.251900
C -1.409300 -13.685200 -17.851600
H -1.175300 -12.958900 -17.424600
C -0.989400 -11.711700 -22.760700
O -0.755000 -11.226900 -23.871300
H -0.571000 -14.205500 -17.902700
C -0.180900 -12.156400 -20.434600
N -0.080000 -11.651100 -21.732000
H 0.661100 -11.195400 -21.919500
O 0.734300 -12.024700 -19.630200
8
Fragment
H -5.898500 -10.264200 -26.907300
O -5.149500 -11.253800 -29.102100
O -5.006600 -10.310600 -27.068200
C -4.559300 -11.025300 -28.058200
C -3.085100 -11.502600 -27.779900
O -2.637800 -12.217300 -28.769900
O -2.494900 -11.274100 -26.736000
H -1.745900 -12.263700 -28.930800
29
Fragment
H -4.000200 -12.920500 -23.157400
H -3.843300 -14.328600 -18.990000
N -3.513300 -13.506800 -20.825900
H -3.400600 -11.530500 -23.788300
C -3.224300 -13.844700 -19.562200
C -3.197800 -12.443100 -23.547600
H -2.921400 -12.971600 -24.318900
C -2.389800 -12.865100 -21.230500
N -2.187600 -12.329200 -22.488400
N -2.010300 -13.450700 -19.164900
H -1.976400 -14.319500 -17.349300
C -1.446100 -12.794600 -20.251900
C -1.409300 -13.685200 -17.851600
H -1.175300 -12.958900 -17.424600
C -0.989400 -11.711700 -22.760700
O -0.755000 -11.226900 -23.871300
H -0.571000 -14.205500 -17.902700
C -0.180900 -12.156400 -20.434600
N -0.080000 -11.651100 -21.732000
H 0.661100 -11.195400 -21.919500
O 0.734300 -12.024700 -19.630200
H -5.898500 -10.264200 -26.907300
O -5.149500 -11.253800 -29.102100
O -5.006600 -10.310600 -27.068200
C -4.559300 -11.025300 -28.058200
C -3.085100 -11.502600 -27.779900
O -2.637800 -12.217300 -28.769900
O -2.494900 -11.274100 -26.736000
H -1.745900 -12.263700 -28.930800
