21
Fragment
H -4.000200 -12.920500 -23.157400
H -3.843300 -14.328600 -18.990000
N -3.513300 -13.506800 -20.825900
H -3.400600 -11.530500 -23.788300
C -3.224300 -13.844700 -19.562200
C -3.197800 -12.443100 -23.547600
H -2.921400 -12.971600 -24.318900
C -2.389800 -12.865100 -21.230500
N -2.187600 -12.329200 -22.488400
N -2.010300 -13.450700 -19.164900
H -1.976400 -14.319500 -17.349300
C -1.446100 -12.794600 -20.251900
C -1.409300 -13.685200 -17.851600
H -1.175300 -12.958900 -17.424600
C -0.989400 -11.711700 -22.760700
O -0.755000 -11.226900 -23.871300
H -0.571000 -14.205500 -17.902700
C -0.180900 -12.156400 -20.434600
N -0.080000 -11.651100 -21.732000
H 0.661100 -11.195400 -21.919500
O 0.734300 -12.024700 -19.630200
21
Fragment
O -2.977000 -8.270100 -29.228200
H -2.903900 -7.440700 -26.938800
N -2.162800 -7.896500 -27.126300
C -2.061900 -8.401800 -28.423700
H -1.671700 -10.450800 -30.955700
O -1.487800 -7.472300 -24.987000
C -1.253400 -7.957100 -26.097600
H -1.067400 -9.204300 -31.433800
C -0.833500 -9.930600 -31.006700
C -0.796700 -9.039900 -28.606400
H -0.266300 -10.564800 -31.509000
N -0.232500 -9.696100 -29.693400
N -0.055200 -8.574600 -26.370000
C 0.147000 -9.110400 -27.627800
H 0.678600 -9.216900 -24.539400
C 0.955000 -8.688400 -25.310700
C 0.981500 -10.090100 -29.296100
H 1.157900 -7.775800 -25.070000
N 1.270500 -9.752100 -28.032400
H 1.600500 -10.573900 -29.868300
H 1.757400 -9.165900 -25.700900
42
Fragment
H -4.000200 -12.920500 -23.157400
H -3.843300 -14.328600 -18.990000
N -3.513300 -13.506800 -20.825900
H -3.400600 -11.530500 -23.788300
C -3.224300 -13.844700 -19.562200
C -3.197800 -12.443100 -23.547600
H -2.921400 -12.971600 -24.318900
C -2.389800 -12.865100 -21.230500
N -2.187600 -12.329200 -22.488400
N -2.010300 -13.450700 -19.164900
H -1.976400 -14.319500 -17.349300
C -1.446100 -12.794600 -20.251900
C -1.409300 -13.685200 -17.851600
H -1.175300 -12.958900 -17.424600
C -0.989400 -11.711700 -22.760700
O -0.755000 -11.226900 -23.871300
H -0.571000 -14.205500 -17.902700
C -0.180900 -12.156400 -20.434600
N -0.080000 -11.651100 -21.732000
H 0.661100 -11.195400 -21.919500
O 0.734300 -12.024700 -19.630200
O -2.977000 -8.270100 -29.228200
H -2.903900 -7.440700 -26.938800
N -2.162800 -7.896500 -27.126300
C -2.061900 -8.401800 -28.423700
H -1.671700 -10.450800 -30.955700
O -1.487800 -7.472300 -24.987000
C -1.253400 -7.957100 -26.097600
H -1.067400 -9.204300 -31.433800
C -0.833500 -9.930600 -31.006700
C -0.796700 -9.039900 -28.606400
H -0.266300 -10.564800 -31.509000
N -0.232500 -9.696100 -29.693400
N -0.055200 -8.574600 -26.370000
C 0.147000 -9.110400 -27.627800
H 0.678600 -9.216900 -24.539400
C 0.955000 -8.688400 -25.310700
C 0.981500 -10.090100 -29.296100
H 1.157900 -7.775800 -25.070000
N 1.270500 -9.752100 -28.032400
H 1.600500 -10.573900 -29.868300
H 1.757400 -9.165900 -25.700900
