21
Fragment
H -4.000200 -12.920500 -23.157400
H -3.843300 -14.328600 -18.990000
N -3.513300 -13.506800 -20.825900
H -3.400600 -11.530500 -23.788300
C -3.224300 -13.844700 -19.562200
C -3.197800 -12.443100 -23.547600
H -2.921400 -12.971600 -24.318900
C -2.389800 -12.865100 -21.230500
N -2.187600 -12.329200 -22.488400
N -2.010300 -13.450700 -19.164900
H -1.976400 -14.319500 -17.349300
C -1.446100 -12.794600 -20.251900
C -1.409300 -13.685200 -17.851600
H -1.175300 -12.958900 -17.424600
C -0.989400 -11.711700 -22.760700
O -0.755000 -11.226900 -23.871300
H -0.571000 -14.205500 -17.902700
C -0.180900 -12.156400 -20.434600
N -0.080000 -11.651100 -21.732000
H 0.661100 -11.195400 -21.919500
O 0.734300 -12.024700 -19.630200
21
Fragment
O -6.467500 -10.503200 -22.248400
H -6.394400 -11.332500 -19.959000
N -5.653300 -10.876800 -20.146500
C -5.552400 -10.371500 -21.443900
H -5.162200 -8.322400 -23.975900
O -4.978300 -11.301000 -18.007200
C -4.743900 -10.816200 -19.117800
H -4.557900 -9.569000 -24.454000
C -4.324000 -8.842700 -24.027000
C -4.287200 -9.733300 -21.626600
H -3.756800 -8.208400 -24.529300
N -3.723000 -9.077200 -22.713700
N -3.545600 -10.198700 -19.390200
C -3.343500 -9.662800 -20.648100
H -2.811800 -9.556300 -17.559700
C -2.535500 -10.084800 -18.330900
C -2.509000 -8.683200 -22.316400
H -2.332600 -10.997400 -18.090300
N -2.220000 -9.021100 -21.052600
H -1.890000 -8.199300 -22.888600
H -1.733100 -9.607400 -18.721100
42
Fragment
H -4.000200 -12.920500 -23.157400
H -3.843300 -14.328600 -18.990000
N -3.513300 -13.506800 -20.825900
H -3.400600 -11.530500 -23.788300
C -3.224300 -13.844700 -19.562200
C -3.197800 -12.443100 -23.547600
H -2.921400 -12.971600 -24.318900
C -2.389800 -12.865100 -21.230500
N -2.187600 -12.329200 -22.488400
N -2.010300 -13.450700 -19.164900
H -1.976400 -14.319500 -17.349300
C -1.446100 -12.794600 -20.251900
C -1.409300 -13.685200 -17.851600
H -1.175300 -12.958900 -17.424600
C -0.989400 -11.711700 -22.760700
O -0.755000 -11.226900 -23.871300
H -0.571000 -14.205500 -17.902700
C -0.180900 -12.156400 -20.434600
N -0.080000 -11.651100 -21.732000
H 0.661100 -11.195400 -21.919500
O 0.734300 -12.024700 -19.630200
O -6.467500 -10.503200 -22.248400
H -6.394400 -11.332500 -19.959000
N -5.653300 -10.876800 -20.146500
C -5.552400 -10.371500 -21.443900
H -5.162200 -8.322400 -23.975900
O -4.978300 -11.301000 -18.007200
C -4.743900 -10.816200 -19.117800
H -4.557900 -9.569000 -24.454000
C -4.324000 -8.842700 -24.027000
C -4.287200 -9.733300 -21.626600
H -3.756800 -8.208400 -24.529300
N -3.723000 -9.077200 -22.713700
N -3.545600 -10.198700 -19.390200
C -3.343500 -9.662800 -20.648100
H -2.811800 -9.556300 -17.559700
C -2.535500 -10.084800 -18.330900
C -2.509000 -8.683200 -22.316400
H -2.332600 -10.997400 -18.090300
N -2.220000 -9.021100 -21.052600
H -1.890000 -8.199300 -22.888600
H -1.733100 -9.607400 -18.721100
