21
Fragment
H -4.000200 -12.920500 -23.157400
H -3.843300 -14.328600 -18.990000
N -3.513300 -13.506800 -20.825900
H -3.400600 -11.530500 -23.788300
C -3.224300 -13.844700 -19.562200
C -3.197800 -12.443100 -23.547600
H -2.921400 -12.971600 -24.318900
C -2.389800 -12.865100 -21.230500
N -2.187600 -12.329200 -22.488400
N -2.010300 -13.450700 -19.164900
H -1.976400 -14.319500 -17.349300
C -1.446100 -12.794600 -20.251900
C -1.409300 -13.685200 -17.851600
H -1.175300 -12.958900 -17.424600
C -0.989400 -11.711700 -22.760700
O -0.755000 -11.226900 -23.871300
H -0.571000 -14.205500 -17.902700
C -0.180900 -12.156400 -20.434600
N -0.080000 -11.651100 -21.732000
H 0.661100 -11.195400 -21.919500
O 0.734300 -12.024700 -19.630200
8
Fragment
H -0.496900 -8.509100 -19.927500
O 0.252100 -7.519400 -22.122400
O 0.395000 -8.462600 -20.088400
C 0.842300 -7.747900 -21.078500
C 2.316500 -7.270700 -20.800100
O 2.763800 -6.556000 -21.790100
O 2.906700 -7.499200 -19.756200
H 3.655700 -6.509500 -21.951100
29
Fragment
H -4.000200 -12.920500 -23.157400
H -3.843300 -14.328600 -18.990000
N -3.513300 -13.506800 -20.825900
H -3.400600 -11.530500 -23.788300
C -3.224300 -13.844700 -19.562200
C -3.197800 -12.443100 -23.547600
H -2.921400 -12.971600 -24.318900
C -2.389800 -12.865100 -21.230500
N -2.187600 -12.329200 -22.488400
N -2.010300 -13.450700 -19.164900
H -1.976400 -14.319500 -17.349300
C -1.446100 -12.794600 -20.251900
C -1.409300 -13.685200 -17.851600
H -1.175300 -12.958900 -17.424600
C -0.989400 -11.711700 -22.760700
O -0.755000 -11.226900 -23.871300
H -0.571000 -14.205500 -17.902700
C -0.180900 -12.156400 -20.434600
N -0.080000 -11.651100 -21.732000
H 0.661100 -11.195400 -21.919500
O 0.734300 -12.024700 -19.630200
H -0.496900 -8.509100 -19.927500
O 0.252100 -7.519400 -22.122400
O 0.395000 -8.462600 -20.088400
C 0.842300 -7.747900 -21.078500
C 2.316500 -7.270700 -20.800100
O 2.763800 -6.556000 -21.790100
O 2.906700 -7.499200 -19.756200
H 3.655700 -6.509500 -21.951100
