8
Fragment
H -12.247200 -11.571300 -18.174100
C -11.279300 -11.585100 -18.327700
H -11.063900 -12.274500 -18.990400
H -10.988500 -10.710500 -18.659800
O -10.843700 -13.104800 -16.599900
C -10.573500 -11.891600 -17.040500
H -10.435400 -13.238000 -15.878000
O -9.852800 -11.114100 -16.465000
15
Fragment
H -9.105800 -9.177100 -10.887400
N -8.526200 -10.435700 -13.146500
N -8.476900 -9.786500 -10.800700
H -8.190100 -9.532600 -8.846600
C -8.051800 -10.508700 -11.864200
H -7.910000 -11.510400 -14.729800
C -7.903500 -10.032500 -9.601900
C -7.801700 -11.331500 -13.803100
C -7.036400 -11.450100 -11.754600
C -6.924200 -10.975900 -9.435400
N -6.897200 -11.963600 -13.029900
H -6.565200 -11.112800 -8.566500
C -6.420400 -11.762900 -10.519000
H -6.328100 -12.583400 -13.287400
O -5.517200 -12.662500 -10.387200
23
Fragment
H -12.247200 -11.571300 -18.174100
C -11.279300 -11.585100 -18.327700
H -11.063900 -12.274500 -18.990400
H -10.988500 -10.710500 -18.659800
O -10.843700 -13.104800 -16.599900
C -10.573500 -11.891600 -17.040500
H -10.435400 -13.238000 -15.878000
O -9.852800 -11.114100 -16.465000
H -9.105800 -9.177100 -10.887400
N -8.526200 -10.435700 -13.146500
N -8.476900 -9.786500 -10.800700
H -8.190100 -9.532600 -8.846600
C -8.051800 -10.508700 -11.864200
H -7.910000 -11.510400 -14.729800
C -7.903500 -10.032500 -9.601900
C -7.801700 -11.331500 -13.803100
C -7.036400 -11.450100 -11.754600
C -6.924200 -10.975900 -9.435400
N -6.897200 -11.963600 -13.029900
H -6.565200 -11.112800 -8.566500
C -6.420400 -11.762900 -10.519000
H -6.328100 -12.583400 -13.287400
O -5.517200 -12.662500 -10.387200
