8
Fragment
H -12.247200 -11.571300 -18.174100
C -11.279300 -11.585100 -18.327700
H -11.063900 -12.274500 -18.990400
H -10.988500 -10.710500 -18.659800
O -10.843700 -13.104800 -16.599900
C -10.573500 -11.891600 -17.040500
H -10.435400 -13.238000 -15.878000
O -9.852800 -11.114100 -16.465000
8
Fragment
O -10.732000 -8.420500 -20.558800
H -10.149300 -6.296500 -21.145800
C -10.011200 -7.642900 -19.983400
O -9.741100 -6.429700 -20.424000
H -9.596200 -8.824000 -18.364100
H -9.520900 -7.260100 -18.033400
C -9.305400 -7.949400 -18.696200
H -8.337500 -7.963200 -18.849700
16
Fragment
H -12.247200 -11.571300 -18.174100
C -11.279300 -11.585100 -18.327700
H -11.063900 -12.274500 -18.990400
H -10.988500 -10.710500 -18.659800
O -10.843700 -13.104800 -16.599900
C -10.573500 -11.891600 -17.040500
H -10.435400 -13.238000 -15.878000
O -9.852800 -11.114100 -16.465000
O -10.732000 -8.420500 -20.558800
H -10.149300 -6.296500 -21.145800
C -10.011200 -7.642900 -19.983400
O -9.741100 -6.429700 -20.424000
H -9.596200 -8.824000 -18.364100
H -9.520900 -7.260100 -18.033400
C -9.305400 -7.949400 -18.696200
H -8.337500 -7.963200 -18.849700
