15
Fragment
H -7.025400 -33.669500 -15.493800
N -6.370200 -33.761600 -14.913700
N -6.338100 -31.411200 -14.297800
H -6.124200 -35.716800 -15.166700
C -5.891600 -32.699900 -14.218900
C -5.804100 -34.964400 -14.683000
H -5.623100 -29.827300 -13.280600
C -5.555000 -30.760900 -13.442200
C -4.849800 -32.829200 -13.315700
C -4.796600 -35.148000 -13.789400
N -4.660700 -31.549100 -12.829700
H -4.443200 -36.022300 -13.673700
C -4.243500 -34.070800 -13.011500
H -4.066000 -31.298900 -12.231300
O -3.320300 -34.223700 -12.150700
15
Fragment
O -11.427900 -30.189300 -18.871900
H -10.682300 -33.114100 -18.791200
C -10.504800 -30.342200 -18.011100
H -10.305100 -28.390700 -17.348900
N -10.087500 -32.863900 -18.192900
C -9.951700 -29.265000 -17.233200
C -9.898500 -31.583800 -17.706800
C -9.193300 -33.652100 -17.580400
H -9.125200 -34.585700 -17.742000
C -8.944200 -29.448600 -16.339600
C -8.856600 -31.713100 -16.803700
H -8.624100 -28.696200 -15.855900
N -8.410200 -33.001800 -16.724800
N -8.378100 -30.651400 -16.108900
H -7.722900 -30.743500 -15.528800
30
Fragment
H -7.025400 -33.669500 -15.493800
N -6.370200 -33.761600 -14.913700
N -6.338100 -31.411200 -14.297800
H -6.124200 -35.716800 -15.166700
C -5.891600 -32.699900 -14.218900
C -5.804100 -34.964400 -14.683000
H -5.623100 -29.827300 -13.280600
C -5.555000 -30.760900 -13.442200
C -4.849800 -32.829200 -13.315700
C -4.796600 -35.148000 -13.789400
N -4.660700 -31.549100 -12.829700
H -4.443200 -36.022300 -13.673700
C -4.243500 -34.070800 -13.011500
H -4.066000 -31.298900 -12.231300
O -3.320300 -34.223700 -12.150700
O -11.427900 -30.189300 -18.871900
H -10.682300 -33.114100 -18.791200
C -10.504800 -30.342200 -18.011100
H -10.305100 -28.390700 -17.348900
N -10.087500 -32.863900 -18.192900
C -9.951700 -29.265000 -17.233200
C -9.898500 -31.583800 -17.706800
C -9.193300 -33.652100 -17.580400
H -9.125200 -34.585700 -17.742000
C -8.944200 -29.448600 -16.339600
C -8.856600 -31.713100 -16.803700
H -8.624100 -28.696200 -15.855900
N -8.410200 -33.001800 -16.724800
N -8.378100 -30.651400 -16.108900
H -7.722900 -30.743500 -15.528800
