8
Fragment
H -12.247200 -11.571300 -18.174100
C -11.279300 -11.585100 -18.327700
H -11.063900 -12.274500 -18.990400
H -10.988500 -10.710500 -18.659800
O -10.843700 -13.104800 -16.599900
C -10.573500 -11.891600 -17.040500
H -10.435400 -13.238000 -15.878000
O -9.852800 -11.114100 -16.465000
8
Fragment
O -11.720500 -16.445000 -20.558800
H -11.137900 -14.321000 -21.145800
C -10.999800 -15.667500 -19.983400
O -10.729600 -14.454200 -20.424000
H -10.584800 -16.848600 -18.364100
H -10.509400 -15.284600 -18.033400
C -10.294000 -15.973900 -18.696200
H -9.326100 -15.987700 -18.849700
16
Fragment
H -12.247200 -11.571300 -18.174100
C -11.279300 -11.585100 -18.327700
H -11.063900 -12.274500 -18.990400
H -10.988500 -10.710500 -18.659800
O -10.843700 -13.104800 -16.599900
C -10.573500 -11.891600 -17.040500
H -10.435400 -13.238000 -15.878000
O -9.852800 -11.114100 -16.465000
O -11.720500 -16.445000 -20.558800
H -11.137900 -14.321000 -21.145800
C -10.999800 -15.667500 -19.983400
O -10.729600 -14.454200 -20.424000
H -10.584800 -16.848600 -18.364100
H -10.509400 -15.284600 -18.033400
C -10.294000 -15.973900 -18.696200
H -9.326100 -15.987700 -18.849700
