15
Fragment
H -7.025400 -33.669500 -15.493800
N -6.370200 -33.761600 -14.913700
N -6.338100 -31.411200 -14.297800
H -6.124200 -35.716800 -15.166700
C -5.891600 -32.699900 -14.218900
C -5.804100 -34.964400 -14.683000
H -5.623100 -29.827300 -13.280600
C -5.555000 -30.760900 -13.442200
C -4.849800 -32.829200 -13.315700
C -4.796600 -35.148000 -13.789400
N -4.660700 -31.549100 -12.829700
H -4.443200 -36.022300 -13.673700
C -4.243500 -34.070800 -13.011500
H -4.066000 -31.298900 -12.231300
O -3.320300 -34.223700 -12.150700
3
Fragment
H -4.346400 -27.547300 -12.308200
O -3.618800 -27.605500 -11.796000
H -3.547800 -28.462000 -11.594700
18
Fragment
H -7.025400 -33.669500 -15.493800
N -6.370200 -33.761600 -14.913700
N -6.338100 -31.411200 -14.297800
H -6.124200 -35.716800 -15.166700
C -5.891600 -32.699900 -14.218900
C -5.804100 -34.964400 -14.683000
H -5.623100 -29.827300 -13.280600
C -5.555000 -30.760900 -13.442200
C -4.849800 -32.829200 -13.315700
C -4.796600 -35.148000 -13.789400
N -4.660700 -31.549100 -12.829700
H -4.443200 -36.022300 -13.673700
C -4.243500 -34.070800 -13.011500
H -4.066000 -31.298900 -12.231300
O -3.320300 -34.223700 -12.150700
H -4.346400 -27.547300 -12.308200
O -3.618800 -27.605500 -11.796000
H -3.547800 -28.462000 -11.594700
