8
Fragment
H -12.247200 -11.571300 -18.174100
C -11.279300 -11.585100 -18.327700
H -11.063900 -12.274500 -18.990400
H -10.988500 -10.710500 -18.659800
O -10.843700 -13.104800 -16.599900
C -10.573500 -11.891600 -17.040500
H -10.435400 -13.238000 -15.878000
O -9.852800 -11.114100 -16.465000
15
Fragment
O -14.463800 -13.734700 -14.295400
H -13.652900 -13.813900 -11.395200
C -13.560500 -14.634400 -14.163600
H -13.415700 -15.284400 -16.116100
N -13.083800 -14.433700 -11.652600
C -13.056800 -15.421300 -15.247200
C -12.944600 -14.947200 -12.928000
C -12.179200 -15.065800 -10.879500
C -12.077400 -16.364800 -15.080700
H -12.070900 -14.886900 -9.952700
C -11.929200 -15.888500 -12.818400
H -11.790800 -16.864600 -15.836000
N -11.504100 -16.610800 -13.881800
N -11.454800 -15.961600 -11.536000
H -10.875200 -17.220200 -13.795200
23
Fragment
H -12.247200 -11.571300 -18.174100
C -11.279300 -11.585100 -18.327700
H -11.063900 -12.274500 -18.990400
H -10.988500 -10.710500 -18.659800
O -10.843700 -13.104800 -16.599900
C -10.573500 -11.891600 -17.040500
H -10.435400 -13.238000 -15.878000
O -9.852800 -11.114100 -16.465000
O -14.463800 -13.734700 -14.295400
H -13.652900 -13.813900 -11.395200
C -13.560500 -14.634400 -14.163600
H -13.415700 -15.284400 -16.116100
N -13.083800 -14.433700 -11.652600
C -13.056800 -15.421300 -15.247200
C -12.944600 -14.947200 -12.928000
C -12.179200 -15.065800 -10.879500
C -12.077400 -16.364800 -15.080700
H -12.070900 -14.886900 -9.952700
C -11.929200 -15.888500 -12.818400
H -11.790800 -16.864600 -15.836000
N -11.504100 -16.610800 -13.881800
N -11.454800 -15.961600 -11.536000
H -10.875200 -17.220200 -13.795200
