33
Fragment
H -32.623800 -13.227300 -9.114600
O -32.519300 -14.008300 -9.586400
H -32.097600 -15.608200 -11.315800
H -31.909100 -12.905200 -11.164200
H -31.786300 -14.251000 -13.240200
C -31.555800 -13.696600 -10.586900
C -31.322900 -14.956100 -11.428500
H -31.118200 -15.677200 -13.378600
C -31.065800 -14.728300 -12.901400
H -30.519600 -13.008800 -8.152400
O -30.205000 -12.662600 -8.794300
C -30.188400 -13.441200 -9.971300
O -30.152500 -15.604800 -10.880800
H -29.951600 -15.274700 -8.936600
O -29.817000 -14.084200 -13.132100
H -29.676200 -12.974300 -10.610600
C -29.656200 -14.861700 -9.786100
H -29.069000 -14.768600 -13.009500
N -28.203300 -14.929600 -9.802600
H -28.074900 -19.714400 -9.806600
N -27.919900 -17.345000 -9.702400
H -27.594300 -12.974300 -9.859300
C -27.442900 -16.078600 -9.755100
C -27.300400 -13.885200 -9.856600
N -27.232500 -19.541900 -9.732100
C -26.941600 -18.235300 -9.732700
H -26.545600 -20.163000 -9.720900
C -26.134600 -15.661100 -9.801900
N -26.060000 -14.275100 -9.857300
N -25.609100 -17.920100 -9.776900
C -25.096700 -16.629600 -9.831600
H -24.974200 -18.610200 -9.806600
O -23.880900 -16.430600 -9.905400
33
Fragment
O -25.834600 -22.181600 -9.865900
H -24.741300 -24.361200 -9.964700
C -24.618700 -22.380600 -9.939700
N -24.106400 -23.671100 -9.994400
N -23.655400 -20.026100 -9.914000
C -23.580900 -21.412100 -9.969300
H -23.169900 -25.914000 -10.050400
C -22.773900 -23.986300 -10.038500
N -22.483000 -25.292900 -10.039200
C -22.415100 -19.636200 -9.914600
C -22.272600 -21.829600 -10.016100
H -22.121100 -18.725300 -9.912000
N -21.795600 -23.096000 -10.068900
H -21.640600 -25.465400 -9.964700
N -21.512100 -20.680600 -9.968700
H -20.646400 -20.519600 -6.761800
C -20.059300 -20.612700 -9.985200
H -20.039300 -18.725300 -9.160700
O -19.898500 -19.835200 -6.639200
H -19.763900 -21.025700 -10.834700
O -19.563000 -21.355800 -8.890500
C -19.527100 -19.192200 -9.800000
O -19.510500 -18.413600 -10.977000
H -19.195800 -18.759800 -11.618900
C -18.649600 -20.479300 -6.869900
H -18.597300 -21.428200 -6.392700
C -18.392600 -20.707100 -8.342800
C -18.159700 -19.447600 -9.184400
H -17.929200 -20.002000 -6.531100
H -17.806400 -18.656200 -8.607100
H -17.617900 -21.359200 -8.455500
O -17.196200 -19.759300 -10.184800
H -17.091700 -18.978300 -10.656700
66
Fragment
H -32.623800 -13.227300 -9.114600
O -32.519300 -14.008300 -9.586400
H -32.097600 -15.608200 -11.315800
H -31.909100 -12.905200 -11.164200
H -31.786300 -14.251000 -13.240200
C -31.555800 -13.696600 -10.586900
C -31.322900 -14.956100 -11.428500
H -31.118200 -15.677200 -13.378600
C -31.065800 -14.728300 -12.901400
H -30.519600 -13.008800 -8.152400
O -30.205000 -12.662600 -8.794300
C -30.188400 -13.441200 -9.971300
O -30.152500 -15.604800 -10.880800
H -29.951600 -15.274700 -8.936600
O -29.817000 -14.084200 -13.132100
H -29.676200 -12.974300 -10.610600
C -29.656200 -14.861700 -9.786100
H -29.069000 -14.768600 -13.009500
N -28.203300 -14.929600 -9.802600
H -28.074900 -19.714400 -9.806600
N -27.919900 -17.345000 -9.702400
H -27.594300 -12.974300 -9.859300
C -27.442900 -16.078600 -9.755100
C -27.300400 -13.885200 -9.856600
N -27.232500 -19.541900 -9.732100
C -26.941600 -18.235300 -9.732700
H -26.545600 -20.163000 -9.720900
C -26.134600 -15.661100 -9.801900
N -26.060000 -14.275100 -9.857300
N -25.609100 -17.920100 -9.776900
C -25.096700 -16.629600 -9.831600
H -24.974200 -18.610200 -9.806600
O -23.880900 -16.430600 -9.905400
O -25.834600 -22.181600 -9.865900
H -24.741300 -24.361200 -9.964700
C -24.618700 -22.380600 -9.939700
N -24.106400 -23.671100 -9.994400
N -23.655400 -20.026100 -9.914000
C -23.580900 -21.412100 -9.969300
H -23.169900 -25.914000 -10.050400
C -22.773900 -23.986300 -10.038500
N -22.483000 -25.292900 -10.039200
C -22.415100 -19.636200 -9.914600
C -22.272600 -21.829600 -10.016100
H -22.121100 -18.725300 -9.912000
N -21.795600 -23.096000 -10.068900
H -21.640600 -25.465400 -9.964700
N -21.512100 -20.680600 -9.968700
H -20.646400 -20.519600 -6.761800
C -20.059300 -20.612700 -9.985200
H -20.039300 -18.725300 -9.160700
O -19.898500 -19.835200 -6.639200
H -19.763900 -21.025700 -10.834700
O -19.563000 -21.355800 -8.890500
C -19.527100 -19.192200 -9.800000
O -19.510500 -18.413600 -10.977000
H -19.195800 -18.759800 -11.618900
C -18.649600 -20.479300 -6.869900
H -18.597300 -21.428200 -6.392700
C -18.392600 -20.707100 -8.342800
C -18.159700 -19.447600 -9.184400
H -17.929200 -20.002000 -6.531100
H -17.806400 -18.656200 -8.607100
H -17.617900 -21.359200 -8.455500
O -17.196200 -19.759300 -10.184800
H -17.091700 -18.978300 -10.656700
