33
Fragment
H -32.623800 -13.227300 -9.114600
O -32.519300 -14.008300 -9.586400
H -32.097600 -15.608200 -11.315800
H -31.909100 -12.905200 -11.164200
H -31.786300 -14.251000 -13.240200
C -31.555800 -13.696600 -10.586900
C -31.322900 -14.956100 -11.428500
H -31.118200 -15.677200 -13.378600
C -31.065800 -14.728300 -12.901400
H -30.519600 -13.008800 -8.152400
O -30.205000 -12.662600 -8.794300
C -30.188400 -13.441200 -9.971300
O -30.152500 -15.604800 -10.880800
H -29.951600 -15.274700 -8.936600
O -29.817000 -14.084200 -13.132100
H -29.676200 -12.974300 -10.610600
C -29.656200 -14.861700 -9.786100
H -29.069000 -14.768600 -13.009500
N -28.203300 -14.929600 -9.802600
H -28.074900 -19.714400 -9.806600
N -27.919900 -17.345000 -9.702400
H -27.594300 -12.974300 -9.859300
C -27.442900 -16.078600 -9.755100
C -27.300400 -13.885200 -9.856600
N -27.232500 -19.541900 -9.732100
C -26.941600 -18.235300 -9.732700
H -26.545600 -20.163000 -9.720900
C -26.134600 -15.661100 -9.801900
N -26.060000 -14.275100 -9.857300
N -25.609100 -17.920100 -9.776900
C -25.096700 -16.629600 -9.831600
H -24.974200 -18.610200 -9.806600
O -23.880900 -16.430600 -9.905400
33
Fragment
H -33.077200 -17.575100 -7.908500
O -32.957800 -17.994900 -7.154600
H -32.896600 -21.244200 -5.628200
H -32.438200 -19.035800 -5.160300
H -32.382700 -19.829400 -7.743800
C -32.071100 -19.104800 -7.205300
C -31.927700 -21.049800 -5.532000
C -31.802300 -19.561500 -5.770600
H -31.673100 -21.290200 -4.633100
O -31.263200 -21.818100 -6.523900
O -30.741100 -17.738400 -8.720500
C -30.675700 -18.683800 -7.687700
O -30.447000 -19.147400 -5.437100
H -30.401500 -22.152900 -6.168600
H -30.388700 -17.276000 -6.135700
H -30.124800 -19.541900 -7.974400
C -30.074300 -18.170900 -6.386100
H -29.889600 -17.667100 -9.002500
N -28.625100 -18.068500 -6.388800
H -28.494000 -13.158300 -6.399300
N -28.344800 -15.640400 -6.450100
H -27.964700 -20.059500 -6.425700
C -27.877900 -16.919400 -6.432300
C -27.742900 -19.109400 -6.420400
N -27.644300 -13.437800 -6.570700
C -27.357300 -14.751300 -6.507400
H -26.943400 -12.732700 -6.583800
C -26.563800 -17.341600 -6.470500
N -26.491400 -18.724100 -6.462600
N -26.030500 -15.079100 -6.524500
C -25.526300 -16.375400 -6.522500
H -25.432200 -14.458000 -6.616800
O -24.305500 -16.570900 -6.569300
66
Fragment
H -32.623800 -13.227300 -9.114600
O -32.519300 -14.008300 -9.586400
H -32.097600 -15.608200 -11.315800
H -31.909100 -12.905200 -11.164200
H -31.786300 -14.251000 -13.240200
C -31.555800 -13.696600 -10.586900
C -31.322900 -14.956100 -11.428500
H -31.118200 -15.677200 -13.378600
C -31.065800 -14.728300 -12.901400
H -30.519600 -13.008800 -8.152400
O -30.205000 -12.662600 -8.794300
C -30.188400 -13.441200 -9.971300
O -30.152500 -15.604800 -10.880800
H -29.951600 -15.274700 -8.936600
O -29.817000 -14.084200 -13.132100
H -29.676200 -12.974300 -10.610600
C -29.656200 -14.861700 -9.786100
H -29.069000 -14.768600 -13.009500
N -28.203300 -14.929600 -9.802600
H -28.074900 -19.714400 -9.806600
N -27.919900 -17.345000 -9.702400
H -27.594300 -12.974300 -9.859300
C -27.442900 -16.078600 -9.755100
C -27.300400 -13.885200 -9.856600
N -27.232500 -19.541900 -9.732100
C -26.941600 -18.235300 -9.732700
H -26.545600 -20.163000 -9.720900
C -26.134600 -15.661100 -9.801900
N -26.060000 -14.275100 -9.857300
N -25.609100 -17.920100 -9.776900
C -25.096700 -16.629600 -9.831600
H -24.974200 -18.610200 -9.806600
O -23.880900 -16.430600 -9.905400
H -33.077200 -17.575100 -7.908500
O -32.957800 -17.994900 -7.154600
H -32.896600 -21.244200 -5.628200
H -32.438200 -19.035800 -5.160300
H -32.382700 -19.829400 -7.743800
C -32.071100 -19.104800 -7.205300
C -31.927700 -21.049800 -5.532000
C -31.802300 -19.561500 -5.770600
H -31.673100 -21.290200 -4.633100
O -31.263200 -21.818100 -6.523900
O -30.741100 -17.738400 -8.720500
C -30.675700 -18.683800 -7.687700
O -30.447000 -19.147400 -5.437100
H -30.401500 -22.152900 -6.168600
H -30.388700 -17.276000 -6.135700
H -30.124800 -19.541900 -7.974400
C -30.074300 -18.170900 -6.386100
H -29.889600 -17.667100 -9.002500
N -28.625100 -18.068500 -6.388800
H -28.494000 -13.158300 -6.399300
N -28.344800 -15.640400 -6.450100
H -27.964700 -20.059500 -6.425700
C -27.877900 -16.919400 -6.432300
C -27.742900 -19.109400 -6.420400
N -27.644300 -13.437800 -6.570700
C -27.357300 -14.751300 -6.507400
H -26.943400 -12.732700 -6.583800
C -26.563800 -17.341600 -6.470500
N -26.491400 -18.724100 -6.462600
N -26.030500 -15.079100 -6.524500
C -25.526300 -16.375400 -6.522500
H -25.432200 -14.458000 -6.616800
O -24.305500 -16.570900 -6.569300
