33
Fragment
H -32.623800 -13.227300 -9.114600
O -32.519300 -14.008300 -9.586400
H -32.097600 -15.608200 -11.315800
H -31.909100 -12.905200 -11.164200
H -31.786300 -14.251000 -13.240200
C -31.555800 -13.696600 -10.586900
C -31.322900 -14.956100 -11.428500
H -31.118200 -15.677200 -13.378600
C -31.065800 -14.728300 -12.901400
H -30.519600 -13.008800 -8.152400
O -30.205000 -12.662600 -8.794300
C -30.188400 -13.441200 -9.971300
O -30.152500 -15.604800 -10.880800
H -29.951600 -15.274700 -8.936600
O -29.817000 -14.084200 -13.132100
H -29.676200 -12.974300 -10.610600
C -29.656200 -14.861700 -9.786100
H -29.069000 -14.768600 -13.009500
N -28.203300 -14.929600 -9.802600
H -28.074900 -19.714400 -9.806600
N -27.919900 -17.345000 -9.702400
H -27.594300 -12.974300 -9.859300
C -27.442900 -16.078600 -9.755100
C -27.300400 -13.885200 -9.856600
N -27.232500 -19.541900 -9.732100
C -26.941600 -18.235300 -9.732700
H -26.545600 -20.163000 -9.720900
C -26.134600 -15.661100 -9.801900
N -26.060000 -14.275100 -9.857300
N -25.609100 -17.920100 -9.776900
C -25.096700 -16.629600 -9.831600
H -24.974200 -18.610200 -9.806600
O -23.880900 -16.430600 -9.905400
33
Fragment
H -31.677600 -13.227300 -15.705000
O -31.573100 -14.008300 -16.176900
H -31.151400 -15.608200 -17.906200
H -30.962900 -12.905200 -17.754600
H -30.840100 -14.251000 -19.830600
C -30.609600 -13.696600 -17.177300
C -30.376700 -14.956100 -18.018900
H -30.172000 -15.677200 -19.969000
C -30.119700 -14.728300 -19.491800
H -29.573500 -13.008800 -14.742800
O -29.258800 -12.662600 -15.384700
C -29.242300 -13.441200 -16.561700
O -29.206300 -15.604800 -17.471200
H -29.005400 -15.274700 -15.527000
O -28.870800 -14.084200 -19.722500
H -28.730000 -12.974300 -17.201000
C -28.710000 -14.861700 -16.376600
H -28.122900 -14.768600 -19.599900
N -27.257200 -14.929600 -16.393000
H -27.128700 -19.714400 -16.397000
N -26.973700 -17.345000 -16.292900
H -26.648200 -12.974300 -16.449700
C -26.496700 -16.078600 -16.345600
C -26.354200 -13.885200 -16.447100
N -26.286300 -19.541900 -16.322500
C -25.995400 -18.235300 -16.323200
H -25.599400 -20.163000 -16.311300
C -25.188400 -15.661100 -16.392400
N -25.113900 -14.275100 -16.447700
N -24.662900 -17.920100 -16.367300
C -24.150600 -16.629600 -16.422000
H -24.028000 -18.610200 -16.397000
O -22.934700 -16.430600 -16.495800
66
Fragment
H -32.623800 -13.227300 -9.114600
O -32.519300 -14.008300 -9.586400
H -32.097600 -15.608200 -11.315800
H -31.909100 -12.905200 -11.164200
H -31.786300 -14.251000 -13.240200
C -31.555800 -13.696600 -10.586900
C -31.322900 -14.956100 -11.428500
H -31.118200 -15.677200 -13.378600
C -31.065800 -14.728300 -12.901400
H -30.519600 -13.008800 -8.152400
O -30.205000 -12.662600 -8.794300
C -30.188400 -13.441200 -9.971300
O -30.152500 -15.604800 -10.880800
H -29.951600 -15.274700 -8.936600
O -29.817000 -14.084200 -13.132100
H -29.676200 -12.974300 -10.610600
C -29.656200 -14.861700 -9.786100
H -29.069000 -14.768600 -13.009500
N -28.203300 -14.929600 -9.802600
H -28.074900 -19.714400 -9.806600
N -27.919900 -17.345000 -9.702400
H -27.594300 -12.974300 -9.859300
C -27.442900 -16.078600 -9.755100
C -27.300400 -13.885200 -9.856600
N -27.232500 -19.541900 -9.732100
C -26.941600 -18.235300 -9.732700
H -26.545600 -20.163000 -9.720900
C -26.134600 -15.661100 -9.801900
N -26.060000 -14.275100 -9.857300
N -25.609100 -17.920100 -9.776900
C -25.096700 -16.629600 -9.831600
H -24.974200 -18.610200 -9.806600
O -23.880900 -16.430600 -9.905400
H -31.677600 -13.227300 -15.705000
O -31.573100 -14.008300 -16.176900
H -31.151400 -15.608200 -17.906200
H -30.962900 -12.905200 -17.754600
H -30.840100 -14.251000 -19.830600
C -30.609600 -13.696600 -17.177300
C -30.376700 -14.956100 -18.018900
H -30.172000 -15.677200 -19.969000
C -30.119700 -14.728300 -19.491800
H -29.573500 -13.008800 -14.742800
O -29.258800 -12.662600 -15.384700
C -29.242300 -13.441200 -16.561700
O -29.206300 -15.604800 -17.471200
H -29.005400 -15.274700 -15.527000
O -28.870800 -14.084200 -19.722500
H -28.730000 -12.974300 -17.201000
C -28.710000 -14.861700 -16.376600
H -28.122900 -14.768600 -19.599900
N -27.257200 -14.929600 -16.393000
H -27.128700 -19.714400 -16.397000
N -26.973700 -17.345000 -16.292900
H -26.648200 -12.974300 -16.449700
C -26.496700 -16.078600 -16.345600
C -26.354200 -13.885200 -16.447100
N -26.286300 -19.541900 -16.322500
C -25.995400 -18.235300 -16.323200
H -25.599400 -20.163000 -16.311300
C -25.188400 -15.661100 -16.392400
N -25.113900 -14.275100 -16.447700
N -24.662900 -17.920100 -16.367300
C -24.150600 -16.629600 -16.422000
H -24.028000 -18.610200 -16.397000
O -22.934700 -16.430600 -16.495800
