27
Fragment
H -10.736500 -17.885500 -21.170200
H -10.734700 -18.857800 -19.105200
N -10.683400 -19.063600 -16.504400
C -10.660200 -17.349900 -20.413600
C -10.652800 -17.934600 -19.180300
H -10.592700 -15.609300 -21.412300
C -10.558200 -15.986500 -20.562600
C -10.533800 -17.713200 -16.680900
C -10.520900 -17.141300 -18.013500
C -10.404000 -15.180200 -19.461400
C -10.393400 -15.736200 -18.181600
N -10.372800 -17.000000 -15.588100
H -10.307400 -14.261300 -19.568100
C -10.250500 -15.663500 -15.787900
C -10.240600 -14.977700 -16.967300
H -10.087000 -15.683500 -13.029600
N -10.078100 -14.732000 -14.801800
N -10.065600 -13.637200 -16.772800
C -10.026800 -14.845900 -13.428000
C -9.964700 -13.497100 -15.464500
C -9.890400 -13.750000 -12.666000
C -9.854100 -13.857500 -11.265700
C -9.807500 -12.365100 -14.667600
N -9.801900 -13.958700 -10.115900
C -9.756300 -12.469900 -13.287400
H -9.736100 -11.528800 -15.068200
H -9.634200 -11.708700 -12.766400
27
Fragment
H -13.854700 -29.044700 -18.938200
H -13.752800 -29.224500 -16.636500
C -13.732600 -28.283500 -18.417200
N -13.687000 -26.794700 -21.588700
C -13.681400 -28.388300 -17.037000
C -13.634800 -26.895800 -20.438900
C -13.598500 -27.003300 -19.038600
C -13.524200 -27.256200 -16.240200
C -13.462100 -25.907400 -18.276700
N -13.423300 -27.116200 -14.931800
N -13.410800 -26.021400 -16.902800
H -13.401900 -25.069800 -18.675100
C -13.248300 -25.775600 -14.737400
C -13.238400 -25.089900 -15.916800
H -13.181500 -26.492000 -12.136500
N -13.116100 -23.753400 -16.116500
C -13.095500 -25.017100 -13.523100
C -13.085000 -25.573100 -12.243300
C -12.968000 -23.612000 -13.691100
C -12.955100 -23.040100 -15.023800
C -12.930700 -24.766800 -11.142100
H -12.896200 -25.144000 -10.292400
C -12.836100 -22.818700 -12.524400
C -12.828700 -23.403500 -11.291100
N -12.805500 -21.689700 -15.200300
H -12.754200 -21.895500 -12.599400
H -12.752400 -22.867800 -10.534400
54
Fragment
H -10.736500 -17.885500 -21.170200
H -10.734700 -18.857800 -19.105200
N -10.683400 -19.063600 -16.504400
C -10.660200 -17.349900 -20.413600
C -10.652800 -17.934600 -19.180300
H -10.592700 -15.609300 -21.412300
C -10.558200 -15.986500 -20.562600
C -10.533800 -17.713200 -16.680900
C -10.520900 -17.141300 -18.013500
C -10.404000 -15.180200 -19.461400
C -10.393400 -15.736200 -18.181600
N -10.372800 -17.000000 -15.588100
H -10.307400 -14.261300 -19.568100
C -10.250500 -15.663500 -15.787900
C -10.240600 -14.977700 -16.967300
H -10.087000 -15.683500 -13.029600
N -10.078100 -14.732000 -14.801800
N -10.065600 -13.637200 -16.772800
C -10.026800 -14.845900 -13.428000
C -9.964700 -13.497100 -15.464500
C -9.890400 -13.750000 -12.666000
C -9.854100 -13.857500 -11.265700
C -9.807500 -12.365100 -14.667600
N -9.801900 -13.958700 -10.115900
C -9.756300 -12.469900 -13.287400
H -9.736100 -11.528800 -15.068200
H -9.634200 -11.708700 -12.766400
H -13.854700 -29.044700 -18.938200
H -13.752800 -29.224500 -16.636500
C -13.732600 -28.283500 -18.417200
N -13.687000 -26.794700 -21.588700
C -13.681400 -28.388300 -17.037000
C -13.634800 -26.895800 -20.438900
C -13.598500 -27.003300 -19.038600
C -13.524200 -27.256200 -16.240200
C -13.462100 -25.907400 -18.276700
N -13.423300 -27.116200 -14.931800
N -13.410800 -26.021400 -16.902800
H -13.401900 -25.069800 -18.675100
C -13.248300 -25.775600 -14.737400
C -13.238400 -25.089900 -15.916800
H -13.181500 -26.492000 -12.136500
N -13.116100 -23.753400 -16.116500
C -13.095500 -25.017100 -13.523100
C -13.085000 -25.573100 -12.243300
C -12.968000 -23.612000 -13.691100
C -12.955100 -23.040100 -15.023800
C -12.930700 -24.766800 -11.142100
H -12.896200 -25.144000 -10.292400
C -12.836100 -22.818700 -12.524400
C -12.828700 -23.403500 -11.291100
N -12.805500 -21.689700 -15.200300
H -12.754200 -21.895500 -12.599400
H -12.752400 -22.867800 -10.534400
