27
Fragment
H -10.736500 -17.885500 -21.170200
H -10.734700 -18.857800 -19.105200
N -10.683400 -19.063600 -16.504400
C -10.660200 -17.349900 -20.413600
C -10.652800 -17.934600 -19.180300
H -10.592700 -15.609300 -21.412300
C -10.558200 -15.986500 -20.562600
C -10.533800 -17.713200 -16.680900
C -10.520900 -17.141300 -18.013500
C -10.404000 -15.180200 -19.461400
C -10.393400 -15.736200 -18.181600
N -10.372800 -17.000000 -15.588100
H -10.307400 -14.261300 -19.568100
C -10.250500 -15.663500 -15.787900
C -10.240600 -14.977700 -16.967300
H -10.087000 -15.683500 -13.029600
N -10.078100 -14.732000 -14.801800
N -10.065600 -13.637200 -16.772800
C -10.026800 -14.845900 -13.428000
C -9.964700 -13.497100 -15.464500
C -9.890400 -13.750000 -12.666000
C -9.854100 -13.857500 -11.265700
C -9.807500 -12.365100 -14.667600
N -9.801900 -13.958700 -10.115900
C -9.756300 -12.469900 -13.287400
H -9.736100 -11.528800 -15.068200
H -9.634200 -11.708700 -12.766400
27
Fragment
H -10.128500 -15.473500 -31.738500
H -10.126800 -16.445800 -29.673400
N -10.075400 -16.651600 -27.072600
C -10.052200 -14.937900 -30.981800
C -10.044900 -15.522600 -29.748500
H -9.984800 -13.197300 -31.980500
C -9.950300 -13.574600 -31.130800
C -9.925800 -15.301200 -27.249100
C -9.912900 -14.729300 -28.581700
C -9.796000 -12.768200 -30.029600
C -9.785500 -13.324200 -28.749800
N -9.764900 -14.588000 -26.156300
H -9.699400 -11.849300 -30.136300
C -9.642500 -13.251500 -26.356100
C -9.632600 -12.565800 -27.535500
H -9.479100 -13.271500 -23.597800
N -9.470200 -12.320000 -25.370100
N -9.457600 -11.225200 -27.341000
C -9.418900 -12.433900 -23.996200
C -9.356700 -11.085100 -26.032700
C -9.282400 -11.338000 -23.234200
C -9.246200 -11.445500 -21.833900
C -9.199600 -9.953100 -25.235800
N -9.194000 -11.546700 -20.684100
C -9.148400 -10.057900 -23.855600
H -9.128200 -9.116900 -25.636400
H -9.026300 -9.296700 -23.334600
54
Fragment
H -10.736500 -17.885500 -21.170200
H -10.734700 -18.857800 -19.105200
N -10.683400 -19.063600 -16.504400
C -10.660200 -17.349900 -20.413600
C -10.652800 -17.934600 -19.180300
H -10.592700 -15.609300 -21.412300
C -10.558200 -15.986500 -20.562600
C -10.533800 -17.713200 -16.680900
C -10.520900 -17.141300 -18.013500
C -10.404000 -15.180200 -19.461400
C -10.393400 -15.736200 -18.181600
N -10.372800 -17.000000 -15.588100
H -10.307400 -14.261300 -19.568100
C -10.250500 -15.663500 -15.787900
C -10.240600 -14.977700 -16.967300
H -10.087000 -15.683500 -13.029600
N -10.078100 -14.732000 -14.801800
N -10.065600 -13.637200 -16.772800
C -10.026800 -14.845900 -13.428000
C -9.964700 -13.497100 -15.464500
C -9.890400 -13.750000 -12.666000
C -9.854100 -13.857500 -11.265700
C -9.807500 -12.365100 -14.667600
N -9.801900 -13.958700 -10.115900
C -9.756300 -12.469900 -13.287400
H -9.736100 -11.528800 -15.068200
H -9.634200 -11.708700 -12.766400
H -10.128500 -15.473500 -31.738500
H -10.126800 -16.445800 -29.673400
N -10.075400 -16.651600 -27.072600
C -10.052200 -14.937900 -30.981800
C -10.044900 -15.522600 -29.748500
H -9.984800 -13.197300 -31.980500
C -9.950300 -13.574600 -31.130800
C -9.925800 -15.301200 -27.249100
C -9.912900 -14.729300 -28.581700
C -9.796000 -12.768200 -30.029600
C -9.785500 -13.324200 -28.749800
N -9.764900 -14.588000 -26.156300
H -9.699400 -11.849300 -30.136300
C -9.642500 -13.251500 -26.356100
C -9.632600 -12.565800 -27.535500
H -9.479100 -13.271500 -23.597800
N -9.470200 -12.320000 -25.370100
N -9.457600 -11.225200 -27.341000
C -9.418900 -12.433900 -23.996200
C -9.356700 -11.085100 -26.032700
C -9.282400 -11.338000 -23.234200
C -9.246200 -11.445500 -21.833900
C -9.199600 -9.953100 -25.235800
N -9.194000 -11.546700 -20.684100
C -9.148400 -10.057900 -23.855600
H -9.128200 -9.116900 -25.636400
H -9.026300 -9.296700 -23.334600
