27
Fragment
H -10.736500 -17.885500 -21.170200
H -10.734700 -18.857800 -19.105200
N -10.683400 -19.063600 -16.504400
C -10.660200 -17.349900 -20.413600
C -10.652800 -17.934600 -19.180300
H -10.592700 -15.609300 -21.412300
C -10.558200 -15.986500 -20.562600
C -10.533800 -17.713200 -16.680900
C -10.520900 -17.141300 -18.013500
C -10.404000 -15.180200 -19.461400
C -10.393400 -15.736200 -18.181600
N -10.372800 -17.000000 -15.588100
H -10.307400 -14.261300 -19.568100
C -10.250500 -15.663500 -15.787900
C -10.240600 -14.977700 -16.967300
H -10.087000 -15.683500 -13.029600
N -10.078100 -14.732000 -14.801800
N -10.065600 -13.637200 -16.772800
C -10.026800 -14.845900 -13.428000
C -9.964700 -13.497100 -15.464500
C -9.890400 -13.750000 -12.666000
C -9.854100 -13.857500 -11.265700
C -9.807500 -12.365100 -14.667600
N -9.801900 -13.958700 -10.115900
C -9.756300 -12.469900 -13.287400
H -9.736100 -11.528800 -15.068200
H -9.634200 -11.708700 -12.766400
27
Fragment
H -8.448700 -12.260900 -8.370000
H -8.346800 -12.440700 -6.068300
C -8.326600 -11.499700 -7.849000
N -8.281100 -10.010900 -11.020500
C -8.275400 -11.604500 -6.468800
C -8.228800 -10.112100 -9.870700
C -8.192600 -10.219600 -8.470400
C -8.118300 -10.472500 -5.672000
C -8.056200 -9.123700 -7.708500
N -8.017400 -10.332400 -4.363600
N -8.004800 -9.237600 -6.334600
H -7.995900 -8.286100 -8.106900
C -7.842400 -8.991900 -4.169200
C -7.832500 -8.306100 -5.348600
H -7.775600 -9.708300 -1.568300
N -7.710100 -6.969600 -5.548300
C -7.689500 -8.233400 -2.954900
C -7.679000 -8.789400 -1.675100
C -7.562100 -6.828300 -3.122900
C -7.549200 -6.256400 -4.455600
C -7.524700 -7.983100 -0.573900
H -7.490200 -8.360300 0.275800
C -7.430200 -6.035000 -1.956200
C -7.422800 -6.619700 -0.722900
N -7.399600 -4.906000 -4.632000
H -7.348200 -5.111800 -2.031200
H -7.346500 -6.084100 0.033800
54
Fragment
H -10.736500 -17.885500 -21.170200
H -10.734700 -18.857800 -19.105200
N -10.683400 -19.063600 -16.504400
C -10.660200 -17.349900 -20.413600
C -10.652800 -17.934600 -19.180300
H -10.592700 -15.609300 -21.412300
C -10.558200 -15.986500 -20.562600
C -10.533800 -17.713200 -16.680900
C -10.520900 -17.141300 -18.013500
C -10.404000 -15.180200 -19.461400
C -10.393400 -15.736200 -18.181600
N -10.372800 -17.000000 -15.588100
H -10.307400 -14.261300 -19.568100
C -10.250500 -15.663500 -15.787900
C -10.240600 -14.977700 -16.967300
H -10.087000 -15.683500 -13.029600
N -10.078100 -14.732000 -14.801800
N -10.065600 -13.637200 -16.772800
C -10.026800 -14.845900 -13.428000
C -9.964700 -13.497100 -15.464500
C -9.890400 -13.750000 -12.666000
C -9.854100 -13.857500 -11.265700
C -9.807500 -12.365100 -14.667600
N -9.801900 -13.958700 -10.115900
C -9.756300 -12.469900 -13.287400
H -9.736100 -11.528800 -15.068200
H -9.634200 -11.708700 -12.766400
H -8.448700 -12.260900 -8.370000
H -8.346800 -12.440700 -6.068300
C -8.326600 -11.499700 -7.849000
N -8.281100 -10.010900 -11.020500
C -8.275400 -11.604500 -6.468800
C -8.228800 -10.112100 -9.870700
C -8.192600 -10.219600 -8.470400
C -8.118300 -10.472500 -5.672000
C -8.056200 -9.123700 -7.708500
N -8.017400 -10.332400 -4.363600
N -8.004800 -9.237600 -6.334600
H -7.995900 -8.286100 -8.106900
C -7.842400 -8.991900 -4.169200
C -7.832500 -8.306100 -5.348600
H -7.775600 -9.708300 -1.568300
N -7.710100 -6.969600 -5.548300
C -7.689500 -8.233400 -2.954900
C -7.679000 -8.789400 -1.675100
C -7.562100 -6.828300 -3.122900
C -7.549200 -6.256400 -4.455600
C -7.524700 -7.983100 -0.573900
H -7.490200 -8.360300 0.275800
C -7.430200 -6.035000 -1.956200
C -7.422800 -6.619700 -0.722900
N -7.399600 -4.906000 -4.632000
H -7.348200 -5.111800 -2.031200
H -7.346500 -6.084100 0.033800
