27
Fragment
H -10.736500 -17.885500 -21.170200
H -10.734700 -18.857800 -19.105200
N -10.683400 -19.063600 -16.504400
C -10.660200 -17.349900 -20.413600
C -10.652800 -17.934600 -19.180300
H -10.592700 -15.609300 -21.412300
C -10.558200 -15.986500 -20.562600
C -10.533800 -17.713200 -16.680900
C -10.520900 -17.141300 -18.013500
C -10.404000 -15.180200 -19.461400
C -10.393400 -15.736200 -18.181600
N -10.372800 -17.000000 -15.588100
H -10.307400 -14.261300 -19.568100
C -10.250500 -15.663500 -15.787900
C -10.240600 -14.977700 -16.967300
H -10.087000 -15.683500 -13.029600
N -10.078100 -14.732000 -14.801800
N -10.065600 -13.637200 -16.772800
C -10.026800 -14.845900 -13.428000
C -9.964700 -13.497100 -15.464500
C -9.890400 -13.750000 -12.666000
C -9.854100 -13.857500 -11.265700
C -9.807500 -12.365100 -14.667600
N -9.801900 -13.958700 -10.115900
C -9.756300 -12.469900 -13.287400
H -9.736100 -11.528800 -15.068200
H -9.634200 -11.708700 -12.766400
27
Fragment
H -10.317400 -27.483300 -21.170200
H -10.315700 -28.455600 -19.105200
N -10.264300 -28.661500 -16.504400
C -10.241100 -26.947700 -20.413600
C -10.233700 -27.532500 -19.180300
H -10.173700 -25.207200 -21.412300
C -10.139200 -25.584400 -20.562600
C -10.114700 -27.311100 -16.680900
C -10.101800 -26.739200 -18.013500
C -9.984900 -24.778000 -19.461400
C -9.974400 -25.334100 -18.181600
N -9.953800 -26.597800 -15.588100
H -9.888300 -23.859200 -19.568100
C -9.831400 -25.261300 -15.787900
C -9.821500 -24.575600 -16.967300
H -9.668000 -25.281400 -13.029600
N -9.659100 -24.329800 -14.801800
N -9.646500 -23.235000 -16.772800
C -9.607800 -24.443700 -13.428000
C -9.545600 -23.095000 -15.464500
C -9.471300 -23.347900 -12.666000
C -9.435100 -23.455300 -11.265700
C -9.388500 -21.962900 -14.667600
N -9.382800 -23.556500 -10.115900
C -9.337300 -22.067700 -13.287400
H -9.317100 -21.126700 -15.068200
H -9.215200 -21.306500 -12.766400
54
Fragment
H -10.736500 -17.885500 -21.170200
H -10.734700 -18.857800 -19.105200
N -10.683400 -19.063600 -16.504400
C -10.660200 -17.349900 -20.413600
C -10.652800 -17.934600 -19.180300
H -10.592700 -15.609300 -21.412300
C -10.558200 -15.986500 -20.562600
C -10.533800 -17.713200 -16.680900
C -10.520900 -17.141300 -18.013500
C -10.404000 -15.180200 -19.461400
C -10.393400 -15.736200 -18.181600
N -10.372800 -17.000000 -15.588100
H -10.307400 -14.261300 -19.568100
C -10.250500 -15.663500 -15.787900
C -10.240600 -14.977700 -16.967300
H -10.087000 -15.683500 -13.029600
N -10.078100 -14.732000 -14.801800
N -10.065600 -13.637200 -16.772800
C -10.026800 -14.845900 -13.428000
C -9.964700 -13.497100 -15.464500
C -9.890400 -13.750000 -12.666000
C -9.854100 -13.857500 -11.265700
C -9.807500 -12.365100 -14.667600
N -9.801900 -13.958700 -10.115900
C -9.756300 -12.469900 -13.287400
H -9.736100 -11.528800 -15.068200
H -9.634200 -11.708700 -12.766400
H -10.317400 -27.483300 -21.170200
H -10.315700 -28.455600 -19.105200
N -10.264300 -28.661500 -16.504400
C -10.241100 -26.947700 -20.413600
C -10.233700 -27.532500 -19.180300
H -10.173700 -25.207200 -21.412300
C -10.139200 -25.584400 -20.562600
C -10.114700 -27.311100 -16.680900
C -10.101800 -26.739200 -18.013500
C -9.984900 -24.778000 -19.461400
C -9.974400 -25.334100 -18.181600
N -9.953800 -26.597800 -15.588100
H -9.888300 -23.859200 -19.568100
C -9.831400 -25.261300 -15.787900
C -9.821500 -24.575600 -16.967300
H -9.668000 -25.281400 -13.029600
N -9.659100 -24.329800 -14.801800
N -9.646500 -23.235000 -16.772800
C -9.607800 -24.443700 -13.428000
C -9.545600 -23.095000 -15.464500
C -9.471300 -23.347900 -12.666000
C -9.435100 -23.455300 -11.265700
C -9.388500 -21.962900 -14.667600
N -9.382800 -23.556500 -10.115900
C -9.337300 -22.067700 -13.287400
H -9.317100 -21.126700 -15.068200
H -9.215200 -21.306500 -12.766400
