27
Fragment
H -10.736500 -17.885500 -21.170200
H -10.734700 -18.857800 -19.105200
N -10.683400 -19.063600 -16.504400
C -10.660200 -17.349900 -20.413600
C -10.652800 -17.934600 -19.180300
H -10.592700 -15.609300 -21.412300
C -10.558200 -15.986500 -20.562600
C -10.533800 -17.713200 -16.680900
C -10.520900 -17.141300 -18.013500
C -10.404000 -15.180200 -19.461400
C -10.393400 -15.736200 -18.181600
N -10.372800 -17.000000 -15.588100
H -10.307400 -14.261300 -19.568100
C -10.250500 -15.663500 -15.787900
C -10.240600 -14.977700 -16.967300
H -10.087000 -15.683500 -13.029600
N -10.078100 -14.732000 -14.801800
N -10.065600 -13.637200 -16.772800
C -10.026800 -14.845900 -13.428000
C -9.964700 -13.497100 -15.464500
C -9.890400 -13.750000 -12.666000
C -9.854100 -13.857500 -11.265700
C -9.807500 -12.365100 -14.667600
N -9.801900 -13.958700 -10.115900
C -9.756300 -12.469900 -13.287400
H -9.736100 -11.528800 -15.068200
H -9.634200 -11.708700 -12.766400
27
Fragment
H -11.344400 -20.297500 -10.602000
H -11.342700 -21.269800 -8.537000
N -11.291300 -21.475600 -5.936200
C -11.268100 -19.761800 -9.845300
C -11.260700 -20.346600 -8.612000
H -11.200700 -18.021300 -10.844000
C -11.166200 -18.398500 -9.994400
C -11.141700 -20.125200 -6.112700
C -11.128800 -19.553300 -7.445300
C -11.011900 -17.592200 -8.893200
C -11.001400 -18.148200 -7.613300
N -10.980800 -19.412000 -5.019900
H -10.915300 -16.673300 -8.999900
C -10.858400 -18.075500 -5.219600
C -10.848500 -17.389700 -6.399100
H -10.695000 -18.095500 -2.461300
N -10.686100 -17.144000 -4.233600
N -10.673500 -16.049100 -6.204600
C -10.634700 -17.257900 -2.859800
C -10.572600 -15.909100 -4.896300
C -10.498300 -16.162000 -2.097800
C -10.462000 -16.269500 -0.697500
C -10.415500 -14.777000 -4.099400
N -10.409800 -16.370600 0.452300
C -10.364300 -14.881900 -2.719200
H -10.344100 -13.940800 -4.499900
H -10.242200 -14.120600 -2.198200
54
Fragment
H -10.736500 -17.885500 -21.170200
H -10.734700 -18.857800 -19.105200
N -10.683400 -19.063600 -16.504400
C -10.660200 -17.349900 -20.413600
C -10.652800 -17.934600 -19.180300
H -10.592700 -15.609300 -21.412300
C -10.558200 -15.986500 -20.562600
C -10.533800 -17.713200 -16.680900
C -10.520900 -17.141300 -18.013500
C -10.404000 -15.180200 -19.461400
C -10.393400 -15.736200 -18.181600
N -10.372800 -17.000000 -15.588100
H -10.307400 -14.261300 -19.568100
C -10.250500 -15.663500 -15.787900
C -10.240600 -14.977700 -16.967300
H -10.087000 -15.683500 -13.029600
N -10.078100 -14.732000 -14.801800
N -10.065600 -13.637200 -16.772800
C -10.026800 -14.845900 -13.428000
C -9.964700 -13.497100 -15.464500
C -9.890400 -13.750000 -12.666000
C -9.854100 -13.857500 -11.265700
C -9.807500 -12.365100 -14.667600
N -9.801900 -13.958700 -10.115900
C -9.756300 -12.469900 -13.287400
H -9.736100 -11.528800 -15.068200
H -9.634200 -11.708700 -12.766400
H -11.344400 -20.297500 -10.602000
H -11.342700 -21.269800 -8.537000
N -11.291300 -21.475600 -5.936200
C -11.268100 -19.761800 -9.845300
C -11.260700 -20.346600 -8.612000
H -11.200700 -18.021300 -10.844000
C -11.166200 -18.398500 -9.994400
C -11.141700 -20.125200 -6.112700
C -11.128800 -19.553300 -7.445300
C -11.011900 -17.592200 -8.893200
C -11.001400 -18.148200 -7.613300
N -10.980800 -19.412000 -5.019900
H -10.915300 -16.673300 -8.999900
C -10.858400 -18.075500 -5.219600
C -10.848500 -17.389700 -6.399100
H -10.695000 -18.095500 -2.461300
N -10.686100 -17.144000 -4.233600
N -10.673500 -16.049100 -6.204600
C -10.634700 -17.257900 -2.859800
C -10.572600 -15.909100 -4.896300
C -10.498300 -16.162000 -2.097800
C -10.462000 -16.269500 -0.697500
C -10.415500 -14.777000 -4.099400
N -10.409800 -16.370600 0.452300
C -10.364300 -14.881900 -2.719200
H -10.344100 -13.940800 -4.499900
H -10.242200 -14.120600 -2.198200
