27
Fragment
H -10.736500 -17.885500 -21.170200
H -10.734700 -18.857800 -19.105200
N -10.683400 -19.063600 -16.504400
C -10.660200 -17.349900 -20.413600
C -10.652800 -17.934600 -19.180300
H -10.592700 -15.609300 -21.412300
C -10.558200 -15.986500 -20.562600
C -10.533800 -17.713200 -16.680900
C -10.520900 -17.141300 -18.013500
C -10.404000 -15.180200 -19.461400
C -10.393400 -15.736200 -18.181600
N -10.372800 -17.000000 -15.588100
H -10.307400 -14.261300 -19.568100
C -10.250500 -15.663500 -15.787900
C -10.240600 -14.977700 -16.967300
H -10.087000 -15.683500 -13.029600
N -10.078100 -14.732000 -14.801800
N -10.065600 -13.637200 -16.772800
C -10.026800 -14.845900 -13.428000
C -9.964700 -13.497100 -15.464500
C -9.890400 -13.750000 -12.666000
C -9.854100 -13.857500 -11.265700
C -9.807500 -12.365100 -14.667600
N -9.801900 -13.958700 -10.115900
C -9.756300 -12.469900 -13.287400
H -9.736100 -11.528800 -15.068200
H -9.634200 -11.708700 -12.766400
27
Fragment
H -14.273700 -19.446800 -18.938200
H -14.171800 -19.626600 -16.636500
C -14.151600 -18.685600 -18.417200
N -14.106100 -17.196800 -21.588700
C -14.100400 -18.790400 -17.037000
C -14.053900 -17.298000 -20.438900
C -14.017600 -17.405500 -19.038600
C -13.943300 -17.658300 -16.240200
C -13.881200 -16.309600 -18.276700
N -13.842400 -17.518300 -14.931800
N -13.829800 -16.423500 -16.902800
H -13.820900 -15.471900 -18.675100
C -13.667400 -16.177700 -14.737400
C -13.657500 -15.492000 -15.916800
H -13.600600 -16.894200 -12.136500
N -13.535100 -14.155500 -16.116500
C -13.514500 -15.419200 -13.523100
C -13.504000 -15.975300 -12.243300
C -13.387100 -14.014200 -13.691100
C -13.374200 -13.442200 -15.023800
C -13.349700 -15.168900 -11.142100
H -13.315200 -15.546200 -10.292400
C -13.255200 -13.220800 -12.524400
C -13.247800 -13.805600 -11.291100
N -13.224600 -12.091800 -15.200300
H -13.173200 -12.297700 -12.599400
H -13.171500 -13.270000 -10.534400
54
Fragment
H -10.736500 -17.885500 -21.170200
H -10.734700 -18.857800 -19.105200
N -10.683400 -19.063600 -16.504400
C -10.660200 -17.349900 -20.413600
C -10.652800 -17.934600 -19.180300
H -10.592700 -15.609300 -21.412300
C -10.558200 -15.986500 -20.562600
C -10.533800 -17.713200 -16.680900
C -10.520900 -17.141300 -18.013500
C -10.404000 -15.180200 -19.461400
C -10.393400 -15.736200 -18.181600
N -10.372800 -17.000000 -15.588100
H -10.307400 -14.261300 -19.568100
C -10.250500 -15.663500 -15.787900
C -10.240600 -14.977700 -16.967300
H -10.087000 -15.683500 -13.029600
N -10.078100 -14.732000 -14.801800
N -10.065600 -13.637200 -16.772800
C -10.026800 -14.845900 -13.428000
C -9.964700 -13.497100 -15.464500
C -9.890400 -13.750000 -12.666000
C -9.854100 -13.857500 -11.265700
C -9.807500 -12.365100 -14.667600
N -9.801900 -13.958700 -10.115900
C -9.756300 -12.469900 -13.287400
H -9.736100 -11.528800 -15.068200
H -9.634200 -11.708700 -12.766400
H -14.273700 -19.446800 -18.938200
H -14.171800 -19.626600 -16.636500
C -14.151600 -18.685600 -18.417200
N -14.106100 -17.196800 -21.588700
C -14.100400 -18.790400 -17.037000
C -14.053900 -17.298000 -20.438900
C -14.017600 -17.405500 -19.038600
C -13.943300 -17.658300 -16.240200
C -13.881200 -16.309600 -18.276700
N -13.842400 -17.518300 -14.931800
N -13.829800 -16.423500 -16.902800
H -13.820900 -15.471900 -18.675100
C -13.667400 -16.177700 -14.737400
C -13.657500 -15.492000 -15.916800
H -13.600600 -16.894200 -12.136500
N -13.535100 -14.155500 -16.116500
C -13.514500 -15.419200 -13.523100
C -13.504000 -15.975300 -12.243300
C -13.387100 -14.014200 -13.691100
C -13.374200 -13.442200 -15.023800
C -13.349700 -15.168900 -11.142100
H -13.315200 -15.546200 -10.292400
C -13.255200 -13.220800 -12.524400
C -13.247800 -13.805600 -11.291100
N -13.224600 -12.091800 -15.200300
H -13.173200 -12.297700 -12.599400
H -13.171500 -13.270000 -10.534400
