27
Fragment
H -10.736500 -17.885500 -21.170200
H -10.734700 -18.857800 -19.105200
N -10.683400 -19.063600 -16.504400
C -10.660200 -17.349900 -20.413600
C -10.652800 -17.934600 -19.180300
H -10.592700 -15.609300 -21.412300
C -10.558200 -15.986500 -20.562600
C -10.533800 -17.713200 -16.680900
C -10.520900 -17.141300 -18.013500
C -10.404000 -15.180200 -19.461400
C -10.393400 -15.736200 -18.181600
N -10.372800 -17.000000 -15.588100
H -10.307400 -14.261300 -19.568100
C -10.250500 -15.663500 -15.787900
C -10.240600 -14.977700 -16.967300
H -10.087000 -15.683500 -13.029600
N -10.078100 -14.732000 -14.801800
N -10.065600 -13.637200 -16.772800
C -10.026800 -14.845900 -13.428000
C -9.964700 -13.497100 -15.464500
C -9.890400 -13.750000 -12.666000
C -9.854100 -13.857500 -11.265700
C -9.807500 -12.365100 -14.667600
N -9.801900 -13.958700 -10.115900
C -9.756300 -12.469900 -13.287400
H -9.736100 -11.528800 -15.068200
H -9.634200 -11.708700 -12.766400
3
Fragment
H -8.340900 -12.754700 -18.927700
O -7.526200 -12.776200 -18.619100
H -7.466800 -12.079000 -18.103400
30
Fragment
H -10.736500 -17.885500 -21.170200
H -10.734700 -18.857800 -19.105200
N -10.683400 -19.063600 -16.504400
C -10.660200 -17.349900 -20.413600
C -10.652800 -17.934600 -19.180300
H -10.592700 -15.609300 -21.412300
C -10.558200 -15.986500 -20.562600
C -10.533800 -17.713200 -16.680900
C -10.520900 -17.141300 -18.013500
C -10.404000 -15.180200 -19.461400
C -10.393400 -15.736200 -18.181600
N -10.372800 -17.000000 -15.588100
H -10.307400 -14.261300 -19.568100
C -10.250500 -15.663500 -15.787900
C -10.240600 -14.977700 -16.967300
H -10.087000 -15.683500 -13.029600
N -10.078100 -14.732000 -14.801800
N -10.065600 -13.637200 -16.772800
C -10.026800 -14.845900 -13.428000
C -9.964700 -13.497100 -15.464500
C -9.890400 -13.750000 -12.666000
C -9.854100 -13.857500 -11.265700
C -9.807500 -12.365100 -14.667600
N -9.801900 -13.958700 -10.115900
C -9.756300 -12.469900 -13.287400
H -9.736100 -11.528800 -15.068200
H -9.634200 -11.708700 -12.766400
H -8.340900 -12.754700 -18.927700
O -7.526200 -12.776200 -18.619100
H -7.466800 -12.079000 -18.103400
