34
Fragment
N -5.246100 -13.842900 -16.942100
C -4.221100 -13.693400 -16.449000
H -4.065000 -15.481300 -14.317300
H -3.390100 -8.489100 -16.660400
N -3.167300 -15.416000 -14.247600
C -2.961500 -13.565900 -15.823500
O -2.725100 -10.951500 -14.309000
H -2.724100 -8.602300 -15.246000
H -2.711700 -15.736800 -13.746100
C -2.597200 -8.748700 -16.186600
C -2.537100 -14.409600 -14.837800
C -2.394300 -11.106300 -15.481600
N -2.328100 -10.158500 -16.426100
C -1.959700 -12.456300 -16.094600
H -1.950900 -9.143500 -18.958100
C -1.945200 -10.709400 -17.669600
H -1.854000 -8.224400 -16.494300
C -1.799300 -10.057500 -18.877800
C -1.711800 -12.072100 -17.531400
C -1.416900 -10.823400 -19.963500
C -1.323700 -12.824100 -18.620000
H -1.315000 -10.415800 -20.792700
N -1.211000 -14.103400 -14.474800
C -1.184600 -12.181300 -19.844600
H -1.160000 -13.735800 -18.537800
O -1.147400 -14.494900 -12.179300
H -0.931000 -12.671300 -20.593900
C -0.827000 -13.858900 -13.148600
C -0.711100 -13.041600 -15.354200
H -0.096000 -13.427600 -16.012300
N -0.001300 -12.759700 -13.179700
C 0.065900 -12.154300 -14.400500
H 0.433600 -12.479800 -12.492800
O 0.656000 -11.136000 -14.670800
34
Fragment
N -12.578700 -13.842900 -16.942100
C -11.553700 -13.693400 -16.449000
H -11.397600 -15.481300 -14.317300
H -10.722700 -8.489100 -16.660400
N -10.499900 -15.416000 -14.247600
C -10.294100 -13.565900 -15.823500
O -10.057700 -10.951500 -14.309000
H -10.056700 -8.602300 -15.246000
H -10.044300 -15.736800 -13.746100
C -9.929800 -8.748700 -16.186600
C -9.869700 -14.409600 -14.837800
C -9.726900 -11.106300 -15.481600
N -9.660700 -10.158500 -16.426100
C -9.292300 -12.456300 -16.094600
H -9.283500 -9.143500 -18.958100
C -9.277800 -10.709400 -17.669600
H -9.186600 -8.224400 -16.494300
C -9.131900 -10.057500 -18.877800
C -9.044400 -12.072100 -17.531400
C -8.749500 -10.823400 -19.963500
C -8.656300 -12.824100 -18.620000
H -8.647600 -10.415800 -20.792700
N -8.543600 -14.103400 -14.474800
C -8.517200 -12.181300 -19.844600
H -8.492600 -13.735800 -18.537800
O -8.480000 -14.494900 -12.179300
H -8.263600 -12.671300 -20.593900
C -8.159600 -13.858900 -13.148600
C -8.043700 -13.041600 -15.354200
H -7.428600 -13.427600 -16.012300
N -7.333900 -12.759700 -13.179700
C -7.266700 -12.154300 -14.400500
H -6.899000 -12.479800 -12.492800
O -6.676600 -11.136000 -14.670800
68
Fragment
N -5.246100 -13.842900 -16.942100
C -4.221100 -13.693400 -16.449000
H -4.065000 -15.481300 -14.317300
H -3.390100 -8.489100 -16.660400
N -3.167300 -15.416000 -14.247600
C -2.961500 -13.565900 -15.823500
O -2.725100 -10.951500 -14.309000
H -2.724100 -8.602300 -15.246000
H -2.711700 -15.736800 -13.746100
C -2.597200 -8.748700 -16.186600
C -2.537100 -14.409600 -14.837800
C -2.394300 -11.106300 -15.481600
N -2.328100 -10.158500 -16.426100
C -1.959700 -12.456300 -16.094600
H -1.950900 -9.143500 -18.958100
C -1.945200 -10.709400 -17.669600
H -1.854000 -8.224400 -16.494300
C -1.799300 -10.057500 -18.877800
C -1.711800 -12.072100 -17.531400
C -1.416900 -10.823400 -19.963500
C -1.323700 -12.824100 -18.620000
H -1.315000 -10.415800 -20.792700
N -1.211000 -14.103400 -14.474800
C -1.184600 -12.181300 -19.844600
H -1.160000 -13.735800 -18.537800
O -1.147400 -14.494900 -12.179300
H -0.931000 -12.671300 -20.593900
C -0.827000 -13.858900 -13.148600
C -0.711100 -13.041600 -15.354200
H -0.096000 -13.427600 -16.012300
N -0.001300 -12.759700 -13.179700
C 0.065900 -12.154300 -14.400500
H 0.433600 -12.479800 -12.492800
O 0.656000 -11.136000 -14.670800
N -12.578700 -13.842900 -16.942100
C -11.553700 -13.693400 -16.449000
H -11.397600 -15.481300 -14.317300
H -10.722700 -8.489100 -16.660400
N -10.499900 -15.416000 -14.247600
C -10.294100 -13.565900 -15.823500
O -10.057700 -10.951500 -14.309000
H -10.056700 -8.602300 -15.246000
H -10.044300 -15.736800 -13.746100
C -9.929800 -8.748700 -16.186600
C -9.869700 -14.409600 -14.837800
C -9.726900 -11.106300 -15.481600
N -9.660700 -10.158500 -16.426100
C -9.292300 -12.456300 -16.094600
H -9.283500 -9.143500 -18.958100
C -9.277800 -10.709400 -17.669600
H -9.186600 -8.224400 -16.494300
C -9.131900 -10.057500 -18.877800
C -9.044400 -12.072100 -17.531400
C -8.749500 -10.823400 -19.963500
C -8.656300 -12.824100 -18.620000
H -8.647600 -10.415800 -20.792700
N -8.543600 -14.103400 -14.474800
C -8.517200 -12.181300 -19.844600
H -8.492600 -13.735800 -18.537800
O -8.480000 -14.494900 -12.179300
H -8.263600 -12.671300 -20.593900
C -8.159600 -13.858900 -13.148600
C -8.043700 -13.041600 -15.354200
H -7.428600 -13.427600 -16.012300
N -7.333900 -12.759700 -13.179700
C -7.266700 -12.154300 -14.400500
H -6.899000 -12.479800 -12.492800
O -6.676600 -11.136000 -14.670800
