34
Fragment
N -5.246100 -13.842900 -16.942100
C -4.221100 -13.693400 -16.449000
H -4.065000 -15.481300 -14.317300
H -3.390100 -8.489100 -16.660400
N -3.167300 -15.416000 -14.247600
C -2.961500 -13.565900 -15.823500
O -2.725100 -10.951500 -14.309000
H -2.724100 -8.602300 -15.246000
H -2.711700 -15.736800 -13.746100
C -2.597200 -8.748700 -16.186600
C -2.537100 -14.409600 -14.837800
C -2.394300 -11.106300 -15.481600
N -2.328100 -10.158500 -16.426100
C -1.959700 -12.456300 -16.094600
H -1.950900 -9.143500 -18.958100
C -1.945200 -10.709400 -17.669600
H -1.854000 -8.224400 -16.494300
C -1.799300 -10.057500 -18.877800
C -1.711800 -12.072100 -17.531400
C -1.416900 -10.823400 -19.963500
C -1.323700 -12.824100 -18.620000
H -1.315000 -10.415800 -20.792700
N -1.211000 -14.103400 -14.474800
C -1.184600 -12.181300 -19.844600
H -1.160000 -13.735800 -18.537800
O -1.147400 -14.494900 -12.179300
H -0.931000 -12.671300 -20.593900
C -0.827000 -13.858900 -13.148600
C -0.711100 -13.041600 -15.354200
H -0.096000 -13.427600 -16.012300
N -0.001300 -12.759700 -13.179700
C 0.065900 -12.154300 -14.400500
H 0.433600 -12.479800 -12.492800
O 0.656000 -11.136000 -14.670800
34
Fragment
N -0.486200 -5.675400 -16.942100
C 0.538800 -5.525900 -16.449000
H 0.694900 -7.313800 -14.317300
H 1.369800 -0.321600 -16.660400
N 1.592600 -7.248500 -14.247600
C 1.798400 -5.398400 -15.823500
O 2.034800 -2.784000 -14.309000
H 2.035800 -0.434800 -15.246000
H 2.048200 -7.569300 -13.746100
C 2.162700 -0.581200 -16.186600
C 2.222800 -6.242100 -14.837800
C 2.365700 -2.938800 -15.481600
N 2.431900 -1.991100 -16.426100
C 2.800200 -4.288800 -16.094600
H 2.809000 -0.976000 -18.958100
C 2.814700 -2.541900 -17.669600
H 2.905900 -0.056900 -16.494300
C 2.960600 -1.890000 -18.877800
C 3.048100 -3.904600 -17.531400
C 3.343000 -2.655900 -19.963500
C 3.436200 -4.656600 -18.620000
H 3.444900 -2.248300 -20.792700
N 3.548900 -5.936000 -14.474800
C 3.575300 -4.013800 -19.844600
H 3.599900 -5.568300 -18.537800
O 3.612500 -6.327400 -12.179300
H 3.828900 -4.503800 -20.593900
C 3.932900 -5.691500 -13.148600
C 4.048800 -4.874100 -15.354200
H 4.663900 -5.260100 -16.012300
N 4.758600 -4.592200 -13.179700
C 4.825800 -3.986800 -14.400500
H 5.193500 -4.312300 -12.492800
O 5.415900 -2.968500 -14.670800
68
Fragment
N -5.246100 -13.842900 -16.942100
C -4.221100 -13.693400 -16.449000
H -4.065000 -15.481300 -14.317300
H -3.390100 -8.489100 -16.660400
N -3.167300 -15.416000 -14.247600
C -2.961500 -13.565900 -15.823500
O -2.725100 -10.951500 -14.309000
H -2.724100 -8.602300 -15.246000
H -2.711700 -15.736800 -13.746100
C -2.597200 -8.748700 -16.186600
C -2.537100 -14.409600 -14.837800
C -2.394300 -11.106300 -15.481600
N -2.328100 -10.158500 -16.426100
C -1.959700 -12.456300 -16.094600
H -1.950900 -9.143500 -18.958100
C -1.945200 -10.709400 -17.669600
H -1.854000 -8.224400 -16.494300
C -1.799300 -10.057500 -18.877800
C -1.711800 -12.072100 -17.531400
C -1.416900 -10.823400 -19.963500
C -1.323700 -12.824100 -18.620000
H -1.315000 -10.415800 -20.792700
N -1.211000 -14.103400 -14.474800
C -1.184600 -12.181300 -19.844600
H -1.160000 -13.735800 -18.537800
O -1.147400 -14.494900 -12.179300
H -0.931000 -12.671300 -20.593900
C -0.827000 -13.858900 -13.148600
C -0.711100 -13.041600 -15.354200
H -0.096000 -13.427600 -16.012300
N -0.001300 -12.759700 -13.179700
C 0.065900 -12.154300 -14.400500
H 0.433600 -12.479800 -12.492800
O 0.656000 -11.136000 -14.670800
N -0.486200 -5.675400 -16.942100
C 0.538800 -5.525900 -16.449000
H 0.694900 -7.313800 -14.317300
H 1.369800 -0.321600 -16.660400
N 1.592600 -7.248500 -14.247600
C 1.798400 -5.398400 -15.823500
O 2.034800 -2.784000 -14.309000
H 2.035800 -0.434800 -15.246000
H 2.048200 -7.569300 -13.746100
C 2.162700 -0.581200 -16.186600
C 2.222800 -6.242100 -14.837800
C 2.365700 -2.938800 -15.481600
N 2.431900 -1.991100 -16.426100
C 2.800200 -4.288800 -16.094600
H 2.809000 -0.976000 -18.958100
C 2.814700 -2.541900 -17.669600
H 2.905900 -0.056900 -16.494300
C 2.960600 -1.890000 -18.877800
C 3.048100 -3.904600 -17.531400
C 3.343000 -2.655900 -19.963500
C 3.436200 -4.656600 -18.620000
H 3.444900 -2.248300 -20.792700
N 3.548900 -5.936000 -14.474800
C 3.575300 -4.013800 -19.844600
H 3.599900 -5.568300 -18.537800
O 3.612500 -6.327400 -12.179300
H 3.828900 -4.503800 -20.593900
C 3.932900 -5.691500 -13.148600
C 4.048800 -4.874100 -15.354200
H 4.663900 -5.260100 -16.012300
N 4.758600 -4.592200 -13.179700
C 4.825800 -3.986800 -14.400500
H 5.193500 -4.312300 -12.492800
O 5.415900 -2.968500 -14.670800
