34
Fragment
N -5.246100 -13.842900 -16.942100
C -4.221100 -13.693400 -16.449000
H -4.065000 -15.481300 -14.317300
H -3.390100 -8.489100 -16.660400
N -3.167300 -15.416000 -14.247600
C -2.961500 -13.565900 -15.823500
O -2.725100 -10.951500 -14.309000
H -2.724100 -8.602300 -15.246000
H -2.711700 -15.736800 -13.746100
C -2.597200 -8.748700 -16.186600
C -2.537100 -14.409600 -14.837800
C -2.394300 -11.106300 -15.481600
N -2.328100 -10.158500 -16.426100
C -1.959700 -12.456300 -16.094600
H -1.950900 -9.143500 -18.958100
C -1.945200 -10.709400 -17.669600
H -1.854000 -8.224400 -16.494300
C -1.799300 -10.057500 -18.877800
C -1.711800 -12.072100 -17.531400
C -1.416900 -10.823400 -19.963500
C -1.323700 -12.824100 -18.620000
H -1.315000 -10.415800 -20.792700
N -1.211000 -14.103400 -14.474800
C -1.184600 -12.181300 -19.844600
H -1.160000 -13.735800 -18.537800
O -1.147400 -14.494900 -12.179300
H -0.931000 -12.671300 -20.593900
C -0.827000 -13.858900 -13.148600
C -0.711100 -13.041600 -15.354200
H -0.096000 -13.427600 -16.012300
N -0.001300 -12.759700 -13.179700
C 0.065900 -12.154300 -14.400500
H 0.433600 -12.479800 -12.492800
O 0.656000 -11.136000 -14.670800
34
Fragment
O -0.458000 -9.866500 -23.079300
H -0.235700 -8.522700 -25.257300
C 0.132000 -8.848200 -23.349600
N 0.199300 -8.242900 -24.570400
H 0.293900 -7.574900 -21.737800
C 0.909000 -7.960900 -22.395900
C 1.024900 -7.143600 -24.601500
H 1.128900 -8.331300 -17.156200
O 1.345300 -6.507600 -25.570800
H 1.358000 -7.266700 -19.212300
C 1.382500 -8.821300 -17.905500
N 1.409000 -6.899100 -23.275300
H 1.512900 -10.586800 -16.957300
C 1.521600 -8.178500 -19.130100
C 1.614800 -10.179100 -17.786600
C 1.909800 -8.930400 -20.218700
C 1.997200 -10.945000 -18.872300
H 2.052000 -12.778100 -21.255800
C 2.143100 -10.293100 -20.080500
H 2.148800 -11.859000 -18.792000
C 2.157600 -8.546200 -21.655500
N 2.526000 -10.844000 -21.324000
C 2.592200 -9.896200 -22.268500
C 2.735000 -6.593000 -22.912300
C 2.795100 -12.253900 -21.563500
H 2.909600 -5.265700 -24.004000
H 2.922000 -12.400200 -22.504100
O 2.923000 -10.051100 -23.441000
C 3.159400 -7.436600 -21.926600
N 3.365200 -5.586500 -23.502400
H 3.588000 -12.513400 -21.089700
H 4.262900 -5.521200 -23.432700
C 4.419000 -7.309100 -21.301100
N 5.444000 -7.159600 -20.808000
68
Fragment
N -5.246100 -13.842900 -16.942100
C -4.221100 -13.693400 -16.449000
H -4.065000 -15.481300 -14.317300
H -3.390100 -8.489100 -16.660400
N -3.167300 -15.416000 -14.247600
C -2.961500 -13.565900 -15.823500
O -2.725100 -10.951500 -14.309000
H -2.724100 -8.602300 -15.246000
H -2.711700 -15.736800 -13.746100
C -2.597200 -8.748700 -16.186600
C -2.537100 -14.409600 -14.837800
C -2.394300 -11.106300 -15.481600
N -2.328100 -10.158500 -16.426100
C -1.959700 -12.456300 -16.094600
H -1.950900 -9.143500 -18.958100
C -1.945200 -10.709400 -17.669600
H -1.854000 -8.224400 -16.494300
C -1.799300 -10.057500 -18.877800
C -1.711800 -12.072100 -17.531400
C -1.416900 -10.823400 -19.963500
C -1.323700 -12.824100 -18.620000
H -1.315000 -10.415800 -20.792700
N -1.211000 -14.103400 -14.474800
C -1.184600 -12.181300 -19.844600
H -1.160000 -13.735800 -18.537800
O -1.147400 -14.494900 -12.179300
H -0.931000 -12.671300 -20.593900
C -0.827000 -13.858900 -13.148600
C -0.711100 -13.041600 -15.354200
H -0.096000 -13.427600 -16.012300
N -0.001300 -12.759700 -13.179700
C 0.065900 -12.154300 -14.400500
H 0.433600 -12.479800 -12.492800
O 0.656000 -11.136000 -14.670800
O -0.458000 -9.866500 -23.079300
H -0.235700 -8.522700 -25.257300
C 0.132000 -8.848200 -23.349600
N 0.199300 -8.242900 -24.570400
H 0.293900 -7.574900 -21.737800
C 0.909000 -7.960900 -22.395900
C 1.024900 -7.143600 -24.601500
H 1.128900 -8.331300 -17.156200
O 1.345300 -6.507600 -25.570800
H 1.358000 -7.266700 -19.212300
C 1.382500 -8.821300 -17.905500
N 1.409000 -6.899100 -23.275300
H 1.512900 -10.586800 -16.957300
C 1.521600 -8.178500 -19.130100
C 1.614800 -10.179100 -17.786600
C 1.909800 -8.930400 -20.218700
C 1.997200 -10.945000 -18.872300
H 2.052000 -12.778100 -21.255800
C 2.143100 -10.293100 -20.080500
H 2.148800 -11.859000 -18.792000
C 2.157600 -8.546200 -21.655500
N 2.526000 -10.844000 -21.324000
C 2.592200 -9.896200 -22.268500
C 2.735000 -6.593000 -22.912300
C 2.795100 -12.253900 -21.563500
H 2.909600 -5.265700 -24.004000
H 2.922000 -12.400200 -22.504100
O 2.923000 -10.051100 -23.441000
C 3.159400 -7.436600 -21.926600
N 3.365200 -5.586500 -23.502400
H 3.588000 -12.513400 -21.089700
H 4.262900 -5.521200 -23.432700
C 4.419000 -7.309100 -21.301100
N 5.444000 -7.159600 -20.808000
