20
Fragment
H -30.229600 -8.040500 -15.183600
N -29.882900 -6.856400 -16.692100
C -29.680300 -7.923900 -15.924500
H -29.213600 -5.994100 -18.313300
C -29.081400 -6.724800 -17.753600
C -28.703100 -8.867300 -16.160900
H -28.607200 -9.598500 -15.594600
C -28.069900 -7.607500 -18.067300
C -27.863500 -8.712600 -17.254100
H -27.533000 -7.464600 -18.813800
C -26.836400 -9.719900 -17.513200
H -26.732500 -10.424800 -16.915900
N -26.079000 -9.657300 -18.537100
N -25.192300 -10.692800 -18.677300
H -25.122700 -11.319900 -18.037700
H -24.841300 -8.993600 -20.323700
N -24.289400 -9.618900 -20.496700
C -24.261000 -10.662300 -19.673300
H -23.611900 -9.487800 -21.101000
O -23.462400 -11.605500 -19.773400
20
Fragment
O -39.691200 -11.605500 -10.448600
H -39.541700 -9.487800 -9.121000
C -38.892600 -10.662300 -10.548700
N -38.864200 -9.618900 -9.725300
H -38.312300 -8.993600 -9.898300
H -38.030900 -11.319900 -12.184300
N -37.961300 -10.692800 -11.544700
N -37.074600 -9.657300 -11.684900
H -36.421100 -10.424800 -13.306200
C -36.317200 -9.719900 -12.708900
H -35.620600 -7.464600 -11.408200
C -35.290100 -8.712600 -12.967900
C -35.083700 -7.607500 -12.154700
H -34.546400 -9.598500 -14.627500
C -34.450500 -8.867300 -14.061100
C -34.072200 -6.724800 -12.468400
H -33.940000 -5.994100 -11.908700
C -33.473300 -7.923900 -14.297600
N -33.270700 -6.856400 -13.529900
H -32.924000 -8.040500 -15.038500
40
Fragment
H -30.229600 -8.040500 -15.183600
N -29.882900 -6.856400 -16.692100
C -29.680300 -7.923900 -15.924500
H -29.213600 -5.994100 -18.313300
C -29.081400 -6.724800 -17.753600
C -28.703100 -8.867300 -16.160900
H -28.607200 -9.598500 -15.594600
C -28.069900 -7.607500 -18.067300
C -27.863500 -8.712600 -17.254100
H -27.533000 -7.464600 -18.813800
C -26.836400 -9.719900 -17.513200
H -26.732500 -10.424800 -16.915900
N -26.079000 -9.657300 -18.537100
N -25.192300 -10.692800 -18.677300
H -25.122700 -11.319900 -18.037700
H -24.841300 -8.993600 -20.323700
N -24.289400 -9.618900 -20.496700
C -24.261000 -10.662300 -19.673300
H -23.611900 -9.487800 -21.101000
O -23.462400 -11.605500 -19.773400
O -39.691200 -11.605500 -10.448600
H -39.541700 -9.487800 -9.121000
C -38.892600 -10.662300 -10.548700
N -38.864200 -9.618900 -9.725300
H -38.312300 -8.993600 -9.898300
H -38.030900 -11.319900 -12.184300
N -37.961300 -10.692800 -11.544700
N -37.074600 -9.657300 -11.684900
H -36.421100 -10.424800 -13.306200
C -36.317200 -9.719900 -12.708900
H -35.620600 -7.464600 -11.408200
C -35.290100 -8.712600 -12.967900
C -35.083700 -7.607500 -12.154700
H -34.546400 -9.598500 -14.627500
C -34.450500 -8.867300 -14.061100
C -34.072200 -6.724800 -12.468400
H -33.940000 -5.994100 -11.908700
C -33.473300 -7.923900 -14.297600
N -33.270700 -6.856400 -13.529900
H -32.924000 -8.040500 -15.038500
