20
Fragment
H -30.229600 -8.040500 -15.183600
N -29.882900 -6.856400 -16.692100
C -29.680300 -7.923900 -15.924500
H -29.213600 -5.994100 -18.313300
C -29.081400 -6.724800 -17.753600
C -28.703100 -8.867300 -16.160900
H -28.607200 -9.598500 -15.594600
C -28.069900 -7.607500 -18.067300
C -27.863500 -8.712600 -17.254100
H -27.533000 -7.464600 -18.813800
C -26.836400 -9.719900 -17.513200
H -26.732500 -10.424800 -16.915900
N -26.079000 -9.657300 -18.537100
N -25.192300 -10.692800 -18.677300
H -25.122700 -11.319900 -18.037700
H -24.841300 -8.993600 -20.323700
N -24.289400 -9.618900 -20.496700
C -24.261000 -10.662300 -19.673300
H -23.611900 -9.487800 -21.101000
O -23.462400 -11.605500 -19.773400
20
Fragment
H -27.822100 -8.077000 -21.228000
N -27.475400 -9.261100 -22.736500
C -27.272900 -8.193600 -21.968900
H -26.806100 -10.123400 -24.357800
C -26.673900 -9.392700 -23.798000
C -26.295700 -7.250200 -22.205300
H -26.199700 -6.519000 -21.639000
C -25.662500 -8.510000 -24.111700
C -25.456000 -7.404900 -23.298500
H -25.125500 -8.652900 -24.858200
C -24.429000 -6.397600 -23.557600
H -24.325000 -5.692700 -22.960300
N -23.671500 -6.460200 -24.581500
N -22.784800 -5.424700 -24.721800
H -22.715300 -4.797600 -24.082100
H -22.433900 -7.123900 -26.368100
N -21.882000 -6.498600 -26.541100
C -21.853500 -5.455200 -25.717700
H -21.204400 -6.629700 -27.145400
O -21.055000 -4.512000 -25.817800
40
Fragment
H -30.229600 -8.040500 -15.183600
N -29.882900 -6.856400 -16.692100
C -29.680300 -7.923900 -15.924500
H -29.213600 -5.994100 -18.313300
C -29.081400 -6.724800 -17.753600
C -28.703100 -8.867300 -16.160900
H -28.607200 -9.598500 -15.594600
C -28.069900 -7.607500 -18.067300
C -27.863500 -8.712600 -17.254100
H -27.533000 -7.464600 -18.813800
C -26.836400 -9.719900 -17.513200
H -26.732500 -10.424800 -16.915900
N -26.079000 -9.657300 -18.537100
N -25.192300 -10.692800 -18.677300
H -25.122700 -11.319900 -18.037700
H -24.841300 -8.993600 -20.323700
N -24.289400 -9.618900 -20.496700
C -24.261000 -10.662300 -19.673300
H -23.611900 -9.487800 -21.101000
O -23.462400 -11.605500 -19.773400
H -27.822100 -8.077000 -21.228000
N -27.475400 -9.261100 -22.736500
C -27.272900 -8.193600 -21.968900
H -26.806100 -10.123400 -24.357800
C -26.673900 -9.392700 -23.798000
C -26.295700 -7.250200 -22.205300
H -26.199700 -6.519000 -21.639000
C -25.662500 -8.510000 -24.111700
C -25.456000 -7.404900 -23.298500
H -25.125500 -8.652900 -24.858200
C -24.429000 -6.397600 -23.557600
H -24.325000 -5.692700 -22.960300
N -23.671500 -6.460200 -24.581500
N -22.784800 -5.424700 -24.721800
H -22.715300 -4.797600 -24.082100
H -22.433900 -7.123900 -26.368100
N -21.882000 -6.498600 -26.541100
C -21.853500 -5.455200 -25.717700
H -21.204400 -6.629700 -27.145400
O -21.055000 -4.512000 -25.817800
