20
Fragment
H -30.229600 -8.040500 -15.183600
N -29.882900 -6.856400 -16.692100
C -29.680300 -7.923900 -15.924500
H -29.213600 -5.994100 -18.313300
C -29.081400 -6.724800 -17.753600
C -28.703100 -8.867300 -16.160900
H -28.607200 -9.598500 -15.594600
C -28.069900 -7.607500 -18.067300
C -27.863500 -8.712600 -17.254100
H -27.533000 -7.464600 -18.813800
C -26.836400 -9.719900 -17.513200
H -26.732500 -10.424800 -16.915900
N -26.079000 -9.657300 -18.537100
N -25.192300 -10.692800 -18.677300
H -25.122700 -11.319900 -18.037700
H -24.841300 -8.993600 -20.323700
N -24.289400 -9.618900 -20.496700
C -24.261000 -10.662300 -19.673300
H -23.611900 -9.487800 -21.101000
O -23.462400 -11.605500 -19.773400
20
Fragment
O -22.344500 -8.919300 -22.537400
H -22.195100 -6.801600 -21.209800
C -21.546000 -7.976000 -22.637500
N -21.517500 -6.932700 -21.814100
H -20.965600 -6.307300 -21.987100
H -20.684200 -8.633600 -24.273100
N -20.614700 -8.006600 -23.633500
N -19.727900 -6.971000 -23.773700
H -19.074500 -7.738500 -25.395000
C -18.970500 -7.033700 -24.797700
H -18.273900 -4.778300 -23.497000
C -17.943500 -6.026300 -25.056700
C -17.737000 -4.921200 -24.243500
H -17.199800 -6.912300 -26.716300
C -17.103800 -6.181100 -26.149900
C -16.725600 -4.038500 -24.557200
H -16.593300 -3.307800 -23.997500
C -16.126600 -5.237700 -26.386400
N -15.924100 -4.170100 -25.618700
H -15.577400 -5.354200 -27.127300
40
Fragment
H -30.229600 -8.040500 -15.183600
N -29.882900 -6.856400 -16.692100
C -29.680300 -7.923900 -15.924500
H -29.213600 -5.994100 -18.313300
C -29.081400 -6.724800 -17.753600
C -28.703100 -8.867300 -16.160900
H -28.607200 -9.598500 -15.594600
C -28.069900 -7.607500 -18.067300
C -27.863500 -8.712600 -17.254100
H -27.533000 -7.464600 -18.813800
C -26.836400 -9.719900 -17.513200
H -26.732500 -10.424800 -16.915900
N -26.079000 -9.657300 -18.537100
N -25.192300 -10.692800 -18.677300
H -25.122700 -11.319900 -18.037700
H -24.841300 -8.993600 -20.323700
N -24.289400 -9.618900 -20.496700
C -24.261000 -10.662300 -19.673300
H -23.611900 -9.487800 -21.101000
O -23.462400 -11.605500 -19.773400
O -22.344500 -8.919300 -22.537400
H -22.195100 -6.801600 -21.209800
C -21.546000 -7.976000 -22.637500
N -21.517500 -6.932700 -21.814100
H -20.965600 -6.307300 -21.987100
H -20.684200 -8.633600 -24.273100
N -20.614700 -8.006600 -23.633500
N -19.727900 -6.971000 -23.773700
H -19.074500 -7.738500 -25.395000
C -18.970500 -7.033700 -24.797700
H -18.273900 -4.778300 -23.497000
C -17.943500 -6.026300 -25.056700
C -17.737000 -4.921200 -24.243500
H -17.199800 -6.912300 -26.716300
C -17.103800 -6.181100 -26.149900
C -16.725600 -4.038500 -24.557200
H -16.593300 -3.307800 -23.997500
C -16.126600 -5.237700 -26.386400
N -15.924100 -4.170100 -25.618700
H -15.577400 -5.354200 -27.127300
