3
Fragment
H -5.758300 -39.449100 -13.571800
O -5.475100 -39.938800 -14.262900
H -4.951900 -40.098500 -13.599500
3
Fragment
H -8.326300 -41.072500 -14.154600
O -7.803100 -41.232200 -13.491300
H -7.520000 -41.721900 -14.182400
6
Fragment
H -5.758300 -39.449100 -13.571800
O -5.475100 -39.938800 -14.262900
H -4.951900 -40.098500 -13.599500
H -8.326300 -41.072500 -14.154600
O -7.803100 -41.232200 -13.491300
H -7.520000 -41.721900 -14.182400
