3
Fragment
H 0.000600 -6.931100 -19.540700
O 0.643100 -7.268900 -19.037500
H 0.884500 -6.669800 -18.521500
3
Fragment
H 0.028300 -9.045100 -17.826500
O 0.269700 -9.644200 -17.310500
H 0.912200 -9.306400 -16.807300
6
Fragment
H 0.000600 -6.931100 -19.540700
O 0.643100 -7.268900 -19.037500
H 0.884500 -6.669800 -18.521500
H 0.028300 -9.045100 -17.826500
O 0.269700 -9.644200 -17.310500
H 0.912200 -9.306400 -16.807300
