3
Fragment
H 0.000600 -6.931100 -19.540700
O 0.643100 -7.268900 -19.037500
H 0.884500 -6.669800 -18.521500
12
Fragment
N -0.545400 -3.668900 -23.306500
N -0.147400 -4.632300 -24.074400
N 0.195400 -3.600500 -22.175700
N 0.869300 -5.217100 -23.440600
C 1.068500 -4.578200 -22.292200
H 1.314700 -5.852700 -23.802100
H 1.848700 -3.648500 -19.815400
C 2.094800 -4.923000 -21.325300
N 2.294000 -4.284100 -20.176900
N 2.967900 -5.900700 -21.441800
N 3.310700 -4.868900 -19.543100
N 3.708700 -5.832300 -20.311100
15
Fragment
H 0.000600 -6.931100 -19.540700
O 0.643100 -7.268900 -19.037500
H 0.884500 -6.669800 -18.521500
N -0.545400 -3.668900 -23.306500
N -0.147400 -4.632300 -24.074400
N 0.195400 -3.600500 -22.175700
N 0.869300 -5.217100 -23.440600
C 1.068500 -4.578200 -22.292200
H 1.314700 -5.852700 -23.802100
H 1.848700 -3.648500 -19.815400
C 2.094800 -4.923000 -21.325300
N 2.294000 -4.284100 -20.176900
N 2.967900 -5.900700 -21.441800
N 3.310700 -4.868900 -19.543100
N 3.708700 -5.832300 -20.311100
