3
Fragment
H 0.000600 -6.931100 -19.540700
O 0.643100 -7.268900 -19.037500
H 0.884500 -6.669800 -18.521500
12
Fragment
N -5.715500 -8.419500 -23.306500
N -5.317500 -9.382900 -24.074400
N -4.974700 -8.351100 -22.175700
N -4.300800 -9.967700 -23.440600
C -4.101600 -9.328800 -22.292200
H -3.855400 -10.603300 -23.802100
H -3.321400 -8.399100 -19.815400
C -3.075300 -9.673600 -21.325300
N -2.876100 -9.034700 -20.176900
N -2.202200 -10.651300 -21.441800
N -1.859400 -9.619500 -19.543100
N -1.461400 -10.582900 -20.311100
15
Fragment
H 0.000600 -6.931100 -19.540700
O 0.643100 -7.268900 -19.037500
H 0.884500 -6.669800 -18.521500
N -5.715500 -8.419500 -23.306500
N -5.317500 -9.382900 -24.074400
N -4.974700 -8.351100 -22.175700
N -4.300800 -9.967700 -23.440600
C -4.101600 -9.328800 -22.292200
H -3.855400 -10.603300 -23.802100
H -3.321400 -8.399100 -19.815400
C -3.075300 -9.673600 -21.325300
N -2.876100 -9.034700 -20.176900
N -2.202200 -10.651300 -21.441800
N -1.859400 -9.619500 -19.543100
N -1.461400 -10.582900 -20.311100
