39
Fragment
H -17.615800 -60.016700 -7.218400
H -17.279900 -62.453500 -7.508500
H -17.155400 -60.822600 -9.358400
O -16.846600 -59.927200 -9.064900
C -16.720300 -59.919500 -7.629900
H -16.340300 -59.054200 -7.335400
C -16.291400 -62.431900 -7.456100
H -16.279400 -62.656900 -9.564200
H -16.003200 -63.051700 -6.737600
C -15.822700 -61.050300 -7.159500
C -15.671400 -62.852600 -8.806100
H -15.652600 -60.958800 -6.178300
H -15.434800 -63.814700 -8.817400
N -14.518100 -61.019400 -7.899400
C -14.467400 -61.995800 -8.841900
H -14.184400 -59.047300 -6.341200
H -14.107900 -65.418600 -11.404300
H -14.076700 -67.388400 -12.651000
N -13.562100 -59.244100 -6.760600
C -13.474800 -60.162600 -7.691300
C -13.474000 -66.681000 -12.851200
C -13.472400 -65.519300 -12.104600
N -13.389000 -63.165200 -10.555100
C -13.357800 -62.111600 -9.644800
O -13.135600 -68.996600 -14.211500
H -13.100500 -58.584200 -6.801500
C -12.583500 -66.785200 -13.884200
C -12.566300 -64.496600 -12.345000
C -12.517200 -63.346600 -11.475600
N -12.512500 -68.031700 -14.625800
N -12.351100 -60.255300 -8.412400
C -12.245800 -61.235500 -9.353300
H -11.822600 -62.708200 -11.590900
O -11.788900 -68.089600 -15.628100
C -11.677400 -64.658700 -13.398400
C -11.671100 -65.793300 -14.155300
O -11.140100 -61.324300 -9.980800
H -11.059400 -63.963700 -13.593800
H -11.043200 -65.897200 -14.858100
39
Fragment
H -20.148400 -49.881800 -14.858100
H -20.132200 -51.815300 -13.593800
O -20.051500 -54.454700 -9.980800
C -19.520500 -49.985700 -14.155300
C -19.514200 -51.120300 -13.398400
O -19.402700 -47.689400 -15.628100
H -19.369000 -53.070800 -11.590900
C -18.945800 -54.543500 -9.353300
N -18.840500 -55.523700 -8.412400
N -18.679100 -47.747300 -14.625800
C -18.674400 -52.432400 -11.475600
C -18.625300 -51.282400 -12.345000
C -18.608100 -48.993800 -13.884200
H -18.091100 -57.194800 -6.801500
O -18.056000 -46.782400 -14.211500
C -17.833800 -53.667400 -9.644800
N -17.802600 -52.613800 -10.555100
C -17.719200 -50.259700 -12.104600
C -17.717600 -49.098000 -12.851200
C -17.716800 -55.616400 -7.691300
N -17.629500 -56.534900 -6.760600
H -17.114900 -48.390600 -12.651000
H -17.083700 -50.360400 -11.404300
H -17.007200 -56.731700 -6.341200
C -16.724200 -53.783200 -8.841900
N -16.673500 -54.759600 -7.899400
H -15.756800 -51.964300 -8.817400
H -15.539000 -54.820200 -6.178300
C -15.520200 -52.926400 -8.806100
C -15.368900 -54.728700 -7.159500
H -15.188400 -52.727300 -6.737600
H -14.912200 -53.122100 -9.564200
C -14.900200 -53.347100 -7.456100
H -14.851300 -56.724800 -7.335400
C -14.471300 -55.859500 -7.629900
O -14.345000 -55.851800 -9.064900
H -14.036200 -54.956400 -9.358400
H -13.911700 -53.325500 -7.508500
H -13.575800 -55.762300 -7.218400
78
Fragment
H -17.615800 -60.016700 -7.218400
H -17.279900 -62.453500 -7.508500
H -17.155400 -60.822600 -9.358400
O -16.846600 -59.927200 -9.064900
C -16.720300 -59.919500 -7.629900
H -16.340300 -59.054200 -7.335400
C -16.291400 -62.431900 -7.456100
H -16.279400 -62.656900 -9.564200
H -16.003200 -63.051700 -6.737600
C -15.822700 -61.050300 -7.159500
C -15.671400 -62.852600 -8.806100
H -15.652600 -60.958800 -6.178300
H -15.434800 -63.814700 -8.817400
N -14.518100 -61.019400 -7.899400
C -14.467400 -61.995800 -8.841900
H -14.184400 -59.047300 -6.341200
H -14.107900 -65.418600 -11.404300
H -14.076700 -67.388400 -12.651000
N -13.562100 -59.244100 -6.760600
C -13.474800 -60.162600 -7.691300
C -13.474000 -66.681000 -12.851200
C -13.472400 -65.519300 -12.104600
N -13.389000 -63.165200 -10.555100
C -13.357800 -62.111600 -9.644800
O -13.135600 -68.996600 -14.211500
H -13.100500 -58.584200 -6.801500
C -12.583500 -66.785200 -13.884200
C -12.566300 -64.496600 -12.345000
C -12.517200 -63.346600 -11.475600
N -12.512500 -68.031700 -14.625800
N -12.351100 -60.255300 -8.412400
C -12.245800 -61.235500 -9.353300
H -11.822600 -62.708200 -11.590900
O -11.788900 -68.089600 -15.628100
C -11.677400 -64.658700 -13.398400
C -11.671100 -65.793300 -14.155300
O -11.140100 -61.324300 -9.980800
H -11.059400 -63.963700 -13.593800
H -11.043200 -65.897200 -14.858100
H -20.148400 -49.881800 -14.858100
H -20.132200 -51.815300 -13.593800
O -20.051500 -54.454700 -9.980800
C -19.520500 -49.985700 -14.155300
C -19.514200 -51.120300 -13.398400
O -19.402700 -47.689400 -15.628100
H -19.369000 -53.070800 -11.590900
C -18.945800 -54.543500 -9.353300
N -18.840500 -55.523700 -8.412400
N -18.679100 -47.747300 -14.625800
C -18.674400 -52.432400 -11.475600
C -18.625300 -51.282400 -12.345000
C -18.608100 -48.993800 -13.884200
H -18.091100 -57.194800 -6.801500
O -18.056000 -46.782400 -14.211500
C -17.833800 -53.667400 -9.644800
N -17.802600 -52.613800 -10.555100
C -17.719200 -50.259700 -12.104600
C -17.717600 -49.098000 -12.851200
C -17.716800 -55.616400 -7.691300
N -17.629500 -56.534900 -6.760600
H -17.114900 -48.390600 -12.651000
H -17.083700 -50.360400 -11.404300
H -17.007200 -56.731700 -6.341200
C -16.724200 -53.783200 -8.841900
N -16.673500 -54.759600 -7.899400
H -15.756800 -51.964300 -8.817400
H -15.539000 -54.820200 -6.178300
C -15.520200 -52.926400 -8.806100
C -15.368900 -54.728700 -7.159500
H -15.188400 -52.727300 -6.737600
H -14.912200 -53.122100 -9.564200
C -14.900200 -53.347100 -7.456100
H -14.851300 -56.724800 -7.335400
C -14.471300 -55.859500 -7.629900
O -14.345000 -55.851800 -9.064900
H -14.036200 -54.956400 -9.358400
H -13.911700 -53.325500 -7.508500
H -13.575800 -55.762300 -7.218400
