39
Fragment
H -17.615800 -60.016700 -7.218400
H -17.279900 -62.453500 -7.508500
H -17.155400 -60.822600 -9.358400
O -16.846600 -59.927200 -9.064900
C -16.720300 -59.919500 -7.629900
H -16.340300 -59.054200 -7.335400
C -16.291400 -62.431900 -7.456100
H -16.279400 -62.656900 -9.564200
H -16.003200 -63.051700 -6.737600
C -15.822700 -61.050300 -7.159500
C -15.671400 -62.852600 -8.806100
H -15.652600 -60.958800 -6.178300
H -15.434800 -63.814700 -8.817400
N -14.518100 -61.019400 -7.899400
C -14.467400 -61.995800 -8.841900
H -14.184400 -59.047300 -6.341200
H -14.107900 -65.418600 -11.404300
H -14.076700 -67.388400 -12.651000
N -13.562100 -59.244100 -6.760600
C -13.474800 -60.162600 -7.691300
C -13.474000 -66.681000 -12.851200
C -13.472400 -65.519300 -12.104600
N -13.389000 -63.165200 -10.555100
C -13.357800 -62.111600 -9.644800
O -13.135600 -68.996600 -14.211500
H -13.100500 -58.584200 -6.801500
C -12.583500 -66.785200 -13.884200
C -12.566300 -64.496600 -12.345000
C -12.517200 -63.346600 -11.475600
N -12.512500 -68.031700 -14.625800
N -12.351100 -60.255300 -8.412400
C -12.245800 -61.235500 -9.353300
H -11.822600 -62.708200 -11.590900
O -11.788900 -68.089600 -15.628100
C -11.677400 -64.658700 -13.398400
C -11.671100 -65.793300 -14.155300
O -11.140100 -61.324300 -9.980800
H -11.059400 -63.963700 -13.593800
H -11.043200 -65.897200 -14.858100
39
Fragment
H -17.615800 -60.016700 -12.332300
H -17.279900 -62.453500 -12.622400
H -17.155400 -60.822600 -14.472300
O -16.846600 -59.927200 -14.178800
C -16.720300 -59.919500 -12.743800
H -16.340300 -59.054200 -12.449300
C -16.291400 -62.431900 -12.570000
H -16.279400 -62.656900 -14.678100
H -16.003200 -63.051700 -11.851500
C -15.822700 -61.050300 -12.273400
C -15.671400 -62.852600 -13.920000
H -15.652600 -60.958800 -11.292200
H -15.434800 -63.814700 -13.931300
N -14.518100 -61.019400 -13.013300
C -14.467400 -61.995800 -13.955800
H -14.184400 -59.047300 -11.455100
H -14.107900 -65.418600 -16.518200
H -14.076700 -67.388400 -17.764900
N -13.562100 -59.244100 -11.874500
C -13.474800 -60.162600 -12.805200
C -13.474000 -66.681000 -17.965100
C -13.472400 -65.519300 -17.218500
N -13.389000 -63.165200 -15.669000
C -13.357800 -62.111600 -14.758700
O -13.135600 -68.996600 -19.325400
H -13.100500 -58.584200 -11.915400
C -12.583500 -66.785200 -18.998100
C -12.566300 -64.496600 -17.458900
C -12.517200 -63.346600 -16.589500
N -12.512500 -68.031700 -19.739700
N -12.351100 -60.255300 -13.526300
C -12.245800 -61.235500 -14.467200
H -11.822600 -62.708200 -16.704800
O -11.788900 -68.089600 -20.742000
C -11.677400 -64.658700 -18.512300
C -11.671100 -65.793300 -19.269200
O -11.140100 -61.324300 -15.094700
H -11.059400 -63.963700 -18.707700
H -11.043200 -65.897200 -19.972000
78
Fragment
H -17.615800 -60.016700 -7.218400
H -17.279900 -62.453500 -7.508500
H -17.155400 -60.822600 -9.358400
O -16.846600 -59.927200 -9.064900
C -16.720300 -59.919500 -7.629900
H -16.340300 -59.054200 -7.335400
C -16.291400 -62.431900 -7.456100
H -16.279400 -62.656900 -9.564200
H -16.003200 -63.051700 -6.737600
C -15.822700 -61.050300 -7.159500
C -15.671400 -62.852600 -8.806100
H -15.652600 -60.958800 -6.178300
H -15.434800 -63.814700 -8.817400
N -14.518100 -61.019400 -7.899400
C -14.467400 -61.995800 -8.841900
H -14.184400 -59.047300 -6.341200
H -14.107900 -65.418600 -11.404300
H -14.076700 -67.388400 -12.651000
N -13.562100 -59.244100 -6.760600
C -13.474800 -60.162600 -7.691300
C -13.474000 -66.681000 -12.851200
C -13.472400 -65.519300 -12.104600
N -13.389000 -63.165200 -10.555100
C -13.357800 -62.111600 -9.644800
O -13.135600 -68.996600 -14.211500
H -13.100500 -58.584200 -6.801500
C -12.583500 -66.785200 -13.884200
C -12.566300 -64.496600 -12.345000
C -12.517200 -63.346600 -11.475600
N -12.512500 -68.031700 -14.625800
N -12.351100 -60.255300 -8.412400
C -12.245800 -61.235500 -9.353300
H -11.822600 -62.708200 -11.590900
O -11.788900 -68.089600 -15.628100
C -11.677400 -64.658700 -13.398400
C -11.671100 -65.793300 -14.155300
O -11.140100 -61.324300 -9.980800
H -11.059400 -63.963700 -13.593800
H -11.043200 -65.897200 -14.858100
H -17.615800 -60.016700 -12.332300
H -17.279900 -62.453500 -12.622400
H -17.155400 -60.822600 -14.472300
O -16.846600 -59.927200 -14.178800
C -16.720300 -59.919500 -12.743800
H -16.340300 -59.054200 -12.449300
C -16.291400 -62.431900 -12.570000
H -16.279400 -62.656900 -14.678100
H -16.003200 -63.051700 -11.851500
C -15.822700 -61.050300 -12.273400
C -15.671400 -62.852600 -13.920000
H -15.652600 -60.958800 -11.292200
H -15.434800 -63.814700 -13.931300
N -14.518100 -61.019400 -13.013300
C -14.467400 -61.995800 -13.955800
H -14.184400 -59.047300 -11.455100
H -14.107900 -65.418600 -16.518200
H -14.076700 -67.388400 -17.764900
N -13.562100 -59.244100 -11.874500
C -13.474800 -60.162600 -12.805200
C -13.474000 -66.681000 -17.965100
C -13.472400 -65.519300 -17.218500
N -13.389000 -63.165200 -15.669000
C -13.357800 -62.111600 -14.758700
O -13.135600 -68.996600 -19.325400
H -13.100500 -58.584200 -11.915400
C -12.583500 -66.785200 -18.998100
C -12.566300 -64.496600 -17.458900
C -12.517200 -63.346600 -16.589500
N -12.512500 -68.031700 -19.739700
N -12.351100 -60.255300 -13.526300
C -12.245800 -61.235500 -14.467200
H -11.822600 -62.708200 -16.704800
O -11.788900 -68.089600 -20.742000
C -11.677400 -64.658700 -18.512300
C -11.671100 -65.793300 -19.269200
O -11.140100 -61.324300 -15.094700
H -11.059400 -63.963700 -18.707700
H -11.043200 -65.897200 -19.972000
