39
Fragment
H -17.615800 -60.016700 -7.218400
H -17.279900 -62.453500 -7.508500
H -17.155400 -60.822600 -9.358400
O -16.846600 -59.927200 -9.064900
C -16.720300 -59.919500 -7.629900
H -16.340300 -59.054200 -7.335400
C -16.291400 -62.431900 -7.456100
H -16.279400 -62.656900 -9.564200
H -16.003200 -63.051700 -6.737600
C -15.822700 -61.050300 -7.159500
C -15.671400 -62.852600 -8.806100
H -15.652600 -60.958800 -6.178300
H -15.434800 -63.814700 -8.817400
N -14.518100 -61.019400 -7.899400
C -14.467400 -61.995800 -8.841900
H -14.184400 -59.047300 -6.341200
H -14.107900 -65.418600 -11.404300
H -14.076700 -67.388400 -12.651000
N -13.562100 -59.244100 -6.760600
C -13.474800 -60.162600 -7.691300
C -13.474000 -66.681000 -12.851200
C -13.472400 -65.519300 -12.104600
N -13.389000 -63.165200 -10.555100
C -13.357800 -62.111600 -9.644800
O -13.135600 -68.996600 -14.211500
H -13.100500 -58.584200 -6.801500
C -12.583500 -66.785200 -13.884200
C -12.566300 -64.496600 -12.345000
C -12.517200 -63.346600 -11.475600
N -12.512500 -68.031700 -14.625800
N -12.351100 -60.255300 -8.412400
C -12.245800 -61.235500 -9.353300
H -11.822600 -62.708200 -11.590900
O -11.788900 -68.089600 -15.628100
C -11.677400 -64.658700 -13.398400
C -11.671100 -65.793300 -14.155300
O -11.140100 -61.324300 -9.980800
H -11.059400 -63.963700 -13.593800
H -11.043200 -65.897200 -14.858100
39
Fragment
H -21.514700 -75.058800 -18.351100
H -21.178900 -72.622000 -18.061000
H -21.054300 -74.252900 -16.211100
O -20.745500 -75.148300 -16.504600
C -20.619200 -75.156000 -17.939600
H -20.239200 -76.021300 -18.234100
C -20.190300 -72.643600 -18.113400
H -20.178400 -72.418600 -16.005300
H -19.902100 -72.023800 -18.831900
C -19.721700 -74.025200 -18.410000
C -19.570400 -72.222900 -16.763400
H -19.551600 -74.116700 -19.391200
H -19.333700 -71.260800 -16.752100
N -18.417100 -74.056100 -17.670100
C -18.366400 -73.079700 -16.727600
H -18.083300 -76.028200 -19.228300
H -18.006800 -69.656900 -14.165200
H -17.975600 -67.687100 -12.918500
N -17.461100 -75.831400 -18.808900
C -17.373700 -74.912900 -17.878200
C -17.372900 -68.394500 -12.718300
C -17.371400 -69.556200 -13.464900
N -17.287900 -71.910300 -15.014400
C -17.256800 -72.963900 -15.924700
O -17.034500 -66.078900 -11.358000
H -16.999400 -76.491300 -18.768000
C -16.482400 -68.290300 -11.685300
C -16.465300 -70.578900 -13.224500
C -16.416100 -71.728900 -14.093900
N -16.411500 -67.043800 -10.943700
N -16.250000 -74.820200 -17.157100
C -16.144800 -73.840000 -16.216200
H -15.721500 -72.367300 -13.978600
O -15.687800 -66.985900 -9.941400
C -15.576300 -70.416800 -12.171100
C -15.570100 -69.282200 -11.414200
O -15.039000 -73.751200 -15.588700
H -14.958400 -71.111800 -11.975700
H -14.942200 -69.178300 -10.711400
78
Fragment
H -17.615800 -60.016700 -7.218400
H -17.279900 -62.453500 -7.508500
H -17.155400 -60.822600 -9.358400
O -16.846600 -59.927200 -9.064900
C -16.720300 -59.919500 -7.629900
H -16.340300 -59.054200 -7.335400
C -16.291400 -62.431900 -7.456100
H -16.279400 -62.656900 -9.564200
H -16.003200 -63.051700 -6.737600
C -15.822700 -61.050300 -7.159500
C -15.671400 -62.852600 -8.806100
H -15.652600 -60.958800 -6.178300
H -15.434800 -63.814700 -8.817400
N -14.518100 -61.019400 -7.899400
C -14.467400 -61.995800 -8.841900
H -14.184400 -59.047300 -6.341200
H -14.107900 -65.418600 -11.404300
H -14.076700 -67.388400 -12.651000
N -13.562100 -59.244100 -6.760600
C -13.474800 -60.162600 -7.691300
C -13.474000 -66.681000 -12.851200
C -13.472400 -65.519300 -12.104600
N -13.389000 -63.165200 -10.555100
C -13.357800 -62.111600 -9.644800
O -13.135600 -68.996600 -14.211500
H -13.100500 -58.584200 -6.801500
C -12.583500 -66.785200 -13.884200
C -12.566300 -64.496600 -12.345000
C -12.517200 -63.346600 -11.475600
N -12.512500 -68.031700 -14.625800
N -12.351100 -60.255300 -8.412400
C -12.245800 -61.235500 -9.353300
H -11.822600 -62.708200 -11.590900
O -11.788900 -68.089600 -15.628100
C -11.677400 -64.658700 -13.398400
C -11.671100 -65.793300 -14.155300
O -11.140100 -61.324300 -9.980800
H -11.059400 -63.963700 -13.593800
H -11.043200 -65.897200 -14.858100
H -21.514700 -75.058800 -18.351100
H -21.178900 -72.622000 -18.061000
H -21.054300 -74.252900 -16.211100
O -20.745500 -75.148300 -16.504600
C -20.619200 -75.156000 -17.939600
H -20.239200 -76.021300 -18.234100
C -20.190300 -72.643600 -18.113400
H -20.178400 -72.418600 -16.005300
H -19.902100 -72.023800 -18.831900
C -19.721700 -74.025200 -18.410000
C -19.570400 -72.222900 -16.763400
H -19.551600 -74.116700 -19.391200
H -19.333700 -71.260800 -16.752100
N -18.417100 -74.056100 -17.670100
C -18.366400 -73.079700 -16.727600
H -18.083300 -76.028200 -19.228300
H -18.006800 -69.656900 -14.165200
H -17.975600 -67.687100 -12.918500
N -17.461100 -75.831400 -18.808900
C -17.373700 -74.912900 -17.878200
C -17.372900 -68.394500 -12.718300
C -17.371400 -69.556200 -13.464900
N -17.287900 -71.910300 -15.014400
C -17.256800 -72.963900 -15.924700
O -17.034500 -66.078900 -11.358000
H -16.999400 -76.491300 -18.768000
C -16.482400 -68.290300 -11.685300
C -16.465300 -70.578900 -13.224500
C -16.416100 -71.728900 -14.093900
N -16.411500 -67.043800 -10.943700
N -16.250000 -74.820200 -17.157100
C -16.144800 -73.840000 -16.216200
H -15.721500 -72.367300 -13.978600
O -15.687800 -66.985900 -9.941400
C -15.576300 -70.416800 -12.171100
C -15.570100 -69.282200 -11.414200
O -15.039000 -73.751200 -15.588700
H -14.958400 -71.111800 -11.975700
H -14.942200 -69.178300 -10.711400
