39
Fragment
H -17.615800 -60.016700 -7.218400
H -17.279900 -62.453500 -7.508500
H -17.155400 -60.822600 -9.358400
O -16.846600 -59.927200 -9.064900
C -16.720300 -59.919500 -7.629900
H -16.340300 -59.054200 -7.335400
C -16.291400 -62.431900 -7.456100
H -16.279400 -62.656900 -9.564200
H -16.003200 -63.051700 -6.737600
C -15.822700 -61.050300 -7.159500
C -15.671400 -62.852600 -8.806100
H -15.652600 -60.958800 -6.178300
H -15.434800 -63.814700 -8.817400
N -14.518100 -61.019400 -7.899400
C -14.467400 -61.995800 -8.841900
H -14.184400 -59.047300 -6.341200
H -14.107900 -65.418600 -11.404300
H -14.076700 -67.388400 -12.651000
N -13.562100 -59.244100 -6.760600
C -13.474800 -60.162600 -7.691300
C -13.474000 -66.681000 -12.851200
C -13.472400 -65.519300 -12.104600
N -13.389000 -63.165200 -10.555100
C -13.357800 -62.111600 -9.644800
O -13.135600 -68.996600 -14.211500
H -13.100500 -58.584200 -6.801500
C -12.583500 -66.785200 -13.884200
C -12.566300 -64.496600 -12.345000
C -12.517200 -63.346600 -11.475600
N -12.512500 -68.031700 -14.625800
N -12.351100 -60.255300 -8.412400
C -12.245800 -61.235500 -9.353300
H -11.822600 -62.708200 -11.590900
O -11.788900 -68.089600 -15.628100
C -11.677400 -64.658700 -13.398400
C -11.671100 -65.793300 -14.155300
O -11.140100 -61.324300 -9.980800
H -11.059400 -63.963700 -13.593800
H -11.043200 -65.897200 -14.858100
39
Fragment
H -13.716800 -75.058800 -18.351100
H -13.381000 -72.622000 -18.061000
H -13.256400 -74.252900 -16.211100
O -12.947600 -75.148300 -16.504600
C -12.821300 -75.156000 -17.939600
H -12.441300 -76.021300 -18.234100
C -12.392400 -72.643600 -18.113400
H -12.380500 -72.418600 -16.005300
H -12.104200 -72.023800 -18.831900
C -11.923800 -74.025200 -18.410000
C -11.772500 -72.222900 -16.763400
H -11.753700 -74.116700 -19.391200
H -11.535800 -71.260800 -16.752100
N -10.619200 -74.056100 -17.670100
C -10.568500 -73.079700 -16.727600
H -10.285400 -76.028200 -19.228300
H -10.208900 -69.656900 -14.165200
H -10.177700 -67.687100 -12.918500
N -9.663200 -75.831400 -18.808900
C -9.575800 -74.912900 -17.878200
C -9.575000 -68.394500 -12.718300
C -9.573500 -69.556200 -13.464900
N -9.490000 -71.910300 -15.014400
C -9.458900 -72.963900 -15.924700
O -9.236600 -66.078900 -11.358000
H -9.201500 -76.491300 -18.768000
C -8.684500 -68.290300 -11.685300
C -8.667400 -70.578900 -13.224500
C -8.618200 -71.728900 -14.093900
N -8.613600 -67.043800 -10.943700
N -8.452100 -74.820200 -17.157100
C -8.346900 -73.840000 -16.216200
H -7.923600 -72.367300 -13.978600
O -7.889900 -66.985900 -9.941400
C -7.778400 -70.416800 -12.171100
C -7.772200 -69.282200 -11.414200
O -7.241100 -73.751200 -15.588700
H -7.160500 -71.111800 -11.975700
H -7.144300 -69.178300 -10.711400
78
Fragment
H -17.615800 -60.016700 -7.218400
H -17.279900 -62.453500 -7.508500
H -17.155400 -60.822600 -9.358400
O -16.846600 -59.927200 -9.064900
C -16.720300 -59.919500 -7.629900
H -16.340300 -59.054200 -7.335400
C -16.291400 -62.431900 -7.456100
H -16.279400 -62.656900 -9.564200
H -16.003200 -63.051700 -6.737600
C -15.822700 -61.050300 -7.159500
C -15.671400 -62.852600 -8.806100
H -15.652600 -60.958800 -6.178300
H -15.434800 -63.814700 -8.817400
N -14.518100 -61.019400 -7.899400
C -14.467400 -61.995800 -8.841900
H -14.184400 -59.047300 -6.341200
H -14.107900 -65.418600 -11.404300
H -14.076700 -67.388400 -12.651000
N -13.562100 -59.244100 -6.760600
C -13.474800 -60.162600 -7.691300
C -13.474000 -66.681000 -12.851200
C -13.472400 -65.519300 -12.104600
N -13.389000 -63.165200 -10.555100
C -13.357800 -62.111600 -9.644800
O -13.135600 -68.996600 -14.211500
H -13.100500 -58.584200 -6.801500
C -12.583500 -66.785200 -13.884200
C -12.566300 -64.496600 -12.345000
C -12.517200 -63.346600 -11.475600
N -12.512500 -68.031700 -14.625800
N -12.351100 -60.255300 -8.412400
C -12.245800 -61.235500 -9.353300
H -11.822600 -62.708200 -11.590900
O -11.788900 -68.089600 -15.628100
C -11.677400 -64.658700 -13.398400
C -11.671100 -65.793300 -14.155300
O -11.140100 -61.324300 -9.980800
H -11.059400 -63.963700 -13.593800
H -11.043200 -65.897200 -14.858100
H -13.716800 -75.058800 -18.351100
H -13.381000 -72.622000 -18.061000
H -13.256400 -74.252900 -16.211100
O -12.947600 -75.148300 -16.504600
C -12.821300 -75.156000 -17.939600
H -12.441300 -76.021300 -18.234100
C -12.392400 -72.643600 -18.113400
H -12.380500 -72.418600 -16.005300
H -12.104200 -72.023800 -18.831900
C -11.923800 -74.025200 -18.410000
C -11.772500 -72.222900 -16.763400
H -11.753700 -74.116700 -19.391200
H -11.535800 -71.260800 -16.752100
N -10.619200 -74.056100 -17.670100
C -10.568500 -73.079700 -16.727600
H -10.285400 -76.028200 -19.228300
H -10.208900 -69.656900 -14.165200
H -10.177700 -67.687100 -12.918500
N -9.663200 -75.831400 -18.808900
C -9.575800 -74.912900 -17.878200
C -9.575000 -68.394500 -12.718300
C -9.573500 -69.556200 -13.464900
N -9.490000 -71.910300 -15.014400
C -9.458900 -72.963900 -15.924700
O -9.236600 -66.078900 -11.358000
H -9.201500 -76.491300 -18.768000
C -8.684500 -68.290300 -11.685300
C -8.667400 -70.578900 -13.224500
C -8.618200 -71.728900 -14.093900
N -8.613600 -67.043800 -10.943700
N -8.452100 -74.820200 -17.157100
C -8.346900 -73.840000 -16.216200
H -7.923600 -72.367300 -13.978600
O -7.889900 -66.985900 -9.941400
C -7.778400 -70.416800 -12.171100
C -7.772200 -69.282200 -11.414200
O -7.241100 -73.751200 -15.588700
H -7.160500 -71.111800 -11.975700
H -7.144300 -69.178300 -10.711400
