39
Fragment
H -5.493700 -6.685700 -18.072500
H -5.384100 -4.819700 -19.471000
C -4.721200 -6.536600 -18.605200
C -4.649300 -5.420000 -19.426500
H -3.716200 -8.200800 -18.003100
C -3.661600 -7.435300 -18.562800
C -3.515600 -5.176500 -20.179500
H -3.461600 -4.403800 -20.729400
H -3.332000 -8.088500 -21.744800
H -3.255200 -9.000300 -22.910200
N -2.814700 -8.550800 -22.319900
C -2.519800 -7.223900 -19.334600
C -2.457400 -6.071700 -20.123900
C -1.727900 -9.141600 -21.762600
C -1.417900 -8.226300 -19.346300
C -1.146200 -8.991600 -20.485800
H -1.111200 -9.239500 -26.798200
H -1.103600 -11.511400 -27.336200
C -1.093500 -9.889500 -26.106400
C -1.091300 -11.239300 -26.425900
C -1.072000 -12.191700 -25.420400
C -1.069600 -9.485000 -24.775600
H -1.069500 -13.115200 -25.643900
H -1.067600 -8.562200 -24.551700
C -1.054900 -11.804500 -24.084800
C -1.048600 -10.449600 -23.781100
H -1.047900 -12.455800 -23.392500
Cl -1.011600 -5.712500 -21.023500
N -0.968700 -10.046300 -22.409700
N -0.820000 -7.113300 -16.049600
C -0.763200 -7.703500 -17.037000
C -0.605900 -8.452400 -18.247800
C -0.048100 -9.900100 -20.475700
N 0.079200 -10.554500 -21.624800
C 0.492700 -9.409800 -18.318200
N 0.780000 -10.094600 -19.415600
H 1.244100 -9.067900 -16.527700
N 1.258100 -9.624000 -17.228900
H 2.016400 -10.039900 -17.363300
39
Fragment
H 1.799400 -6.685700 -18.072500
H 1.909000 -4.819700 -19.471000
C 2.571900 -6.536600 -18.605200
C 2.643800 -5.420000 -19.426500
H 3.576900 -8.200800 -18.003100
C 3.631500 -7.435300 -18.562800
C 3.777500 -5.176500 -20.179500
H 3.831500 -4.403800 -20.729400
H 3.961100 -8.088500 -21.744800
H 4.037900 -9.000300 -22.910200
N 4.478400 -8.550800 -22.319900
C 4.773300 -7.223900 -19.334600
C 4.835700 -6.071700 -20.123900
C 5.565200 -9.141600 -21.762600
C 5.875200 -8.226300 -19.346300
C 6.146900 -8.991600 -20.485800
H 6.181900 -9.239500 -26.798200
H 6.189500 -11.511400 -27.336200
C 6.199600 -9.889500 -26.106400
C 6.201800 -11.239300 -26.425900
C 6.221100 -12.191700 -25.420400
C 6.223500 -9.485000 -24.775600
H 6.223600 -13.115200 -25.643900
H 6.225500 -8.562200 -24.551700
C 6.238200 -11.804500 -24.084800
C 6.244500 -10.449600 -23.781100
H 6.245200 -12.455800 -23.392500
Cl 6.281500 -5.712500 -21.023500
N 6.324400 -10.046300 -22.409700
N 6.473100 -7.113300 -16.049600
C 6.529900 -7.703500 -17.037000
C 6.687200 -8.452400 -18.247800
C 7.245000 -9.900100 -20.475700
N 7.372300 -10.554500 -21.624800
C 7.785800 -9.409800 -18.318200
N 8.073100 -10.094600 -19.415600
H 8.537200 -9.067900 -16.527700
N 8.551200 -9.624000 -17.228900
H 9.309500 -10.039900 -17.363300
78
Fragment
H -5.493700 -6.685700 -18.072500
H -5.384100 -4.819700 -19.471000
C -4.721200 -6.536600 -18.605200
C -4.649300 -5.420000 -19.426500
H -3.716200 -8.200800 -18.003100
C -3.661600 -7.435300 -18.562800
C -3.515600 -5.176500 -20.179500
H -3.461600 -4.403800 -20.729400
H -3.332000 -8.088500 -21.744800
H -3.255200 -9.000300 -22.910200
N -2.814700 -8.550800 -22.319900
C -2.519800 -7.223900 -19.334600
C -2.457400 -6.071700 -20.123900
C -1.727900 -9.141600 -21.762600
C -1.417900 -8.226300 -19.346300
C -1.146200 -8.991600 -20.485800
H -1.111200 -9.239500 -26.798200
H -1.103600 -11.511400 -27.336200
C -1.093500 -9.889500 -26.106400
C -1.091300 -11.239300 -26.425900
C -1.072000 -12.191700 -25.420400
C -1.069600 -9.485000 -24.775600
H -1.069500 -13.115200 -25.643900
H -1.067600 -8.562200 -24.551700
C -1.054900 -11.804500 -24.084800
C -1.048600 -10.449600 -23.781100
H -1.047900 -12.455800 -23.392500
Cl -1.011600 -5.712500 -21.023500
N -0.968700 -10.046300 -22.409700
N -0.820000 -7.113300 -16.049600
C -0.763200 -7.703500 -17.037000
C -0.605900 -8.452400 -18.247800
C -0.048100 -9.900100 -20.475700
N 0.079200 -10.554500 -21.624800
C 0.492700 -9.409800 -18.318200
N 0.780000 -10.094600 -19.415600
H 1.244100 -9.067900 -16.527700
N 1.258100 -9.624000 -17.228900
H 2.016400 -10.039900 -17.363300
H 1.799400 -6.685700 -18.072500
H 1.909000 -4.819700 -19.471000
C 2.571900 -6.536600 -18.605200
C 2.643800 -5.420000 -19.426500
H 3.576900 -8.200800 -18.003100
C 3.631500 -7.435300 -18.562800
C 3.777500 -5.176500 -20.179500
H 3.831500 -4.403800 -20.729400
H 3.961100 -8.088500 -21.744800
H 4.037900 -9.000300 -22.910200
N 4.478400 -8.550800 -22.319900
C 4.773300 -7.223900 -19.334600
C 4.835700 -6.071700 -20.123900
C 5.565200 -9.141600 -21.762600
C 5.875200 -8.226300 -19.346300
C 6.146900 -8.991600 -20.485800
H 6.181900 -9.239500 -26.798200
H 6.189500 -11.511400 -27.336200
C 6.199600 -9.889500 -26.106400
C 6.201800 -11.239300 -26.425900
C 6.221100 -12.191700 -25.420400
C 6.223500 -9.485000 -24.775600
H 6.223600 -13.115200 -25.643900
H 6.225500 -8.562200 -24.551700
C 6.238200 -11.804500 -24.084800
C 6.244500 -10.449600 -23.781100
H 6.245200 -12.455800 -23.392500
Cl 6.281500 -5.712500 -21.023500
N 6.324400 -10.046300 -22.409700
N 6.473100 -7.113300 -16.049600
C 6.529900 -7.703500 -17.037000
C 6.687200 -8.452400 -18.247800
C 7.245000 -9.900100 -20.475700
N 7.372300 -10.554500 -21.624800
C 7.785800 -9.409800 -18.318200
N 8.073100 -10.094600 -19.415600
H 8.537200 -9.067900 -16.527700
N 8.551200 -9.624000 -17.228900
H 9.309500 -10.039900 -17.363300
