39
Fragment
H -5.493700 -6.685700 -18.072500
H -5.384100 -4.819700 -19.471000
C -4.721200 -6.536600 -18.605200
C -4.649300 -5.420000 -19.426500
H -3.716200 -8.200800 -18.003100
C -3.661600 -7.435300 -18.562800
C -3.515600 -5.176500 -20.179500
H -3.461600 -4.403800 -20.729400
H -3.332000 -8.088500 -21.744800
H -3.255200 -9.000300 -22.910200
N -2.814700 -8.550800 -22.319900
C -2.519800 -7.223900 -19.334600
C -2.457400 -6.071700 -20.123900
C -1.727900 -9.141600 -21.762600
C -1.417900 -8.226300 -19.346300
C -1.146200 -8.991600 -20.485800
H -1.111200 -9.239500 -26.798200
H -1.103600 -11.511400 -27.336200
C -1.093500 -9.889500 -26.106400
C -1.091300 -11.239300 -26.425900
C -1.072000 -12.191700 -25.420400
C -1.069600 -9.485000 -24.775600
H -1.069500 -13.115200 -25.643900
H -1.067600 -8.562200 -24.551700
C -1.054900 -11.804500 -24.084800
C -1.048600 -10.449600 -23.781100
H -1.047900 -12.455800 -23.392500
Cl -1.011600 -5.712500 -21.023500
N -0.968700 -10.046300 -22.409700
N -0.820000 -7.113300 -16.049600
C -0.763200 -7.703500 -17.037000
C -0.605900 -8.452400 -18.247800
C -0.048100 -9.900100 -20.475700
N 0.079200 -10.554500 -21.624800
C 0.492700 -9.409800 -18.318200
N 0.780000 -10.094600 -19.415600
H 1.244100 -9.067900 -16.527700
N 1.258100 -9.624000 -17.228900
H 2.016400 -10.039900 -17.363300
39
Fragment
H 2.746000 -10.830700 -19.830500
N 3.504300 -11.246600 -19.964900
H 3.518300 -11.802700 -20.666100
N 3.982400 -10.776000 -17.778300
C 4.269700 -11.460900 -18.875600
N 4.683200 -10.316100 -15.569100
C 4.810500 -10.970500 -16.718100
C 5.368300 -12.418300 -18.946100
C 5.525600 -13.167100 -20.156800
N 5.582400 -13.757400 -21.144200
N 5.731000 -10.824400 -14.784200
Cl 5.774000 -15.158200 -16.170400
H 5.810300 -8.414800 -13.801400
C 5.811000 -10.421100 -13.412700
C 5.817300 -9.066200 -13.109100
H 5.830000 -12.308400 -12.642200
H 5.831900 -7.755400 -11.549900
C 5.832000 -11.385600 -12.418300
C 5.834400 -8.679000 -11.773500
C 5.853700 -9.631300 -10.768000
C 5.855900 -10.981200 -11.087500
H 5.866000 -9.359200 -9.857600
H 5.873600 -11.631200 -10.395700
C 5.908500 -11.879100 -16.708100
C 6.180200 -12.644300 -17.847600
C 6.490300 -11.729100 -15.431200
C 7.219800 -14.799000 -17.070000
C 7.282200 -13.646800 -17.859300
N 7.577100 -12.319800 -14.873900
H 8.017600 -11.870300 -14.283700
H 8.094400 -12.782100 -15.449100
H 8.224000 -16.466800 -16.464500
C 8.278000 -15.694200 -17.014300
C 8.424000 -13.435300 -18.631000
H 8.478600 -12.669800 -19.190800
C 9.411700 -15.450700 -17.767400
C 9.483600 -14.334100 -18.588600
H 10.146500 -16.051000 -17.722900
H 10.256100 -14.184900 -19.121400
78
Fragment
H -5.493700 -6.685700 -18.072500
H -5.384100 -4.819700 -19.471000
C -4.721200 -6.536600 -18.605200
C -4.649300 -5.420000 -19.426500
H -3.716200 -8.200800 -18.003100
C -3.661600 -7.435300 -18.562800
C -3.515600 -5.176500 -20.179500
H -3.461600 -4.403800 -20.729400
H -3.332000 -8.088500 -21.744800
H -3.255200 -9.000300 -22.910200
N -2.814700 -8.550800 -22.319900
C -2.519800 -7.223900 -19.334600
C -2.457400 -6.071700 -20.123900
C -1.727900 -9.141600 -21.762600
C -1.417900 -8.226300 -19.346300
C -1.146200 -8.991600 -20.485800
H -1.111200 -9.239500 -26.798200
H -1.103600 -11.511400 -27.336200
C -1.093500 -9.889500 -26.106400
C -1.091300 -11.239300 -26.425900
C -1.072000 -12.191700 -25.420400
C -1.069600 -9.485000 -24.775600
H -1.069500 -13.115200 -25.643900
H -1.067600 -8.562200 -24.551700
C -1.054900 -11.804500 -24.084800
C -1.048600 -10.449600 -23.781100
H -1.047900 -12.455800 -23.392500
Cl -1.011600 -5.712500 -21.023500
N -0.968700 -10.046300 -22.409700
N -0.820000 -7.113300 -16.049600
C -0.763200 -7.703500 -17.037000
C -0.605900 -8.452400 -18.247800
C -0.048100 -9.900100 -20.475700
N 0.079200 -10.554500 -21.624800
C 0.492700 -9.409800 -18.318200
N 0.780000 -10.094600 -19.415600
H 1.244100 -9.067900 -16.527700
N 1.258100 -9.624000 -17.228900
H 2.016400 -10.039900 -17.363300
H 2.746000 -10.830700 -19.830500
N 3.504300 -11.246600 -19.964900
H 3.518300 -11.802700 -20.666100
N 3.982400 -10.776000 -17.778300
C 4.269700 -11.460900 -18.875600
N 4.683200 -10.316100 -15.569100
C 4.810500 -10.970500 -16.718100
C 5.368300 -12.418300 -18.946100
C 5.525600 -13.167100 -20.156800
N 5.582400 -13.757400 -21.144200
N 5.731000 -10.824400 -14.784200
Cl 5.774000 -15.158200 -16.170400
H 5.810300 -8.414800 -13.801400
C 5.811000 -10.421100 -13.412700
C 5.817300 -9.066200 -13.109100
H 5.830000 -12.308400 -12.642200
H 5.831900 -7.755400 -11.549900
C 5.832000 -11.385600 -12.418300
C 5.834400 -8.679000 -11.773500
C 5.853700 -9.631300 -10.768000
C 5.855900 -10.981200 -11.087500
H 5.866000 -9.359200 -9.857600
H 5.873600 -11.631200 -10.395700
C 5.908500 -11.879100 -16.708100
C 6.180200 -12.644300 -17.847600
C 6.490300 -11.729100 -15.431200
C 7.219800 -14.799000 -17.070000
C 7.282200 -13.646800 -17.859300
N 7.577100 -12.319800 -14.873900
H 8.017600 -11.870300 -14.283700
H 8.094400 -12.782100 -15.449100
H 8.224000 -16.466800 -16.464500
C 8.278000 -15.694200 -17.014300
C 8.424000 -13.435300 -18.631000
H 8.478600 -12.669800 -19.190800
C 9.411700 -15.450700 -17.767400
C 9.483600 -14.334100 -18.588600
H 10.146500 -16.051000 -17.722900
H 10.256100 -14.184900 -19.121400
