39
Fragment
H -5.493700 -6.685700 -18.072500
H -5.384100 -4.819700 -19.471000
C -4.721200 -6.536600 -18.605200
C -4.649300 -5.420000 -19.426500
H -3.716200 -8.200800 -18.003100
C -3.661600 -7.435300 -18.562800
C -3.515600 -5.176500 -20.179500
H -3.461600 -4.403800 -20.729400
H -3.332000 -8.088500 -21.744800
H -3.255200 -9.000300 -22.910200
N -2.814700 -8.550800 -22.319900
C -2.519800 -7.223900 -19.334600
C -2.457400 -6.071700 -20.123900
C -1.727900 -9.141600 -21.762600
C -1.417900 -8.226300 -19.346300
C -1.146200 -8.991600 -20.485800
H -1.111200 -9.239500 -26.798200
H -1.103600 -11.511400 -27.336200
C -1.093500 -9.889500 -26.106400
C -1.091300 -11.239300 -26.425900
C -1.072000 -12.191700 -25.420400
C -1.069600 -9.485000 -24.775600
H -1.069500 -13.115200 -25.643900
H -1.067600 -8.562200 -24.551700
C -1.054900 -11.804500 -24.084800
C -1.048600 -10.449600 -23.781100
H -1.047900 -12.455800 -23.392500
Cl -1.011600 -5.712500 -21.023500
N -0.968700 -10.046300 -22.409700
N -0.820000 -7.113300 -16.049600
C -0.763200 -7.703500 -17.037000
C -0.605900 -8.452400 -18.247800
C -0.048100 -9.900100 -20.475700
N 0.079200 -10.554500 -21.624800
C 0.492700 -9.409800 -18.318200
N 0.780000 -10.094600 -19.415600
H 1.244100 -9.067900 -16.527700
N 1.258100 -9.624000 -17.228900
H 2.016400 -10.039900 -17.363300
39
Fragment
H -12.786800 -6.685700 -18.072500
H -12.677200 -4.819700 -19.471000
C -12.014300 -6.536600 -18.605200
C -11.942400 -5.420000 -19.426500
H -11.009300 -8.200800 -18.003100
C -10.954700 -7.435300 -18.562800
C -10.808700 -5.176500 -20.179500
H -10.754700 -4.403800 -20.729400
H -10.625100 -8.088500 -21.744800
H -10.548300 -9.000300 -22.910200
N -10.107800 -8.550800 -22.319900
C -9.812900 -7.223900 -19.334600
C -9.750500 -6.071700 -20.123900
C -9.021000 -9.141600 -21.762600
C -8.711000 -8.226300 -19.346300
C -8.439300 -8.991600 -20.485800
H -8.404300 -9.239500 -26.798200
H -8.396700 -11.511400 -27.336200
C -8.386600 -9.889500 -26.106400
C -8.384400 -11.239300 -26.425900
C -8.365100 -12.191700 -25.420400
C -8.362700 -9.485000 -24.775600
H -8.362600 -13.115200 -25.643900
H -8.360700 -8.562200 -24.551700
C -8.348000 -11.804500 -24.084800
C -8.341700 -10.449600 -23.781100
H -8.341000 -12.455800 -23.392500
Cl -8.304700 -5.712500 -21.023500
N -8.261800 -10.046300 -22.409700
N -8.113100 -7.113300 -16.049600
C -8.056300 -7.703500 -17.037000
C -7.899000 -8.452400 -18.247800
C -7.341200 -9.900100 -20.475700
N -7.213900 -10.554500 -21.624800
C -6.800400 -9.409800 -18.318200
N -6.513100 -10.094600 -19.415600
H -6.049000 -9.067900 -16.527700
N -6.035000 -9.624000 -17.228900
H -5.276700 -10.039900 -17.363300
78
Fragment
H -5.493700 -6.685700 -18.072500
H -5.384100 -4.819700 -19.471000
C -4.721200 -6.536600 -18.605200
C -4.649300 -5.420000 -19.426500
H -3.716200 -8.200800 -18.003100
C -3.661600 -7.435300 -18.562800
C -3.515600 -5.176500 -20.179500
H -3.461600 -4.403800 -20.729400
H -3.332000 -8.088500 -21.744800
H -3.255200 -9.000300 -22.910200
N -2.814700 -8.550800 -22.319900
C -2.519800 -7.223900 -19.334600
C -2.457400 -6.071700 -20.123900
C -1.727900 -9.141600 -21.762600
C -1.417900 -8.226300 -19.346300
C -1.146200 -8.991600 -20.485800
H -1.111200 -9.239500 -26.798200
H -1.103600 -11.511400 -27.336200
C -1.093500 -9.889500 -26.106400
C -1.091300 -11.239300 -26.425900
C -1.072000 -12.191700 -25.420400
C -1.069600 -9.485000 -24.775600
H -1.069500 -13.115200 -25.643900
H -1.067600 -8.562200 -24.551700
C -1.054900 -11.804500 -24.084800
C -1.048600 -10.449600 -23.781100
H -1.047900 -12.455800 -23.392500
Cl -1.011600 -5.712500 -21.023500
N -0.968700 -10.046300 -22.409700
N -0.820000 -7.113300 -16.049600
C -0.763200 -7.703500 -17.037000
C -0.605900 -8.452400 -18.247800
C -0.048100 -9.900100 -20.475700
N 0.079200 -10.554500 -21.624800
C 0.492700 -9.409800 -18.318200
N 0.780000 -10.094600 -19.415600
H 1.244100 -9.067900 -16.527700
N 1.258100 -9.624000 -17.228900
H 2.016400 -10.039900 -17.363300
H -12.786800 -6.685700 -18.072500
H -12.677200 -4.819700 -19.471000
C -12.014300 -6.536600 -18.605200
C -11.942400 -5.420000 -19.426500
H -11.009300 -8.200800 -18.003100
C -10.954700 -7.435300 -18.562800
C -10.808700 -5.176500 -20.179500
H -10.754700 -4.403800 -20.729400
H -10.625100 -8.088500 -21.744800
H -10.548300 -9.000300 -22.910200
N -10.107800 -8.550800 -22.319900
C -9.812900 -7.223900 -19.334600
C -9.750500 -6.071700 -20.123900
C -9.021000 -9.141600 -21.762600
C -8.711000 -8.226300 -19.346300
C -8.439300 -8.991600 -20.485800
H -8.404300 -9.239500 -26.798200
H -8.396700 -11.511400 -27.336200
C -8.386600 -9.889500 -26.106400
C -8.384400 -11.239300 -26.425900
C -8.365100 -12.191700 -25.420400
C -8.362700 -9.485000 -24.775600
H -8.362600 -13.115200 -25.643900
H -8.360700 -8.562200 -24.551700
C -8.348000 -11.804500 -24.084800
C -8.341700 -10.449600 -23.781100
H -8.341000 -12.455800 -23.392500
Cl -8.304700 -5.712500 -21.023500
N -8.261800 -10.046300 -22.409700
N -8.113100 -7.113300 -16.049600
C -8.056300 -7.703500 -17.037000
C -7.899000 -8.452400 -18.247800
C -7.341200 -9.900100 -20.475700
N -7.213900 -10.554500 -21.624800
C -6.800400 -9.409800 -18.318200
N -6.513100 -10.094600 -19.415600
H -6.049000 -9.067900 -16.527700
N -6.035000 -9.624000 -17.228900
H -5.276700 -10.039900 -17.363300
