43
Fragment
H -31.232100 -8.171900 -26.965500
C -30.291100 -8.049200 -26.952100
H -30.289300 -6.370600 -28.106200
H -29.874600 -9.676800 -25.777000
C -29.727400 -6.974800 -27.636800
C -29.487100 -8.948200 -26.247300
C -28.349800 -6.777000 -27.640000
C -28.108900 -8.757400 -26.244700
H -27.965700 -6.045200 -28.107800
C -27.545700 -7.677100 -26.940800
H -27.117100 -9.546000 -24.585300
H -27.032600 -10.508300 -25.878900
C -27.022000 -9.566900 -25.570600
C -26.085600 -7.738700 -26.798500
C -25.762400 -8.860300 -26.013100
H -25.295800 -6.170600 -27.843200
C -25.079200 -6.937300 -27.326400
C -24.444800 -9.209800 -25.776200
H -24.229500 -9.969000 -25.247800
C -23.749900 -7.273400 -27.086900
C -23.439800 -8.416400 -26.335100
H -23.051800 -6.728700 -27.432300
N -22.082400 -8.770200 -26.159200
H -21.995800 -7.889900 -30.854500
O -21.772600 -9.577000 -28.848200
N -21.745300 -9.860700 -25.437800
C -21.258000 -8.565400 -28.463700
H -21.122200 -5.700500 -30.982700
C -21.039700 -7.722100 -30.658100
C -20.970900 -8.289900 -26.987800
O -20.839800 -7.556900 -29.215900
H -20.767200 -7.325400 -26.819200
H -20.705800 -6.526100 -32.287900
C -20.587800 -6.449900 -31.318400
N -20.529400 -10.169500 -25.544400
H -20.509500 -8.488800 -30.992600
C -19.852900 -9.215700 -26.467600
H -19.641700 -6.294500 -31.114200
H -19.444000 -9.714800 -27.231700
F -19.264300 -7.852800 -24.630500
C -18.778800 -8.476400 -25.703200
F -18.192600 -7.552000 -26.474500
F -17.824000 -9.308800 -25.277000
43
Fragment
H -29.556900 -5.230800 -35.184100
C -28.615900 -5.353600 -35.170800
H -28.614200 -7.032200 -36.324900
H -28.199400 -3.726000 -33.995700
C -28.052200 -6.428000 -35.855400
C -27.811900 -4.454500 -34.466000
C -26.674600 -6.625800 -35.858700
C -26.433700 -4.645400 -34.463300
H -26.290500 -7.357600 -36.326500
C -25.870500 -5.725700 -35.159500
H -25.441900 -3.856800 -32.804000
H -25.357500 -2.894500 -34.097600
C -25.346800 -3.835900 -33.789300
C -24.410400 -5.664000 -35.017100
C -24.087300 -4.542500 -34.231700
H -23.620600 -7.232100 -36.061900
C -23.404000 -6.465500 -35.545100
C -22.769600 -4.192900 -33.994900
H -22.554300 -3.433800 -33.466400
C -22.074800 -6.129300 -35.305600
C -21.764700 -4.986400 -34.553800
H -21.376700 -6.674000 -35.650900
N -20.407200 -4.632500 -34.377900
H -20.320700 -5.512800 -39.073200
O -20.097400 -3.825700 -37.066900
N -20.070100 -3.542100 -33.656400
C -19.582800 -4.837300 -36.682400
H -19.447100 -7.702300 -39.201400
C -19.364600 -5.680600 -38.876800
C -19.295700 -5.112900 -35.206500
O -19.164600 -5.845900 -37.434600
H -19.092000 -6.077300 -35.037800
H -19.030600 -6.876700 -40.506500
C -18.912700 -6.952800 -39.537100
N -18.854200 -3.233300 -33.763100
H -18.834400 -4.914000 -39.211300
C -18.177700 -4.187000 -34.686200
H -17.966500 -7.108300 -39.332900
H -17.768800 -3.687900 -35.450400
F -17.589200 -5.549900 -32.849200
C -17.103700 -4.926300 -33.921900
F -16.517500 -5.850700 -34.693100
F -16.148800 -4.094000 -33.495700
86
Fragment
H -31.232100 -8.171900 -26.965500
C -30.291100 -8.049200 -26.952100
H -30.289300 -6.370600 -28.106200
H -29.874600 -9.676800 -25.777000
C -29.727400 -6.974800 -27.636800
C -29.487100 -8.948200 -26.247300
C -28.349800 -6.777000 -27.640000
C -28.108900 -8.757400 -26.244700
H -27.965700 -6.045200 -28.107800
C -27.545700 -7.677100 -26.940800
H -27.117100 -9.546000 -24.585300
H -27.032600 -10.508300 -25.878900
C -27.022000 -9.566900 -25.570600
C -26.085600 -7.738700 -26.798500
C -25.762400 -8.860300 -26.013100
H -25.295800 -6.170600 -27.843200
C -25.079200 -6.937300 -27.326400
C -24.444800 -9.209800 -25.776200
H -24.229500 -9.969000 -25.247800
C -23.749900 -7.273400 -27.086900
C -23.439800 -8.416400 -26.335100
H -23.051800 -6.728700 -27.432300
N -22.082400 -8.770200 -26.159200
H -21.995800 -7.889900 -30.854500
O -21.772600 -9.577000 -28.848200
N -21.745300 -9.860700 -25.437800
C -21.258000 -8.565400 -28.463700
H -21.122200 -5.700500 -30.982700
C -21.039700 -7.722100 -30.658100
C -20.970900 -8.289900 -26.987800
O -20.839800 -7.556900 -29.215900
H -20.767200 -7.325400 -26.819200
H -20.705800 -6.526100 -32.287900
C -20.587800 -6.449900 -31.318400
N -20.529400 -10.169500 -25.544400
H -20.509500 -8.488800 -30.992600
C -19.852900 -9.215700 -26.467600
H -19.641700 -6.294500 -31.114200
H -19.444000 -9.714800 -27.231700
F -19.264300 -7.852800 -24.630500
C -18.778800 -8.476400 -25.703200
F -18.192600 -7.552000 -26.474500
F -17.824000 -9.308800 -25.277000
H -29.556900 -5.230800 -35.184100
C -28.615900 -5.353600 -35.170800
H -28.614200 -7.032200 -36.324900
H -28.199400 -3.726000 -33.995700
C -28.052200 -6.428000 -35.855400
C -27.811900 -4.454500 -34.466000
C -26.674600 -6.625800 -35.858700
C -26.433700 -4.645400 -34.463300
H -26.290500 -7.357600 -36.326500
C -25.870500 -5.725700 -35.159500
H -25.441900 -3.856800 -32.804000
H -25.357500 -2.894500 -34.097600
C -25.346800 -3.835900 -33.789300
C -24.410400 -5.664000 -35.017100
C -24.087300 -4.542500 -34.231700
H -23.620600 -7.232100 -36.061900
C -23.404000 -6.465500 -35.545100
C -22.769600 -4.192900 -33.994900
H -22.554300 -3.433800 -33.466400
C -22.074800 -6.129300 -35.305600
C -21.764700 -4.986400 -34.553800
H -21.376700 -6.674000 -35.650900
N -20.407200 -4.632500 -34.377900
H -20.320700 -5.512800 -39.073200
O -20.097400 -3.825700 -37.066900
N -20.070100 -3.542100 -33.656400
C -19.582800 -4.837300 -36.682400
H -19.447100 -7.702300 -39.201400
C -19.364600 -5.680600 -38.876800
C -19.295700 -5.112900 -35.206500
O -19.164600 -5.845900 -37.434600
H -19.092000 -6.077300 -35.037800
H -19.030600 -6.876700 -40.506500
C -18.912700 -6.952800 -39.537100
N -18.854200 -3.233300 -33.763100
H -18.834400 -4.914000 -39.211300
C -18.177700 -4.187000 -34.686200
H -17.966500 -7.108300 -39.332900
H -17.768800 -3.687900 -35.450400
F -17.589200 -5.549900 -32.849200
C -17.103700 -4.926300 -33.921900
F -16.517500 -5.850700 -34.693100
F -16.148800 -4.094000 -33.495700
