43
Fragment
H -31.232100 -8.171900 -26.965500
C -30.291100 -8.049200 -26.952100
H -30.289300 -6.370600 -28.106200
H -29.874600 -9.676800 -25.777000
C -29.727400 -6.974800 -27.636800
C -29.487100 -8.948200 -26.247300
C -28.349800 -6.777000 -27.640000
C -28.108900 -8.757400 -26.244700
H -27.965700 -6.045200 -28.107800
C -27.545700 -7.677100 -26.940800
H -27.117100 -9.546000 -24.585300
H -27.032600 -10.508300 -25.878900
C -27.022000 -9.566900 -25.570600
C -26.085600 -7.738700 -26.798500
C -25.762400 -8.860300 -26.013100
H -25.295800 -6.170600 -27.843200
C -25.079200 -6.937300 -27.326400
C -24.444800 -9.209800 -25.776200
H -24.229500 -9.969000 -25.247800
C -23.749900 -7.273400 -27.086900
C -23.439800 -8.416400 -26.335100
H -23.051800 -6.728700 -27.432300
N -22.082400 -8.770200 -26.159200
H -21.995800 -7.889900 -30.854500
O -21.772600 -9.577000 -28.848200
N -21.745300 -9.860700 -25.437800
C -21.258000 -8.565400 -28.463700
H -21.122200 -5.700500 -30.982700
C -21.039700 -7.722100 -30.658100
C -20.970900 -8.289900 -26.987800
O -20.839800 -7.556900 -29.215900
H -20.767200 -7.325400 -26.819200
H -20.705800 -6.526100 -32.287900
C -20.587800 -6.449900 -31.318400
N -20.529400 -10.169500 -25.544400
H -20.509500 -8.488800 -30.992600
C -19.852900 -9.215700 -26.467600
H -19.641700 -6.294500 -31.114200
H -19.444000 -9.714800 -27.231700
F -19.264300 -7.852800 -24.630500
C -18.778800 -8.476400 -25.703200
F -18.192600 -7.552000 -26.474500
F -17.824000 -9.308800 -25.277000
43
Fragment
F -16.378700 -6.774500 -24.035000
F -16.010100 -8.531300 -22.837500
C -15.423800 -7.606900 -23.608800
F -14.938300 -8.230500 -24.681500
H -14.758700 -6.368500 -22.080300
H -14.561000 -9.788800 -18.197800
C -14.349800 -6.867600 -22.844400
H -13.693100 -7.594500 -18.319400
N -13.673300 -5.913800 -23.767600
C -13.614800 -9.633400 -17.993600
H -13.496900 -9.557200 -17.024200
H -13.435500 -8.757900 -22.492900
O -13.362900 -8.526400 -20.096100
C -13.231800 -7.793400 -22.324200
C -13.163000 -8.361200 -18.653900
H -13.080400 -10.382800 -18.329300
C -12.944700 -7.517900 -20.848300
N -12.457400 -6.222600 -23.874200
O -12.430100 -6.506300 -20.463800
H -12.206800 -8.193400 -18.457500
N -12.120300 -7.313100 -23.152800
H -11.150900 -9.354600 -21.879700
C -10.762800 -7.666900 -22.976900
C -10.452700 -8.809900 -22.225100
H -9.973200 -6.114300 -24.064300
C -9.757900 -6.873500 -23.535800
C -9.123500 -9.146000 -21.985600
H -8.906900 -9.912700 -21.468800
C -8.440300 -7.223000 -23.298900
C -8.117100 -8.344600 -22.513600
C -7.180700 -6.516400 -23.741400
H -7.170100 -5.575000 -23.433100
H -7.085600 -6.537300 -24.726700
C -6.657000 -8.406200 -22.371200
H -6.237000 -10.038100 -21.204200
C -6.093800 -7.325900 -23.067300
C -5.852900 -9.306300 -21.672000
C -4.715600 -7.135100 -23.064700
C -4.475300 -9.108500 -21.675300
H -4.328100 -6.406500 -23.535000
H -3.913400 -9.712700 -21.205800
C -3.911600 -8.034100 -22.359900
H -2.970600 -7.911400 -22.346600
86
Fragment
H -31.232100 -8.171900 -26.965500
C -30.291100 -8.049200 -26.952100
H -30.289300 -6.370600 -28.106200
H -29.874600 -9.676800 -25.777000
C -29.727400 -6.974800 -27.636800
C -29.487100 -8.948200 -26.247300
C -28.349800 -6.777000 -27.640000
C -28.108900 -8.757400 -26.244700
H -27.965700 -6.045200 -28.107800
C -27.545700 -7.677100 -26.940800
H -27.117100 -9.546000 -24.585300
H -27.032600 -10.508300 -25.878900
C -27.022000 -9.566900 -25.570600
C -26.085600 -7.738700 -26.798500
C -25.762400 -8.860300 -26.013100
H -25.295800 -6.170600 -27.843200
C -25.079200 -6.937300 -27.326400
C -24.444800 -9.209800 -25.776200
H -24.229500 -9.969000 -25.247800
C -23.749900 -7.273400 -27.086900
C -23.439800 -8.416400 -26.335100
H -23.051800 -6.728700 -27.432300
N -22.082400 -8.770200 -26.159200
H -21.995800 -7.889900 -30.854500
O -21.772600 -9.577000 -28.848200
N -21.745300 -9.860700 -25.437800
C -21.258000 -8.565400 -28.463700
H -21.122200 -5.700500 -30.982700
C -21.039700 -7.722100 -30.658100
C -20.970900 -8.289900 -26.987800
O -20.839800 -7.556900 -29.215900
H -20.767200 -7.325400 -26.819200
H -20.705800 -6.526100 -32.287900
C -20.587800 -6.449900 -31.318400
N -20.529400 -10.169500 -25.544400
H -20.509500 -8.488800 -30.992600
C -19.852900 -9.215700 -26.467600
H -19.641700 -6.294500 -31.114200
H -19.444000 -9.714800 -27.231700
F -19.264300 -7.852800 -24.630500
C -18.778800 -8.476400 -25.703200
F -18.192600 -7.552000 -26.474500
F -17.824000 -9.308800 -25.277000
F -16.378700 -6.774500 -24.035000
F -16.010100 -8.531300 -22.837500
C -15.423800 -7.606900 -23.608800
F -14.938300 -8.230500 -24.681500
H -14.758700 -6.368500 -22.080300
H -14.561000 -9.788800 -18.197800
C -14.349800 -6.867600 -22.844400
H -13.693100 -7.594500 -18.319400
N -13.673300 -5.913800 -23.767600
C -13.614800 -9.633400 -17.993600
H -13.496900 -9.557200 -17.024200
H -13.435500 -8.757900 -22.492900
O -13.362900 -8.526400 -20.096100
C -13.231800 -7.793400 -22.324200
C -13.163000 -8.361200 -18.653900
H -13.080400 -10.382800 -18.329300
C -12.944700 -7.517900 -20.848300
N -12.457400 -6.222600 -23.874200
O -12.430100 -6.506300 -20.463800
H -12.206800 -8.193400 -18.457500
N -12.120300 -7.313100 -23.152800
H -11.150900 -9.354600 -21.879700
C -10.762800 -7.666900 -22.976900
C -10.452700 -8.809900 -22.225100
H -9.973200 -6.114300 -24.064300
C -9.757900 -6.873500 -23.535800
C -9.123500 -9.146000 -21.985600
H -8.906900 -9.912700 -21.468800
C -8.440300 -7.223000 -23.298900
C -8.117100 -8.344600 -22.513600
C -7.180700 -6.516400 -23.741400
H -7.170100 -5.575000 -23.433100
H -7.085600 -6.537300 -24.726700
C -6.657000 -8.406200 -22.371200
H -6.237000 -10.038100 -21.204200
C -6.093800 -7.325900 -23.067300
C -5.852900 -9.306300 -21.672000
C -4.715600 -7.135100 -23.064700
C -4.475300 -9.108500 -21.675300
H -4.328100 -6.406500 -23.535000
H -3.913400 -9.712700 -21.205800
C -3.911600 -8.034100 -22.359900
H -2.970600 -7.911400 -22.346600
