43
Fragment
H -31.232100 -8.171900 -26.965500
C -30.291100 -8.049200 -26.952100
H -30.289300 -6.370600 -28.106200
H -29.874600 -9.676800 -25.777000
C -29.727400 -6.974800 -27.636800
C -29.487100 -8.948200 -26.247300
C -28.349800 -6.777000 -27.640000
C -28.108900 -8.757400 -26.244700
H -27.965700 -6.045200 -28.107800
C -27.545700 -7.677100 -26.940800
H -27.117100 -9.546000 -24.585300
H -27.032600 -10.508300 -25.878900
C -27.022000 -9.566900 -25.570600
C -26.085600 -7.738700 -26.798500
C -25.762400 -8.860300 -26.013100
H -25.295800 -6.170600 -27.843200
C -25.079200 -6.937300 -27.326400
C -24.444800 -9.209800 -25.776200
H -24.229500 -9.969000 -25.247800
C -23.749900 -7.273400 -27.086900
C -23.439800 -8.416400 -26.335100
H -23.051800 -6.728700 -27.432300
N -22.082400 -8.770200 -26.159200
H -21.995800 -7.889900 -30.854500
O -21.772600 -9.577000 -28.848200
N -21.745300 -9.860700 -25.437800
C -21.258000 -8.565400 -28.463700
H -21.122200 -5.700500 -30.982700
C -21.039700 -7.722100 -30.658100
C -20.970900 -8.289900 -26.987800
O -20.839800 -7.556900 -29.215900
H -20.767200 -7.325400 -26.819200
H -20.705800 -6.526100 -32.287900
C -20.587800 -6.449900 -31.318400
N -20.529400 -10.169500 -25.544400
H -20.509500 -8.488800 -30.992600
C -19.852900 -9.215700 -26.467600
H -19.641700 -6.294500 -31.114200
H -19.444000 -9.714800 -27.231700
F -19.264300 -7.852800 -24.630500
C -18.778800 -8.476400 -25.703200
F -18.192600 -7.552000 -26.474500
F -17.824000 -9.308800 -25.277000
43
Fragment
H -31.232100 -13.533000 -26.965500
C -30.291100 -13.410300 -26.952100
H -30.289300 -11.731700 -28.106200
H -29.874600 -15.037900 -25.777000
C -29.727400 -12.335900 -27.636800
C -29.487100 -14.309300 -26.247300
C -28.349800 -12.138100 -27.640000
C -28.108900 -14.118500 -26.244700
H -27.965700 -11.406300 -28.107800
C -27.545700 -13.038200 -26.940800
H -27.117100 -14.907100 -24.585300
H -27.032600 -15.869400 -25.878900
C -27.022000 -14.928000 -25.570600
C -26.085600 -13.099800 -26.798500
C -25.762400 -14.221400 -26.013100
H -25.295800 -11.531700 -27.843200
C -25.079200 -12.298400 -27.326400
C -24.444800 -14.570900 -25.776200
H -24.229500 -15.330100 -25.247800
C -23.749900 -12.634500 -27.086900
C -23.439800 -13.777500 -26.335100
H -23.051800 -12.089800 -27.432300
N -22.082400 -14.131300 -26.159200
H -21.995800 -13.251000 -30.854500
O -21.772600 -14.938100 -28.848200
N -21.745300 -15.221800 -25.437800
C -21.258000 -13.926500 -28.463700
H -21.122200 -11.061600 -30.982700
C -21.039700 -13.083200 -30.658100
C -20.970900 -13.651000 -26.987800
O -20.839800 -12.918000 -29.215900
H -20.767200 -12.686500 -26.819200
H -20.705800 -11.887200 -32.287900
C -20.587800 -11.811000 -31.318400
N -20.529400 -15.530600 -25.544400
H -20.509500 -13.849900 -30.992600
C -19.852900 -14.576800 -26.467600
H -19.641700 -11.655600 -31.114200
H -19.444000 -15.075900 -27.231700
F -19.264300 -13.213900 -24.630500
C -18.778800 -13.837500 -25.703200
F -18.192600 -12.913100 -26.474500
F -17.824000 -14.669900 -25.277000
86
Fragment
H -31.232100 -8.171900 -26.965500
C -30.291100 -8.049200 -26.952100
H -30.289300 -6.370600 -28.106200
H -29.874600 -9.676800 -25.777000
C -29.727400 -6.974800 -27.636800
C -29.487100 -8.948200 -26.247300
C -28.349800 -6.777000 -27.640000
C -28.108900 -8.757400 -26.244700
H -27.965700 -6.045200 -28.107800
C -27.545700 -7.677100 -26.940800
H -27.117100 -9.546000 -24.585300
H -27.032600 -10.508300 -25.878900
C -27.022000 -9.566900 -25.570600
C -26.085600 -7.738700 -26.798500
C -25.762400 -8.860300 -26.013100
H -25.295800 -6.170600 -27.843200
C -25.079200 -6.937300 -27.326400
C -24.444800 -9.209800 -25.776200
H -24.229500 -9.969000 -25.247800
C -23.749900 -7.273400 -27.086900
C -23.439800 -8.416400 -26.335100
H -23.051800 -6.728700 -27.432300
N -22.082400 -8.770200 -26.159200
H -21.995800 -7.889900 -30.854500
O -21.772600 -9.577000 -28.848200
N -21.745300 -9.860700 -25.437800
C -21.258000 -8.565400 -28.463700
H -21.122200 -5.700500 -30.982700
C -21.039700 -7.722100 -30.658100
C -20.970900 -8.289900 -26.987800
O -20.839800 -7.556900 -29.215900
H -20.767200 -7.325400 -26.819200
H -20.705800 -6.526100 -32.287900
C -20.587800 -6.449900 -31.318400
N -20.529400 -10.169500 -25.544400
H -20.509500 -8.488800 -30.992600
C -19.852900 -9.215700 -26.467600
H -19.641700 -6.294500 -31.114200
H -19.444000 -9.714800 -27.231700
F -19.264300 -7.852800 -24.630500
C -18.778800 -8.476400 -25.703200
F -18.192600 -7.552000 -26.474500
F -17.824000 -9.308800 -25.277000
H -31.232100 -13.533000 -26.965500
C -30.291100 -13.410300 -26.952100
H -30.289300 -11.731700 -28.106200
H -29.874600 -15.037900 -25.777000
C -29.727400 -12.335900 -27.636800
C -29.487100 -14.309300 -26.247300
C -28.349800 -12.138100 -27.640000
C -28.108900 -14.118500 -26.244700
H -27.965700 -11.406300 -28.107800
C -27.545700 -13.038200 -26.940800
H -27.117100 -14.907100 -24.585300
H -27.032600 -15.869400 -25.878900
C -27.022000 -14.928000 -25.570600
C -26.085600 -13.099800 -26.798500
C -25.762400 -14.221400 -26.013100
H -25.295800 -11.531700 -27.843200
C -25.079200 -12.298400 -27.326400
C -24.444800 -14.570900 -25.776200
H -24.229500 -15.330100 -25.247800
C -23.749900 -12.634500 -27.086900
C -23.439800 -13.777500 -26.335100
H -23.051800 -12.089800 -27.432300
N -22.082400 -14.131300 -26.159200
H -21.995800 -13.251000 -30.854500
O -21.772600 -14.938100 -28.848200
N -21.745300 -15.221800 -25.437800
C -21.258000 -13.926500 -28.463700
H -21.122200 -11.061600 -30.982700
C -21.039700 -13.083200 -30.658100
C -20.970900 -13.651000 -26.987800
O -20.839800 -12.918000 -29.215900
H -20.767200 -12.686500 -26.819200
H -20.705800 -11.887200 -32.287900
C -20.587800 -11.811000 -31.318400
N -20.529400 -15.530600 -25.544400
H -20.509500 -13.849900 -30.992600
C -19.852900 -14.576800 -26.467600
H -19.641700 -11.655600 -31.114200
H -19.444000 -15.075900 -27.231700
F -19.264300 -13.213900 -24.630500
C -18.778800 -13.837500 -25.703200
F -18.192600 -12.913100 -26.474500
F -17.824000 -14.669900 -25.277000
