43
Fragment
H -31.232100 -8.171900 -26.965500
C -30.291100 -8.049200 -26.952100
H -30.289300 -6.370600 -28.106200
H -29.874600 -9.676800 -25.777000
C -29.727400 -6.974800 -27.636800
C -29.487100 -8.948200 -26.247300
C -28.349800 -6.777000 -27.640000
C -28.108900 -8.757400 -26.244700
H -27.965700 -6.045200 -28.107800
C -27.545700 -7.677100 -26.940800
H -27.117100 -9.546000 -24.585300
H -27.032600 -10.508300 -25.878900
C -27.022000 -9.566900 -25.570600
C -26.085600 -7.738700 -26.798500
C -25.762400 -8.860300 -26.013100
H -25.295800 -6.170600 -27.843200
C -25.079200 -6.937300 -27.326400
C -24.444800 -9.209800 -25.776200
H -24.229500 -9.969000 -25.247800
C -23.749900 -7.273400 -27.086900
C -23.439800 -8.416400 -26.335100
H -23.051800 -6.728700 -27.432300
N -22.082400 -8.770200 -26.159200
H -21.995800 -7.889900 -30.854500
O -21.772600 -9.577000 -28.848200
N -21.745300 -9.860700 -25.437800
C -21.258000 -8.565400 -28.463700
H -21.122200 -5.700500 -30.982700
C -21.039700 -7.722100 -30.658100
C -20.970900 -8.289900 -26.987800
O -20.839800 -7.556900 -29.215900
H -20.767200 -7.325400 -26.819200
H -20.705800 -6.526100 -32.287900
C -20.587800 -6.449900 -31.318400
N -20.529400 -10.169500 -25.544400
H -20.509500 -8.488800 -30.992600
C -19.852900 -9.215700 -26.467600
H -19.641700 -6.294500 -31.114200
H -19.444000 -9.714800 -27.231700
F -19.264300 -7.852800 -24.630500
C -18.778800 -8.476400 -25.703200
F -18.192600 -7.552000 -26.474500
F -17.824000 -9.308800 -25.277000
43
Fragment
F -38.505500 -12.135600 -24.035000
F -38.136900 -13.892400 -22.837500
C -37.550600 -12.968000 -23.608800
F -37.065100 -13.591600 -24.681500
H -36.885500 -11.729600 -22.080300
H -36.687800 -15.149900 -18.197800
C -36.476600 -12.228700 -22.844400
H -35.819900 -12.955600 -18.319400
N -35.800100 -11.274900 -23.767600
C -35.741600 -14.994500 -17.993600
H -35.623700 -14.918300 -17.024200
H -35.562300 -14.119000 -22.492900
O -35.489700 -13.887500 -20.096100
C -35.358600 -13.154500 -22.324200
C -35.289800 -13.722300 -18.653900
H -35.207200 -15.743900 -18.329300
C -35.071500 -12.879000 -20.848300
N -34.584200 -11.583700 -23.874200
O -34.556900 -11.867400 -20.463800
H -34.333600 -13.554500 -18.457500
N -34.247100 -12.674200 -23.152800
H -33.277700 -14.715700 -21.879700
C -32.889600 -13.028000 -22.976900
C -32.579500 -14.171000 -22.225100
H -32.100000 -11.475400 -24.064300
C -31.884700 -12.234600 -23.535800
C -31.250300 -14.507100 -21.985600
H -31.033700 -15.273800 -21.468800
C -30.567100 -12.584100 -23.298900
C -30.243900 -13.705700 -22.513600
C -29.307500 -11.877500 -23.741400
H -29.296900 -10.936100 -23.433100
H -29.212400 -11.898400 -24.726700
C -28.783800 -13.767300 -22.371200
H -28.363800 -15.399200 -21.204200
C -28.220600 -12.687000 -23.067300
C -27.979700 -14.667400 -21.672000
C -26.842400 -12.496200 -23.064700
C -26.602100 -14.469600 -21.675300
H -26.454900 -11.767600 -23.535000
H -26.040200 -15.073800 -21.205800
C -26.038400 -13.395200 -22.359900
H -25.097400 -13.272500 -22.346600
86
Fragment
H -31.232100 -8.171900 -26.965500
C -30.291100 -8.049200 -26.952100
H -30.289300 -6.370600 -28.106200
H -29.874600 -9.676800 -25.777000
C -29.727400 -6.974800 -27.636800
C -29.487100 -8.948200 -26.247300
C -28.349800 -6.777000 -27.640000
C -28.108900 -8.757400 -26.244700
H -27.965700 -6.045200 -28.107800
C -27.545700 -7.677100 -26.940800
H -27.117100 -9.546000 -24.585300
H -27.032600 -10.508300 -25.878900
C -27.022000 -9.566900 -25.570600
C -26.085600 -7.738700 -26.798500
C -25.762400 -8.860300 -26.013100
H -25.295800 -6.170600 -27.843200
C -25.079200 -6.937300 -27.326400
C -24.444800 -9.209800 -25.776200
H -24.229500 -9.969000 -25.247800
C -23.749900 -7.273400 -27.086900
C -23.439800 -8.416400 -26.335100
H -23.051800 -6.728700 -27.432300
N -22.082400 -8.770200 -26.159200
H -21.995800 -7.889900 -30.854500
O -21.772600 -9.577000 -28.848200
N -21.745300 -9.860700 -25.437800
C -21.258000 -8.565400 -28.463700
H -21.122200 -5.700500 -30.982700
C -21.039700 -7.722100 -30.658100
C -20.970900 -8.289900 -26.987800
O -20.839800 -7.556900 -29.215900
H -20.767200 -7.325400 -26.819200
H -20.705800 -6.526100 -32.287900
C -20.587800 -6.449900 -31.318400
N -20.529400 -10.169500 -25.544400
H -20.509500 -8.488800 -30.992600
C -19.852900 -9.215700 -26.467600
H -19.641700 -6.294500 -31.114200
H -19.444000 -9.714800 -27.231700
F -19.264300 -7.852800 -24.630500
C -18.778800 -8.476400 -25.703200
F -18.192600 -7.552000 -26.474500
F -17.824000 -9.308800 -25.277000
F -38.505500 -12.135600 -24.035000
F -38.136900 -13.892400 -22.837500
C -37.550600 -12.968000 -23.608800
F -37.065100 -13.591600 -24.681500
H -36.885500 -11.729600 -22.080300
H -36.687800 -15.149900 -18.197800
C -36.476600 -12.228700 -22.844400
H -35.819900 -12.955600 -18.319400
N -35.800100 -11.274900 -23.767600
C -35.741600 -14.994500 -17.993600
H -35.623700 -14.918300 -17.024200
H -35.562300 -14.119000 -22.492900
O -35.489700 -13.887500 -20.096100
C -35.358600 -13.154500 -22.324200
C -35.289800 -13.722300 -18.653900
H -35.207200 -15.743900 -18.329300
C -35.071500 -12.879000 -20.848300
N -34.584200 -11.583700 -23.874200
O -34.556900 -11.867400 -20.463800
H -34.333600 -13.554500 -18.457500
N -34.247100 -12.674200 -23.152800
H -33.277700 -14.715700 -21.879700
C -32.889600 -13.028000 -22.976900
C -32.579500 -14.171000 -22.225100
H -32.100000 -11.475400 -24.064300
C -31.884700 -12.234600 -23.535800
C -31.250300 -14.507100 -21.985600
H -31.033700 -15.273800 -21.468800
C -30.567100 -12.584100 -23.298900
C -30.243900 -13.705700 -22.513600
C -29.307500 -11.877500 -23.741400
H -29.296900 -10.936100 -23.433100
H -29.212400 -11.898400 -24.726700
C -28.783800 -13.767300 -22.371200
H -28.363800 -15.399200 -21.204200
C -28.220600 -12.687000 -23.067300
C -27.979700 -14.667400 -21.672000
C -26.842400 -12.496200 -23.064700
C -26.602100 -14.469600 -21.675300
H -26.454900 -11.767600 -23.535000
H -26.040200 -15.073800 -21.205800
C -26.038400 -13.395200 -22.359900
H -25.097400 -13.272500 -22.346600
