43
Fragment
H -31.232100 -8.171900 -26.965500
C -30.291100 -8.049200 -26.952100
H -30.289300 -6.370600 -28.106200
H -29.874600 -9.676800 -25.777000
C -29.727400 -6.974800 -27.636800
C -29.487100 -8.948200 -26.247300
C -28.349800 -6.777000 -27.640000
C -28.108900 -8.757400 -26.244700
H -27.965700 -6.045200 -28.107800
C -27.545700 -7.677100 -26.940800
H -27.117100 -9.546000 -24.585300
H -27.032600 -10.508300 -25.878900
C -27.022000 -9.566900 -25.570600
C -26.085600 -7.738700 -26.798500
C -25.762400 -8.860300 -26.013100
H -25.295800 -6.170600 -27.843200
C -25.079200 -6.937300 -27.326400
C -24.444800 -9.209800 -25.776200
H -24.229500 -9.969000 -25.247800
C -23.749900 -7.273400 -27.086900
C -23.439800 -8.416400 -26.335100
H -23.051800 -6.728700 -27.432300
N -22.082400 -8.770200 -26.159200
H -21.995800 -7.889900 -30.854500
O -21.772600 -9.577000 -28.848200
N -21.745300 -9.860700 -25.437800
C -21.258000 -8.565400 -28.463700
H -21.122200 -5.700500 -30.982700
C -21.039700 -7.722100 -30.658100
C -20.970900 -8.289900 -26.987800
O -20.839800 -7.556900 -29.215900
H -20.767200 -7.325400 -26.819200
H -20.705800 -6.526100 -32.287900
C -20.587800 -6.449900 -31.318400
N -20.529400 -10.169500 -25.544400
H -20.509500 -8.488800 -30.992600
C -19.852900 -9.215700 -26.467600
H -19.641700 -6.294500 -31.114200
H -19.444000 -9.714800 -27.231700
F -19.264300 -7.852800 -24.630500
C -18.778800 -8.476400 -25.703200
F -18.192600 -7.552000 -26.474500
F -17.824000 -9.308800 -25.277000
43
Fragment
F -36.830300 -11.989300 -32.253700
F -36.461700 -10.232600 -31.056200
C -35.875500 -11.157000 -31.827500
F -35.390000 -10.533400 -32.900200
H -35.210300 -12.395400 -30.298900
H -35.012600 -8.975000 -26.416400
C -34.801500 -11.896300 -31.063100
H -34.144800 -11.169300 -26.538100
N -34.125000 -12.850000 -31.986200
C -34.066500 -9.130500 -26.212300
H -33.948600 -9.206600 -25.242800
H -33.887100 -10.006000 -30.711500
O -33.814500 -10.237400 -28.314800
C -33.683400 -10.970400 -30.542900
C -33.614600 -10.402700 -26.872600
H -33.532100 -8.381000 -26.547900
C -33.396400 -11.246000 -29.067000
N -32.909000 -12.541200 -32.092900
O -32.881700 -12.257600 -28.682500
H -32.658500 -10.570500 -26.676200
N -32.571900 -11.450800 -31.371500
H -31.602500 -9.409300 -30.098400
C -31.214500 -11.096900 -31.195600
C -30.904400 -9.954000 -30.443800
H -30.424900 -12.649500 -32.282900
C -30.209500 -11.890400 -31.754500
C -29.575100 -9.617800 -30.204300
H -29.358500 -8.851200 -29.687500
C -28.891900 -11.540800 -31.517600
C -28.568700 -10.419300 -30.732200
C -27.632300 -12.247400 -31.960100
H -27.621700 -13.188800 -31.651700
H -27.537300 -12.226500 -32.945400
C -27.108600 -10.357600 -30.589900
H -26.688700 -8.725700 -29.422800
C -26.545400 -11.437900 -31.286000
C -26.304600 -9.457500 -29.890600
C -25.167200 -11.628800 -31.283400
C -24.926900 -9.655300 -29.893900
H -24.779800 -12.357300 -31.753700
H -24.365000 -9.051100 -29.424500
C -24.363200 -10.729700 -30.578500
H -23.422200 -10.852500 -30.565200
86
Fragment
H -31.232100 -8.171900 -26.965500
C -30.291100 -8.049200 -26.952100
H -30.289300 -6.370600 -28.106200
H -29.874600 -9.676800 -25.777000
C -29.727400 -6.974800 -27.636800
C -29.487100 -8.948200 -26.247300
C -28.349800 -6.777000 -27.640000
C -28.108900 -8.757400 -26.244700
H -27.965700 -6.045200 -28.107800
C -27.545700 -7.677100 -26.940800
H -27.117100 -9.546000 -24.585300
H -27.032600 -10.508300 -25.878900
C -27.022000 -9.566900 -25.570600
C -26.085600 -7.738700 -26.798500
C -25.762400 -8.860300 -26.013100
H -25.295800 -6.170600 -27.843200
C -25.079200 -6.937300 -27.326400
C -24.444800 -9.209800 -25.776200
H -24.229500 -9.969000 -25.247800
C -23.749900 -7.273400 -27.086900
C -23.439800 -8.416400 -26.335100
H -23.051800 -6.728700 -27.432300
N -22.082400 -8.770200 -26.159200
H -21.995800 -7.889900 -30.854500
O -21.772600 -9.577000 -28.848200
N -21.745300 -9.860700 -25.437800
C -21.258000 -8.565400 -28.463700
H -21.122200 -5.700500 -30.982700
C -21.039700 -7.722100 -30.658100
C -20.970900 -8.289900 -26.987800
O -20.839800 -7.556900 -29.215900
H -20.767200 -7.325400 -26.819200
H -20.705800 -6.526100 -32.287900
C -20.587800 -6.449900 -31.318400
N -20.529400 -10.169500 -25.544400
H -20.509500 -8.488800 -30.992600
C -19.852900 -9.215700 -26.467600
H -19.641700 -6.294500 -31.114200
H -19.444000 -9.714800 -27.231700
F -19.264300 -7.852800 -24.630500
C -18.778800 -8.476400 -25.703200
F -18.192600 -7.552000 -26.474500
F -17.824000 -9.308800 -25.277000
F -36.830300 -11.989300 -32.253700
F -36.461700 -10.232600 -31.056200
C -35.875500 -11.157000 -31.827500
F -35.390000 -10.533400 -32.900200
H -35.210300 -12.395400 -30.298900
H -35.012600 -8.975000 -26.416400
C -34.801500 -11.896300 -31.063100
H -34.144800 -11.169300 -26.538100
N -34.125000 -12.850000 -31.986200
C -34.066500 -9.130500 -26.212300
H -33.948600 -9.206600 -25.242800
H -33.887100 -10.006000 -30.711500
O -33.814500 -10.237400 -28.314800
C -33.683400 -10.970400 -30.542900
C -33.614600 -10.402700 -26.872600
H -33.532100 -8.381000 -26.547900
C -33.396400 -11.246000 -29.067000
N -32.909000 -12.541200 -32.092900
O -32.881700 -12.257600 -28.682500
H -32.658500 -10.570500 -26.676200
N -32.571900 -11.450800 -31.371500
H -31.602500 -9.409300 -30.098400
C -31.214500 -11.096900 -31.195600
C -30.904400 -9.954000 -30.443800
H -30.424900 -12.649500 -32.282900
C -30.209500 -11.890400 -31.754500
C -29.575100 -9.617800 -30.204300
H -29.358500 -8.851200 -29.687500
C -28.891900 -11.540800 -31.517600
C -28.568700 -10.419300 -30.732200
C -27.632300 -12.247400 -31.960100
H -27.621700 -13.188800 -31.651700
H -27.537300 -12.226500 -32.945400
C -27.108600 -10.357600 -30.589900
H -26.688700 -8.725700 -29.422800
C -26.545400 -11.437900 -31.286000
C -26.304600 -9.457500 -29.890600
C -25.167200 -11.628800 -31.283400
C -24.926900 -9.655300 -29.893900
H -24.779800 -12.357300 -31.753700
H -24.365000 -9.051100 -29.424500
C -24.363200 -10.729700 -30.578500
H -23.422200 -10.852500 -30.565200
