34
Fragment
H -14.794400 -21.570900 -14.090500
H -14.408800 -22.778400 -15.104000
N -14.270800 -22.248500 -14.281000
N -13.748100 -20.779400 -11.633600
C -13.365400 -22.622000 -13.364200
H -13.261400 -19.894400 -9.876300
C -13.158900 -21.918900 -12.161000
C -13.112100 -20.599100 -10.499700
N -12.611000 -23.705500 -13.611900
C -12.179300 -22.400100 -11.318900
N -12.163600 -21.545300 -10.242100
H -11.729400 -21.149400 -8.352200
C -11.707000 -24.087100 -12.681400
N -11.414600 -23.484400 -11.514000
C -11.254900 -21.592000 -9.091400
H -11.223600 -25.665600 -13.640900
H -11.163400 -22.514800 -8.855100
N -10.958600 -25.192700 -12.992400
H -10.773400 -19.509300 -4.465700
H -10.585600 -25.659300 -12.269200
H -10.553700 -21.474600 -6.081200
C -10.190100 -19.547200 -5.222400
C -10.142500 -20.585800 -6.095700
H -10.066100 -19.967100 -9.579100
C -9.924200 -20.938600 -9.393900
H -9.536600 -21.395600 -10.165900
C -9.294200 -18.573200 -5.672000
N -9.238900 -20.265900 -7.083300
H -9.122900 -17.695500 -5.265800
C -8.919400 -21.077600 -8.260000
H -8.847600 -22.017600 -7.994000
C -8.722100 -19.034300 -6.826500
H -8.103900 -18.617400 -7.460600
H -8.049300 -20.776800 -8.557900
34
Fragment
H -18.725100 -18.898400 -1.600300
H -18.400700 -19.447700 -2.972000
N -18.183000 -18.891400 -2.248800
H -17.817400 -14.696300 -0.137200
N -17.721300 -16.716800 -1.629300
C -17.599700 -17.690500 -2.559800
N -17.289400 -14.550900 -0.960200
C -17.160200 -15.521700 -1.877000
H -16.964300 -13.758600 -1.150700
N -16.931600 -17.642300 -3.727200
C -16.448000 -15.349000 -3.080200
C -16.374900 -16.437900 -3.922300
H -15.966400 -17.375100 -6.386100
N -15.755800 -14.269000 -3.607600
N -15.626800 -16.024200 -4.999100
C -15.281700 -14.729600 -4.741500
C -15.212900 -16.834400 -6.149800
H -15.066900 -16.202200 -6.889000
H -14.760600 -17.383000 -9.160000
H -14.746000 -14.248000 -5.364900
H -14.377900 -19.132000 -7.247200
H -14.183700 -18.224300 -5.075300
C -13.981800 -17.660200 -5.847300
C -13.785400 -17.294700 -9.145500
C -13.599600 -18.599900 -6.981200
H -13.211300 -17.051500 -5.662100
H -13.168500 -16.210100 -10.775500
N -13.056400 -17.917300 -8.157900
C -12.909600 -16.734200 -10.018800
H -12.904200 -19.203000 -6.683300
C -11.731500 -17.749000 -8.414700
C -11.618200 -17.023100 -9.569200
H -11.061400 -18.076000 -7.780600
H -10.772500 -16.732600 -9.975400
68
Fragment
H -14.794400 -21.570900 -14.090500
H -14.408800 -22.778400 -15.104000
N -14.270800 -22.248500 -14.281000
N -13.748100 -20.779400 -11.633600
C -13.365400 -22.622000 -13.364200
H -13.261400 -19.894400 -9.876300
C -13.158900 -21.918900 -12.161000
C -13.112100 -20.599100 -10.499700
N -12.611000 -23.705500 -13.611900
C -12.179300 -22.400100 -11.318900
N -12.163600 -21.545300 -10.242100
H -11.729400 -21.149400 -8.352200
C -11.707000 -24.087100 -12.681400
N -11.414600 -23.484400 -11.514000
C -11.254900 -21.592000 -9.091400
H -11.223600 -25.665600 -13.640900
H -11.163400 -22.514800 -8.855100
N -10.958600 -25.192700 -12.992400
H -10.773400 -19.509300 -4.465700
H -10.585600 -25.659300 -12.269200
H -10.553700 -21.474600 -6.081200
C -10.190100 -19.547200 -5.222400
C -10.142500 -20.585800 -6.095700
H -10.066100 -19.967100 -9.579100
C -9.924200 -20.938600 -9.393900
H -9.536600 -21.395600 -10.165900
C -9.294200 -18.573200 -5.672000
N -9.238900 -20.265900 -7.083300
H -9.122900 -17.695500 -5.265800
C -8.919400 -21.077600 -8.260000
H -8.847600 -22.017600 -7.994000
C -8.722100 -19.034300 -6.826500
H -8.103900 -18.617400 -7.460600
H -8.049300 -20.776800 -8.557900
H -18.725100 -18.898400 -1.600300
H -18.400700 -19.447700 -2.972000
N -18.183000 -18.891400 -2.248800
H -17.817400 -14.696300 -0.137200
N -17.721300 -16.716800 -1.629300
C -17.599700 -17.690500 -2.559800
N -17.289400 -14.550900 -0.960200
C -17.160200 -15.521700 -1.877000
H -16.964300 -13.758600 -1.150700
N -16.931600 -17.642300 -3.727200
C -16.448000 -15.349000 -3.080200
C -16.374900 -16.437900 -3.922300
H -15.966400 -17.375100 -6.386100
N -15.755800 -14.269000 -3.607600
N -15.626800 -16.024200 -4.999100
C -15.281700 -14.729600 -4.741500
C -15.212900 -16.834400 -6.149800
H -15.066900 -16.202200 -6.889000
H -14.760600 -17.383000 -9.160000
H -14.746000 -14.248000 -5.364900
H -14.377900 -19.132000 -7.247200
H -14.183700 -18.224300 -5.075300
C -13.981800 -17.660200 -5.847300
C -13.785400 -17.294700 -9.145500
C -13.599600 -18.599900 -6.981200
H -13.211300 -17.051500 -5.662100
H -13.168500 -16.210100 -10.775500
N -13.056400 -17.917300 -8.157900
C -12.909600 -16.734200 -10.018800
H -12.904200 -19.203000 -6.683300
C -11.731500 -17.749000 -8.414700
C -11.618200 -17.023100 -9.569200
H -11.061400 -18.076000 -7.780600
H -10.772500 -16.732600 -9.975400
