34
Fragment
H -14.794400 -21.570900 -14.090500
H -14.408800 -22.778400 -15.104000
N -14.270800 -22.248500 -14.281000
N -13.748100 -20.779400 -11.633600
C -13.365400 -22.622000 -13.364200
H -13.261400 -19.894400 -9.876300
C -13.158900 -21.918900 -12.161000
C -13.112100 -20.599100 -10.499700
N -12.611000 -23.705500 -13.611900
C -12.179300 -22.400100 -11.318900
N -12.163600 -21.545300 -10.242100
H -11.729400 -21.149400 -8.352200
C -11.707000 -24.087100 -12.681400
N -11.414600 -23.484400 -11.514000
C -11.254900 -21.592000 -9.091400
H -11.223600 -25.665600 -13.640900
H -11.163400 -22.514800 -8.855100
N -10.958600 -25.192700 -12.992400
H -10.773400 -19.509300 -4.465700
H -10.585600 -25.659300 -12.269200
H -10.553700 -21.474600 -6.081200
C -10.190100 -19.547200 -5.222400
C -10.142500 -20.585800 -6.095700
H -10.066100 -19.967100 -9.579100
C -9.924200 -20.938600 -9.393900
H -9.536600 -21.395600 -10.165900
C -9.294200 -18.573200 -5.672000
N -9.238900 -20.265900 -7.083300
H -9.122900 -17.695500 -5.265800
C -8.919400 -21.077600 -8.260000
H -8.847600 -22.017600 -7.994000
C -8.722100 -19.034300 -6.826500
H -8.103900 -18.617400 -7.460600
H -8.049300 -20.776800 -8.557900
34
Fragment
H -16.568800 -30.623800 -5.265800
H -16.279900 -29.280500 -7.460600
C -15.723000 -30.333400 -5.672000
C -15.609800 -29.607400 -6.826500
H -14.437100 -28.153400 -8.557900
C -14.431600 -30.622200 -5.222400
N -14.284800 -29.439100 -7.083300
H -14.172800 -31.146300 -4.465700
H -14.130000 -30.305000 -9.579100
C -13.741600 -28.756600 -8.260000
C -13.555900 -30.061700 -6.095700
C -13.359500 -29.696300 -9.393900
H -13.157500 -29.132100 -10.165900
H -12.963400 -28.224400 -7.994000
H -12.595200 -33.108500 -9.876300
H -12.580600 -29.973500 -6.081200
H -12.274400 -31.154200 -8.352200
C -12.128300 -30.522000 -9.091400
C -12.059600 -32.626800 -10.499700
N -11.714400 -31.332300 -10.242100
N -11.585500 -33.087500 -11.633600
H -11.374900 -29.981400 -8.855100
C -10.966300 -30.918500 -11.318900
C -10.893200 -32.007400 -12.161000
N -10.409600 -29.714100 -11.514000
H -10.376900 -33.597800 -14.090500
C -10.181100 -31.834700 -13.364200
N -10.051800 -32.805500 -14.281000
C -9.741500 -29.666000 -12.681400
N -9.619900 -30.639600 -13.611900
H -9.523900 -32.660200 -15.104000
N -9.158200 -28.465000 -12.992400
H -8.940600 -27.908700 -12.269200
H -8.616100 -28.458100 -13.640900
68
Fragment
H -14.794400 -21.570900 -14.090500
H -14.408800 -22.778400 -15.104000
N -14.270800 -22.248500 -14.281000
N -13.748100 -20.779400 -11.633600
C -13.365400 -22.622000 -13.364200
H -13.261400 -19.894400 -9.876300
C -13.158900 -21.918900 -12.161000
C -13.112100 -20.599100 -10.499700
N -12.611000 -23.705500 -13.611900
C -12.179300 -22.400100 -11.318900
N -12.163600 -21.545300 -10.242100
H -11.729400 -21.149400 -8.352200
C -11.707000 -24.087100 -12.681400
N -11.414600 -23.484400 -11.514000
C -11.254900 -21.592000 -9.091400
H -11.223600 -25.665600 -13.640900
H -11.163400 -22.514800 -8.855100
N -10.958600 -25.192700 -12.992400
H -10.773400 -19.509300 -4.465700
H -10.585600 -25.659300 -12.269200
H -10.553700 -21.474600 -6.081200
C -10.190100 -19.547200 -5.222400
C -10.142500 -20.585800 -6.095700
H -10.066100 -19.967100 -9.579100
C -9.924200 -20.938600 -9.393900
H -9.536600 -21.395600 -10.165900
C -9.294200 -18.573200 -5.672000
N -9.238900 -20.265900 -7.083300
H -9.122900 -17.695500 -5.265800
C -8.919400 -21.077600 -8.260000
H -8.847600 -22.017600 -7.994000
C -8.722100 -19.034300 -6.826500
H -8.103900 -18.617400 -7.460600
H -8.049300 -20.776800 -8.557900
H -16.568800 -30.623800 -5.265800
H -16.279900 -29.280500 -7.460600
C -15.723000 -30.333400 -5.672000
C -15.609800 -29.607400 -6.826500
H -14.437100 -28.153400 -8.557900
C -14.431600 -30.622200 -5.222400
N -14.284800 -29.439100 -7.083300
H -14.172800 -31.146300 -4.465700
H -14.130000 -30.305000 -9.579100
C -13.741600 -28.756600 -8.260000
C -13.555900 -30.061700 -6.095700
C -13.359500 -29.696300 -9.393900
H -13.157500 -29.132100 -10.165900
H -12.963400 -28.224400 -7.994000
H -12.595200 -33.108500 -9.876300
H -12.580600 -29.973500 -6.081200
H -12.274400 -31.154200 -8.352200
C -12.128300 -30.522000 -9.091400
C -12.059600 -32.626800 -10.499700
N -11.714400 -31.332300 -10.242100
N -11.585500 -33.087500 -11.633600
H -11.374900 -29.981400 -8.855100
C -10.966300 -30.918500 -11.318900
C -10.893200 -32.007400 -12.161000
N -10.409600 -29.714100 -11.514000
H -10.376900 -33.597800 -14.090500
C -10.181100 -31.834700 -13.364200
N -10.051800 -32.805500 -14.281000
C -9.741500 -29.666000 -12.681400
N -9.619900 -30.639600 -13.611900
H -9.523900 -32.660200 -15.104000
N -9.158200 -28.465000 -12.992400
H -8.940600 -27.908700 -12.269200
H -8.616100 -28.458100 -13.640900
