34
Fragment
H -14.794400 -21.570900 -14.090500
H -14.408800 -22.778400 -15.104000
N -14.270800 -22.248500 -14.281000
N -13.748100 -20.779400 -11.633600
C -13.365400 -22.622000 -13.364200
H -13.261400 -19.894400 -9.876300
C -13.158900 -21.918900 -12.161000
C -13.112100 -20.599100 -10.499700
N -12.611000 -23.705500 -13.611900
C -12.179300 -22.400100 -11.318900
N -12.163600 -21.545300 -10.242100
H -11.729400 -21.149400 -8.352200
C -11.707000 -24.087100 -12.681400
N -11.414600 -23.484400 -11.514000
C -11.254900 -21.592000 -9.091400
H -11.223600 -25.665600 -13.640900
H -11.163400 -22.514800 -8.855100
N -10.958600 -25.192700 -12.992400
H -10.773400 -19.509300 -4.465700
H -10.585600 -25.659300 -12.269200
H -10.553700 -21.474600 -6.081200
C -10.190100 -19.547200 -5.222400
C -10.142500 -20.585800 -6.095700
H -10.066100 -19.967100 -9.579100
C -9.924200 -20.938600 -9.393900
H -9.536600 -21.395600 -10.165900
C -9.294200 -18.573200 -5.672000
N -9.238900 -20.265900 -7.083300
H -9.122900 -17.695500 -5.265800
C -8.919400 -21.077600 -8.260000
H -8.847600 -22.017600 -7.994000
C -8.722100 -19.034300 -6.826500
H -8.103900 -18.617400 -7.460600
H -8.049300 -20.776800 -8.557900
34
Fragment
H -19.292000 -26.579600 -21.924500
H -19.237300 -28.739000 -23.021800
C -18.619100 -28.322100 -23.655900
H -18.493600 -25.338800 -22.488400
C -18.421900 -26.278900 -22.222400
H -18.218400 -29.660900 -25.216600
N -18.102400 -27.090600 -23.399100
C -18.047000 -28.783200 -24.810400
H -17.804600 -25.960800 -20.316500
C -17.417000 -26.417800 -21.088500
H -17.275100 -27.389400 -20.903300
C -17.198700 -26.770600 -24.386700
C -17.151200 -27.809300 -25.260000
H -16.787500 -25.881900 -24.401200
H -16.755600 -21.697100 -18.213200
H -16.567900 -27.847200 -26.016700
N -16.382700 -22.163800 -17.490000
H -16.177800 -24.841600 -21.627300
H -16.117700 -21.690800 -16.841500
C -16.086300 -25.764400 -21.391000
N -15.926600 -23.872100 -18.968400
C -15.634300 -23.269400 -17.801000
H -15.611900 -26.207100 -22.130200
N -15.177700 -25.811200 -20.240300
C -15.161900 -24.956400 -19.163500
N -14.730300 -23.650900 -16.870500
C -14.229100 -26.757300 -19.982700
C -14.182400 -25.437500 -18.321400
H -14.079800 -27.462000 -20.606100
C -13.975800 -24.734400 -17.118200
N -13.593200 -26.577100 -18.848800
N -13.070500 -25.107900 -16.201400
H -12.932400 -24.578000 -15.378400
H -12.546900 -25.785600 -16.391900
68
Fragment
H -14.794400 -21.570900 -14.090500
H -14.408800 -22.778400 -15.104000
N -14.270800 -22.248500 -14.281000
N -13.748100 -20.779400 -11.633600
C -13.365400 -22.622000 -13.364200
H -13.261400 -19.894400 -9.876300
C -13.158900 -21.918900 -12.161000
C -13.112100 -20.599100 -10.499700
N -12.611000 -23.705500 -13.611900
C -12.179300 -22.400100 -11.318900
N -12.163600 -21.545300 -10.242100
H -11.729400 -21.149400 -8.352200
C -11.707000 -24.087100 -12.681400
N -11.414600 -23.484400 -11.514000
C -11.254900 -21.592000 -9.091400
H -11.223600 -25.665600 -13.640900
H -11.163400 -22.514800 -8.855100
N -10.958600 -25.192700 -12.992400
H -10.773400 -19.509300 -4.465700
H -10.585600 -25.659300 -12.269200
H -10.553700 -21.474600 -6.081200
C -10.190100 -19.547200 -5.222400
C -10.142500 -20.585800 -6.095700
H -10.066100 -19.967100 -9.579100
C -9.924200 -20.938600 -9.393900
H -9.536600 -21.395600 -10.165900
C -9.294200 -18.573200 -5.672000
N -9.238900 -20.265900 -7.083300
H -9.122900 -17.695500 -5.265800
C -8.919400 -21.077600 -8.260000
H -8.847600 -22.017600 -7.994000
C -8.722100 -19.034300 -6.826500
H -8.103900 -18.617400 -7.460600
H -8.049300 -20.776800 -8.557900
H -19.292000 -26.579600 -21.924500
H -19.237300 -28.739000 -23.021800
C -18.619100 -28.322100 -23.655900
H -18.493600 -25.338800 -22.488400
C -18.421900 -26.278900 -22.222400
H -18.218400 -29.660900 -25.216600
N -18.102400 -27.090600 -23.399100
C -18.047000 -28.783200 -24.810400
H -17.804600 -25.960800 -20.316500
C -17.417000 -26.417800 -21.088500
H -17.275100 -27.389400 -20.903300
C -17.198700 -26.770600 -24.386700
C -17.151200 -27.809300 -25.260000
H -16.787500 -25.881900 -24.401200
H -16.755600 -21.697100 -18.213200
H -16.567900 -27.847200 -26.016700
N -16.382700 -22.163800 -17.490000
H -16.177800 -24.841600 -21.627300
H -16.117700 -21.690800 -16.841500
C -16.086300 -25.764400 -21.391000
N -15.926600 -23.872100 -18.968400
C -15.634300 -23.269400 -17.801000
H -15.611900 -26.207100 -22.130200
N -15.177700 -25.811200 -20.240300
C -15.161900 -24.956400 -19.163500
N -14.730300 -23.650900 -16.870500
C -14.229100 -26.757300 -19.982700
C -14.182400 -25.437500 -18.321400
H -14.079800 -27.462000 -20.606100
C -13.975800 -24.734400 -17.118200
N -13.593200 -26.577100 -18.848800
N -13.070500 -25.107900 -16.201400
H -12.932400 -24.578000 -15.378400
H -12.546900 -25.785600 -16.391900
