24
Fragment
H -28.273300 -9.684700 -50.544400
H -28.209700 -10.268000 -52.760900
H -28.148800 -8.038600 -48.773200
H -28.143700 -7.638500 -46.628700
H -28.116900 -6.960200 -44.422000
C -28.056700 -9.026200 -51.193600
C -28.022600 -9.366600 -52.522900
C -27.925000 -6.739100 -46.415900
C -27.918200 -6.322000 -45.095400
C -27.848200 -7.365100 -49.373000
C -27.775800 -7.724600 -50.789600
N -27.741700 -8.503900 -53.502800
N -27.644000 -5.061100 -44.718000
C -27.609900 -5.840400 -47.431100
C -27.537500 -6.199900 -48.847800
C -27.467500 -7.243000 -53.125300
C -27.460700 -6.825900 -51.804900
C -27.363100 -4.198400 -45.697900
C -27.329000 -4.538800 -47.027100
H -27.268700 -6.604800 -53.798800
H -27.242000 -5.926500 -51.592100
H -27.236800 -5.526400 -49.447600
H -27.175900 -3.297000 -45.459800
H -27.112400 -3.880300 -47.676400
12
Fragment
O -28.329300 -8.843000 -38.695700
H -28.115400 -11.248100 -39.026400
C -28.097000 -9.440600 -39.730300
N -28.038900 -10.808600 -39.783300
O -27.870900 -12.767400 -40.925300
C -27.870900 -11.541100 -40.925300
N -27.870900 -8.802300 -40.925300
H -27.870900 -7.922600 -40.925300
N -27.702800 -10.808600 -42.067300
C -27.644700 -9.440600 -42.120300
H -27.626300 -11.248100 -42.824300
O -27.412400 -8.843000 -43.154900
36
Fragment
H -28.273300 -9.684700 -50.544400
H -28.209700 -10.268000 -52.760900
H -28.148800 -8.038600 -48.773200
H -28.143700 -7.638500 -46.628700
H -28.116900 -6.960200 -44.422000
C -28.056700 -9.026200 -51.193600
C -28.022600 -9.366600 -52.522900
C -27.925000 -6.739100 -46.415900
C -27.918200 -6.322000 -45.095400
C -27.848200 -7.365100 -49.373000
C -27.775800 -7.724600 -50.789600
N -27.741700 -8.503900 -53.502800
N -27.644000 -5.061100 -44.718000
C -27.609900 -5.840400 -47.431100
C -27.537500 -6.199900 -48.847800
C -27.467500 -7.243000 -53.125300
C -27.460700 -6.825900 -51.804900
C -27.363100 -4.198400 -45.697900
C -27.329000 -4.538800 -47.027100
H -27.268700 -6.604800 -53.798800
H -27.242000 -5.926500 -51.592100
H -27.236800 -5.526400 -49.447600
H -27.175900 -3.297000 -45.459800
H -27.112400 -3.880300 -47.676400
O -28.329300 -8.843000 -38.695700
H -28.115400 -11.248100 -39.026400
C -28.097000 -9.440600 -39.730300
N -28.038900 -10.808600 -39.783300
O -27.870900 -12.767400 -40.925300
C -27.870900 -11.541100 -40.925300
N -27.870900 -8.802300 -40.925300
H -27.870900 -7.922600 -40.925300
N -27.702800 -10.808600 -42.067300
C -27.644700 -9.440600 -42.120300
H -27.626300 -11.248100 -42.824300
O -27.412400 -8.843000 -43.154900
