24
Fragment
H -28.273300 -9.684700 -50.544400
H -28.209700 -10.268000 -52.760900
H -28.148800 -8.038600 -48.773200
H -28.143700 -7.638500 -46.628700
H -28.116900 -6.960200 -44.422000
C -28.056700 -9.026200 -51.193600
C -28.022600 -9.366600 -52.522900
C -27.925000 -6.739100 -46.415900
C -27.918200 -6.322000 -45.095400
C -27.848200 -7.365100 -49.373000
C -27.775800 -7.724600 -50.789600
N -27.741700 -8.503900 -53.502800
N -27.644000 -5.061100 -44.718000
C -27.609900 -5.840400 -47.431100
C -27.537500 -6.199900 -48.847800
C -27.467500 -7.243000 -53.125300
C -27.460700 -6.825900 -51.804900
C -27.363100 -4.198400 -45.697900
C -27.329000 -4.538800 -47.027100
H -27.268700 -6.604800 -53.798800
H -27.242000 -5.926500 -51.592100
H -27.236800 -5.526400 -49.447600
H -27.175900 -3.297000 -45.459800
H -27.112400 -3.880300 -47.676400
24
Fragment
H -31.460400 -16.580500 -54.492900
H -31.397900 -14.719400 -50.403600
H -31.365400 -14.046600 -48.193700
H -31.301500 -15.082200 -52.630000
H -31.285500 -17.064800 -56.715900
C -31.211800 -15.897500 -55.106100
C -31.190000 -13.818700 -50.186200
C -31.170300 -13.405600 -48.867800
C -31.120600 -16.172200 -56.433400
C -31.052000 -14.363300 -53.199000
C -30.943700 -14.631200 -54.651000
C -30.902900 -12.901000 -51.192000
N -30.890300 -12.150800 -48.485000
C -30.827200 -13.204800 -52.654200
N -30.811800 -15.265400 -57.372100
C -30.630900 -11.287400 -49.472500
C -30.624800 -11.615000 -50.801700
C -30.602800 -13.676200 -55.593600
H -30.594300 -12.490000 -53.235700
C -30.553800 -14.021500 -56.938600
H -30.437800 -10.387400 -49.234800
H -30.427800 -10.953100 -51.454600
H -30.403200 -12.787700 -55.321200
H -30.329300 -13.352700 -57.573700
48
Fragment
H -28.273300 -9.684700 -50.544400
H -28.209700 -10.268000 -52.760900
H -28.148800 -8.038600 -48.773200
H -28.143700 -7.638500 -46.628700
H -28.116900 -6.960200 -44.422000
C -28.056700 -9.026200 -51.193600
C -28.022600 -9.366600 -52.522900
C -27.925000 -6.739100 -46.415900
C -27.918200 -6.322000 -45.095400
C -27.848200 -7.365100 -49.373000
C -27.775800 -7.724600 -50.789600
N -27.741700 -8.503900 -53.502800
N -27.644000 -5.061100 -44.718000
C -27.609900 -5.840400 -47.431100
C -27.537500 -6.199900 -48.847800
C -27.467500 -7.243000 -53.125300
C -27.460700 -6.825900 -51.804900
C -27.363100 -4.198400 -45.697900
C -27.329000 -4.538800 -47.027100
H -27.268700 -6.604800 -53.798800
H -27.242000 -5.926500 -51.592100
H -27.236800 -5.526400 -49.447600
H -27.175900 -3.297000 -45.459800
H -27.112400 -3.880300 -47.676400
H -31.460400 -16.580500 -54.492900
H -31.397900 -14.719400 -50.403600
H -31.365400 -14.046600 -48.193700
H -31.301500 -15.082200 -52.630000
H -31.285500 -17.064800 -56.715900
C -31.211800 -15.897500 -55.106100
C -31.190000 -13.818700 -50.186200
C -31.170300 -13.405600 -48.867800
C -31.120600 -16.172200 -56.433400
C -31.052000 -14.363300 -53.199000
C -30.943700 -14.631200 -54.651000
C -30.902900 -12.901000 -51.192000
N -30.890300 -12.150800 -48.485000
C -30.827200 -13.204800 -52.654200
N -30.811800 -15.265400 -57.372100
C -30.630900 -11.287400 -49.472500
C -30.624800 -11.615000 -50.801700
C -30.602800 -13.676200 -55.593600
H -30.594300 -12.490000 -53.235700
C -30.553800 -14.021500 -56.938600
H -30.437800 -10.387400 -49.234800
H -30.427800 -10.953100 -51.454600
H -30.403200 -12.787700 -55.321200
H -30.329300 -13.352700 -57.573700
