25
Fragment
H -3.192000 -11.665100 -17.698100
H -3.165900 -13.660800 -18.829400
H -2.929000 -8.317800 -14.880300
C -2.916000 -12.436600 -17.256300
H -2.908400 -6.342800 -13.747900
C -2.904800 -13.626800 -17.936900
H -2.861300 -10.329500 -15.761800
C -2.639400 -8.297000 -13.996700
C -2.628800 -7.109400 -13.302200
C -2.550100 -11.046200 -15.257400
C -2.525900 -12.349400 -15.925000
C -2.505200 -14.761400 -17.291100
Cl -2.488600 -16.285500 -18.138900
N -2.243600 -6.985500 -12.034000
C -2.218700 -9.462400 -13.376800
C -2.181800 -10.776200 -14.026500
C -2.132000 -13.523900 -15.295200
C -2.116800 -14.726400 -15.974800
H -1.874100 -13.500300 -14.401700
H -1.867500 -11.487300 -13.517100
C -1.847800 -8.109600 -11.447500
H -1.846300 -15.505000 -15.544900
C -1.812200 -9.333600 -12.059400
H -1.575400 -8.060800 -10.560000
H -1.514700 -10.079300 -11.589800
25
Fragment
H -2.361500 -19.975400 -28.210300
H -2.300800 -21.994000 -29.240100
C -2.063900 -20.721200 -27.740700
H -2.029900 -14.549800 -24.255200
C -2.028400 -21.945100 -28.352600
H -2.008600 -18.567400 -26.283000
H -2.002000 -16.554400 -25.398400
C -1.759300 -15.328400 -23.825300
C -1.744100 -16.530800 -24.504900
C -1.694300 -19.278500 -25.773500
C -1.657400 -20.592400 -26.423300
N -1.632500 -23.069200 -27.766100
Cl -1.387500 -13.769200 -21.661200
C -1.370900 -15.293300 -22.508900
C -1.350200 -17.705400 -23.875100
C -1.326000 -19.008600 -24.542700
C -1.247400 -22.945400 -26.497900
C -1.236700 -21.757700 -25.803400
H -1.014900 -19.725300 -24.038300
C -0.971400 -16.428000 -21.863200
H -0.967800 -23.712000 -26.052100
C -0.960200 -17.618100 -22.543800
H -0.947200 -21.737000 -24.919800
H -0.710200 -16.394000 -20.970700
H -0.684200 -18.389600 -22.102000
50
Fragment
H -3.192000 -11.665100 -17.698100
H -3.165900 -13.660800 -18.829400
H -2.929000 -8.317800 -14.880300
C -2.916000 -12.436600 -17.256300
H -2.908400 -6.342800 -13.747900
C -2.904800 -13.626800 -17.936900
H -2.861300 -10.329500 -15.761800
C -2.639400 -8.297000 -13.996700
C -2.628800 -7.109400 -13.302200
C -2.550100 -11.046200 -15.257400
C -2.525900 -12.349400 -15.925000
C -2.505200 -14.761400 -17.291100
Cl -2.488600 -16.285500 -18.138900
N -2.243600 -6.985500 -12.034000
C -2.218700 -9.462400 -13.376800
C -2.181800 -10.776200 -14.026500
C -2.132000 -13.523900 -15.295200
C -2.116800 -14.726400 -15.974800
H -1.874100 -13.500300 -14.401700
H -1.867500 -11.487300 -13.517100
C -1.847800 -8.109600 -11.447500
H -1.846300 -15.505000 -15.544900
C -1.812200 -9.333600 -12.059400
H -1.575400 -8.060800 -10.560000
H -1.514700 -10.079300 -11.589800
H -2.361500 -19.975400 -28.210300
H -2.300800 -21.994000 -29.240100
C -2.063900 -20.721200 -27.740700
H -2.029900 -14.549800 -24.255200
C -2.028400 -21.945100 -28.352600
H -2.008600 -18.567400 -26.283000
H -2.002000 -16.554400 -25.398400
C -1.759300 -15.328400 -23.825300
C -1.744100 -16.530800 -24.504900
C -1.694300 -19.278500 -25.773500
C -1.657400 -20.592400 -26.423300
N -1.632500 -23.069200 -27.766100
Cl -1.387500 -13.769200 -21.661200
C -1.370900 -15.293300 -22.508900
C -1.350200 -17.705400 -23.875100
C -1.326000 -19.008600 -24.542700
C -1.247400 -22.945400 -26.497900
C -1.236700 -21.757700 -25.803400
H -1.014900 -19.725300 -24.038300
C -0.971400 -16.428000 -21.863200
H -0.967800 -23.712000 -26.052100
C -0.960200 -17.618100 -22.543800
H -0.947200 -21.737000 -24.919800
H -0.710200 -16.394000 -20.970700
H -0.684200 -18.389600 -22.102000
