25
Fragment
H -3.192000 -11.665100 -17.698100
H -3.165900 -13.660800 -18.829400
H -2.929000 -8.317800 -14.880300
C -2.916000 -12.436600 -17.256300
H -2.908400 -6.342800 -13.747900
C -2.904800 -13.626800 -17.936900
H -2.861300 -10.329500 -15.761800
C -2.639400 -8.297000 -13.996700
C -2.628800 -7.109400 -13.302200
C -2.550100 -11.046200 -15.257400
C -2.525900 -12.349400 -15.925000
C -2.505200 -14.761400 -17.291100
Cl -2.488600 -16.285500 -18.138900
N -2.243600 -6.985500 -12.034000
C -2.218700 -9.462400 -13.376800
C -2.181800 -10.776200 -14.026500
C -2.132000 -13.523900 -15.295200
C -2.116800 -14.726400 -15.974800
H -1.874100 -13.500300 -14.401700
H -1.867500 -11.487300 -13.517100
C -1.847800 -8.109600 -11.447500
H -1.846300 -15.505000 -15.544900
C -1.812200 -9.333600 -12.059400
H -1.575400 -8.060800 -10.560000
H -1.514700 -10.079300 -11.589800
25
Fragment
H -4.365200 -21.763700 -18.260300
H -4.304500 -23.782200 -19.290100
C -4.067700 -22.509400 -17.790600
H -4.033600 -16.338000 -14.305100
C -4.032100 -23.733400 -18.402600
H -4.012300 -20.355700 -16.333000
H -4.005700 -18.342700 -15.448400
C -3.763100 -17.116600 -13.875300
C -3.747900 -18.319100 -14.554900
C -3.698100 -21.066800 -15.823500
C -3.661200 -22.380600 -16.473300
N -3.636300 -24.857500 -17.816100
Cl -3.391300 -15.557500 -11.711200
C -3.374600 -17.081600 -12.558900
C -3.354000 -19.493600 -13.925100
C -3.329800 -20.796800 -14.592700
C -3.251100 -24.733600 -16.547900
C -3.240500 -23.546000 -15.853400
H -3.018600 -21.513500 -14.088200
C -2.975100 -18.216200 -11.913200
H -2.971500 -25.500200 -16.102100
C -2.963900 -19.406400 -12.593700
H -2.950900 -23.525200 -14.969800
H -2.714000 -18.182200 -11.020600
H -2.687900 -20.177900 -12.152000
50
Fragment
H -3.192000 -11.665100 -17.698100
H -3.165900 -13.660800 -18.829400
H -2.929000 -8.317800 -14.880300
C -2.916000 -12.436600 -17.256300
H -2.908400 -6.342800 -13.747900
C -2.904800 -13.626800 -17.936900
H -2.861300 -10.329500 -15.761800
C -2.639400 -8.297000 -13.996700
C -2.628800 -7.109400 -13.302200
C -2.550100 -11.046200 -15.257400
C -2.525900 -12.349400 -15.925000
C -2.505200 -14.761400 -17.291100
Cl -2.488600 -16.285500 -18.138900
N -2.243600 -6.985500 -12.034000
C -2.218700 -9.462400 -13.376800
C -2.181800 -10.776200 -14.026500
C -2.132000 -13.523900 -15.295200
C -2.116800 -14.726400 -15.974800
H -1.874100 -13.500300 -14.401700
H -1.867500 -11.487300 -13.517100
C -1.847800 -8.109600 -11.447500
H -1.846300 -15.505000 -15.544900
C -1.812200 -9.333600 -12.059400
H -1.575400 -8.060800 -10.560000
H -1.514700 -10.079300 -11.589800
H -4.365200 -21.763700 -18.260300
H -4.304500 -23.782200 -19.290100
C -4.067700 -22.509400 -17.790600
H -4.033600 -16.338000 -14.305100
C -4.032100 -23.733400 -18.402600
H -4.012300 -20.355700 -16.333000
H -4.005700 -18.342700 -15.448400
C -3.763100 -17.116600 -13.875300
C -3.747900 -18.319100 -14.554900
C -3.698100 -21.066800 -15.823500
C -3.661200 -22.380600 -16.473300
N -3.636300 -24.857500 -17.816100
Cl -3.391300 -15.557500 -11.711200
C -3.374600 -17.081600 -12.558900
C -3.354000 -19.493600 -13.925100
C -3.329800 -20.796800 -14.592700
C -3.251100 -24.733600 -16.547900
C -3.240500 -23.546000 -15.853400
H -3.018600 -21.513500 -14.088200
C -2.975100 -18.216200 -11.913200
H -2.971500 -25.500200 -16.102100
C -2.963900 -19.406400 -12.593700
H -2.950900 -23.525200 -14.969800
H -2.714000 -18.182200 -11.020600
H -2.687900 -20.177900 -12.152000
