25
Fragment
H -3.192000 -11.665100 -17.698100
H -3.165900 -13.660800 -18.829400
H -2.929000 -8.317800 -14.880300
C -2.916000 -12.436600 -17.256300
H -2.908400 -6.342800 -13.747900
C -2.904800 -13.626800 -17.936900
H -2.861300 -10.329500 -15.761800
C -2.639400 -8.297000 -13.996700
C -2.628800 -7.109400 -13.302200
C -2.550100 -11.046200 -15.257400
C -2.525900 -12.349400 -15.925000
C -2.505200 -14.761400 -17.291100
Cl -2.488600 -16.285500 -18.138900
N -2.243600 -6.985500 -12.034000
C -2.218700 -9.462400 -13.376800
C -2.181800 -10.776200 -14.026500
C -2.132000 -13.523900 -15.295200
C -2.116800 -14.726400 -15.974800
H -1.874100 -13.500300 -14.401700
H -1.867500 -11.487300 -13.517100
C -1.847800 -8.109600 -11.447500
H -1.846300 -15.505000 -15.544900
C -1.812200 -9.333600 -12.059400
H -1.575400 -8.060800 -10.560000
H -1.514700 -10.079300 -11.589800
25
Fragment
H -2.152900 -3.159800 -18.260300
H -2.092200 -5.178300 -19.290100
C -1.855400 -3.905600 -17.790600
H -1.821300 2.265900 -14.305100
C -1.819800 -5.129500 -18.402600
H -1.800000 -1.751800 -16.333000
H -1.793400 0.261200 -15.448400
C -1.550800 1.487300 -13.875300
C -1.535600 0.284800 -14.554900
C -1.485800 -2.462900 -15.823500
C -1.448900 -3.776800 -16.473300
N -1.424000 -6.253600 -17.816100
Cl -1.179000 3.046400 -11.711200
C -1.162300 1.522300 -12.558900
C -1.141700 -0.889800 -13.925100
C -1.117500 -2.193000 -14.592700
C -1.038800 -6.129800 -16.547900
C -1.028200 -4.942100 -15.853400
H -0.806300 -2.909600 -14.088200
C -0.762800 0.387700 -11.913200
H -0.759200 -6.896400 -16.102100
C -0.751600 -0.802500 -12.593700
H -0.738600 -4.921300 -14.969800
H -0.501700 0.421700 -11.020600
H -0.475600 -1.574000 -12.152000
50
Fragment
H -3.192000 -11.665100 -17.698100
H -3.165900 -13.660800 -18.829400
H -2.929000 -8.317800 -14.880300
C -2.916000 -12.436600 -17.256300
H -2.908400 -6.342800 -13.747900
C -2.904800 -13.626800 -17.936900
H -2.861300 -10.329500 -15.761800
C -2.639400 -8.297000 -13.996700
C -2.628800 -7.109400 -13.302200
C -2.550100 -11.046200 -15.257400
C -2.525900 -12.349400 -15.925000
C -2.505200 -14.761400 -17.291100
Cl -2.488600 -16.285500 -18.138900
N -2.243600 -6.985500 -12.034000
C -2.218700 -9.462400 -13.376800
C -2.181800 -10.776200 -14.026500
C -2.132000 -13.523900 -15.295200
C -2.116800 -14.726400 -15.974800
H -1.874100 -13.500300 -14.401700
H -1.867500 -11.487300 -13.517100
C -1.847800 -8.109600 -11.447500
H -1.846300 -15.505000 -15.544900
C -1.812200 -9.333600 -12.059400
H -1.575400 -8.060800 -10.560000
H -1.514700 -10.079300 -11.589800
H -2.152900 -3.159800 -18.260300
H -2.092200 -5.178300 -19.290100
C -1.855400 -3.905600 -17.790600
H -1.821300 2.265900 -14.305100
C -1.819800 -5.129500 -18.402600
H -1.800000 -1.751800 -16.333000
H -1.793400 0.261200 -15.448400
C -1.550800 1.487300 -13.875300
C -1.535600 0.284800 -14.554900
C -1.485800 -2.462900 -15.823500
C -1.448900 -3.776800 -16.473300
N -1.424000 -6.253600 -17.816100
Cl -1.179000 3.046400 -11.711200
C -1.162300 1.522300 -12.558900
C -1.141700 -0.889800 -13.925100
C -1.117500 -2.193000 -14.592700
C -1.038800 -6.129800 -16.547900
C -1.028200 -4.942100 -15.853400
H -0.806300 -2.909600 -14.088200
C -0.762800 0.387700 -11.913200
H -0.759200 -6.896400 -16.102100
C -0.751600 -0.802500 -12.593700
H -0.738600 -4.921300 -14.969800
H -0.501700 0.421700 -11.020600
H -0.475600 -1.574000 -12.152000
