24
Fragment
H -11.812800 -19.045000 -16.698300
O -11.754400 -21.265100 -19.454800
O -11.723600 -16.072000 -22.613900
N -11.701600 -19.521000 -17.448700
H -11.695900 -18.234000 -21.707000
N -11.686800 -15.693300 -21.449800
C -11.682700 -18.006700 -20.784800
O -11.681200 -14.498200 -21.124100
C -11.680500 -18.991800 -19.839600
C -11.672500 -18.662700 -18.449300
N -11.668100 -20.362100 -20.304200
C -11.665100 -16.696400 -20.406200
H -11.649800 -16.340700 -16.115600
N -11.648400 -17.351400 -18.096500
C -11.625600 -16.385900 -19.011100
O -11.593400 -20.575300 -21.505200
H -11.585700 -14.467700 -19.136800
N -11.555200 -15.114400 -18.540300
H -11.526300 -20.291300 -17.733300
N -11.501200 -15.474100 -16.142100
C -11.439400 -14.714300 -17.233600
N -11.336200 -14.671300 -15.055400
N -11.264300 -13.451200 -16.878400
N -11.192400 -13.466700 -15.518900
24
Fragment
N -15.285100 -23.919600 -21.357600
N -15.213200 -23.935000 -19.998100
N -15.141300 -22.714900 -21.821100
C -15.038100 -22.671900 -19.642900
N -14.976300 -21.912100 -20.734400
H -14.951200 -17.094900 -19.143200
N -14.922300 -22.271800 -18.336200
H -14.891800 -22.918500 -17.739700
O -14.884100 -16.810900 -15.371400
C -14.851900 -21.000300 -17.865400
N -14.829100 -20.034800 -18.780000
H -14.827700 -21.045600 -20.760900
C -14.812300 -20.689800 -16.470300
N -14.809400 -17.024100 -16.572300
C -14.805000 -18.723600 -18.427200
C -14.797000 -18.394500 -17.036900
O -14.796300 -22.888000 -15.752400
C -14.794800 -19.379600 -16.091700
N -14.790700 -21.692900 -15.426700
H -14.781600 -19.152200 -15.169500
N -14.775900 -17.865200 -19.427800
O -14.753900 -21.314200 -14.262600
O -14.723100 -16.121200 -17.421700
H -14.664700 -18.341200 -20.178200
48
Fragment
H -11.812800 -19.045000 -16.698300
O -11.754400 -21.265100 -19.454800
O -11.723600 -16.072000 -22.613900
N -11.701600 -19.521000 -17.448700
H -11.695900 -18.234000 -21.707000
N -11.686800 -15.693300 -21.449800
C -11.682700 -18.006700 -20.784800
O -11.681200 -14.498200 -21.124100
C -11.680500 -18.991800 -19.839600
C -11.672500 -18.662700 -18.449300
N -11.668100 -20.362100 -20.304200
C -11.665100 -16.696400 -20.406200
H -11.649800 -16.340700 -16.115600
N -11.648400 -17.351400 -18.096500
C -11.625600 -16.385900 -19.011100
O -11.593400 -20.575300 -21.505200
H -11.585700 -14.467700 -19.136800
N -11.555200 -15.114400 -18.540300
H -11.526300 -20.291300 -17.733300
N -11.501200 -15.474100 -16.142100
C -11.439400 -14.714300 -17.233600
N -11.336200 -14.671300 -15.055400
N -11.264300 -13.451200 -16.878400
N -11.192400 -13.466700 -15.518900
N -15.285100 -23.919600 -21.357600
N -15.213200 -23.935000 -19.998100
N -15.141300 -22.714900 -21.821100
C -15.038100 -22.671900 -19.642900
N -14.976300 -21.912100 -20.734400
H -14.951200 -17.094900 -19.143200
N -14.922300 -22.271800 -18.336200
H -14.891800 -22.918500 -17.739700
O -14.884100 -16.810900 -15.371400
C -14.851900 -21.000300 -17.865400
N -14.829100 -20.034800 -18.780000
H -14.827700 -21.045600 -20.760900
C -14.812300 -20.689800 -16.470300
N -14.809400 -17.024100 -16.572300
C -14.805000 -18.723600 -18.427200
C -14.797000 -18.394500 -17.036900
O -14.796300 -22.888000 -15.752400
C -14.794800 -19.379600 -16.091700
N -14.790700 -21.692900 -15.426700
H -14.781600 -19.152200 -15.169500
N -14.775900 -17.865200 -19.427800
O -14.753900 -21.314200 -14.262600
O -14.723100 -16.121200 -17.421700
H -14.664700 -18.341200 -20.178200
