24
Fragment
H -11.812800 -19.045000 -16.698300
O -11.754400 -21.265100 -19.454800
O -11.723600 -16.072000 -22.613900
N -11.701600 -19.521000 -17.448700
H -11.695900 -18.234000 -21.707000
N -11.686800 -15.693300 -21.449800
C -11.682700 -18.006700 -20.784800
O -11.681200 -14.498200 -21.124100
C -11.680500 -18.991800 -19.839600
C -11.672500 -18.662700 -18.449300
N -11.668100 -20.362100 -20.304200
C -11.665100 -16.696400 -20.406200
H -11.649800 -16.340700 -16.115600
N -11.648400 -17.351400 -18.096500
C -11.625600 -16.385900 -19.011100
O -11.593400 -20.575300 -21.505200
H -11.585700 -14.467700 -19.136800
N -11.555200 -15.114400 -18.540300
H -11.526300 -20.291300 -17.733300
N -11.501200 -15.474100 -16.142100
C -11.439400 -14.714300 -17.233600
N -11.336200 -14.671300 -15.055400
N -11.264300 -13.451200 -16.878400
N -11.192400 -13.466700 -15.518900
12
Fragment
H -14.306000 -23.668200 -24.628500
H -14.283500 -23.525600 -26.222300
O -13.879800 -21.398600 -27.313200
C -13.743200 -23.471200 -25.406700
C -13.334400 -21.229200 -26.218000
N -13.188100 -22.125100 -25.277600
H -13.052800 -22.038200 -23.284200
H -13.012800 -24.122900 -25.454400
H -12.986500 -20.362400 -26.041700
C -12.480100 -21.828600 -24.050900
H -12.244000 -20.877300 -24.032200
H -11.663400 -22.368500 -24.006400
36
Fragment
H -11.812800 -19.045000 -16.698300
O -11.754400 -21.265100 -19.454800
O -11.723600 -16.072000 -22.613900
N -11.701600 -19.521000 -17.448700
H -11.695900 -18.234000 -21.707000
N -11.686800 -15.693300 -21.449800
C -11.682700 -18.006700 -20.784800
O -11.681200 -14.498200 -21.124100
C -11.680500 -18.991800 -19.839600
C -11.672500 -18.662700 -18.449300
N -11.668100 -20.362100 -20.304200
C -11.665100 -16.696400 -20.406200
H -11.649800 -16.340700 -16.115600
N -11.648400 -17.351400 -18.096500
C -11.625600 -16.385900 -19.011100
O -11.593400 -20.575300 -21.505200
H -11.585700 -14.467700 -19.136800
N -11.555200 -15.114400 -18.540300
H -11.526300 -20.291300 -17.733300
N -11.501200 -15.474100 -16.142100
C -11.439400 -14.714300 -17.233600
N -11.336200 -14.671300 -15.055400
N -11.264300 -13.451200 -16.878400
N -11.192400 -13.466700 -15.518900
H -14.306000 -23.668200 -24.628500
H -14.283500 -23.525600 -26.222300
O -13.879800 -21.398600 -27.313200
C -13.743200 -23.471200 -25.406700
C -13.334400 -21.229200 -26.218000
N -13.188100 -22.125100 -25.277600
H -13.052800 -22.038200 -23.284200
H -13.012800 -24.122900 -25.454400
H -12.986500 -20.362400 -26.041700
C -12.480100 -21.828600 -24.050900
H -12.244000 -20.877300 -24.032200
H -11.663400 -22.368500 -24.006400
