25
Fragment
H -3.192000 -11.665100 -17.698100
H -3.165900 -13.660800 -18.829400
H -2.929000 -8.317800 -14.880300
C -2.916000 -12.436600 -17.256300
H -2.908400 -6.342800 -13.747900
C -2.904800 -13.626800 -17.936900
H -2.861300 -10.329500 -15.761800
C -2.639400 -8.297000 -13.996700
C -2.628800 -7.109400 -13.302200
C -2.550100 -11.046200 -15.257400
C -2.525900 -12.349400 -15.925000
C -2.505200 -14.761400 -17.291100
Cl -2.488600 -16.285500 -18.138900
N -2.243600 -6.985500 -12.034000
C -2.218700 -9.462400 -13.376800
C -2.181800 -10.776200 -14.026500
C -2.132000 -13.523900 -15.295200
C -2.116800 -14.726400 -15.974800
H -1.874100 -13.500300 -14.401700
H -1.867500 -11.487300 -13.517100
C -1.847800 -8.109600 -11.447500
H -1.846300 -15.505000 -15.544900
C -1.812200 -9.333600 -12.059400
H -1.575400 -8.060800 -10.560000
H -1.514700 -10.079300 -11.589800
25
Fragment
H -6.027600 -19.178800 -27.648100
H -6.001600 -21.174500 -28.779400
H -5.764600 -15.831400 -24.830300
C -5.751700 -19.950300 -27.206300
H -5.744000 -13.856400 -23.698000
C -5.740400 -21.140500 -27.886900
H -5.696900 -17.843200 -25.711800
C -5.475100 -15.810700 -23.946700
C -5.464500 -14.623000 -23.252200
C -5.385800 -18.559800 -25.207400
C -5.361600 -19.863000 -25.875000
C -5.340900 -22.275100 -27.241200
Cl -5.324300 -23.799200 -28.088900
N -5.079300 -14.499200 -21.984000
C -5.054400 -16.976000 -23.326800
C -5.017500 -18.289900 -23.976600
C -4.967700 -21.037600 -25.245200
C -4.952500 -22.240000 -25.924800
H -4.709800 -21.014000 -24.351700
H -4.703200 -19.001000 -23.467100
C -4.683400 -15.623300 -21.397500
H -4.681900 -23.018700 -25.494900
C -4.647900 -16.847200 -22.009400
H -4.411000 -15.574500 -20.510000
H -4.350300 -17.593000 -21.539800
50
Fragment
H -3.192000 -11.665100 -17.698100
H -3.165900 -13.660800 -18.829400
H -2.929000 -8.317800 -14.880300
C -2.916000 -12.436600 -17.256300
H -2.908400 -6.342800 -13.747900
C -2.904800 -13.626800 -17.936900
H -2.861300 -10.329500 -15.761800
C -2.639400 -8.297000 -13.996700
C -2.628800 -7.109400 -13.302200
C -2.550100 -11.046200 -15.257400
C -2.525900 -12.349400 -15.925000
C -2.505200 -14.761400 -17.291100
Cl -2.488600 -16.285500 -18.138900
N -2.243600 -6.985500 -12.034000
C -2.218700 -9.462400 -13.376800
C -2.181800 -10.776200 -14.026500
C -2.132000 -13.523900 -15.295200
C -2.116800 -14.726400 -15.974800
H -1.874100 -13.500300 -14.401700
H -1.867500 -11.487300 -13.517100
C -1.847800 -8.109600 -11.447500
H -1.846300 -15.505000 -15.544900
C -1.812200 -9.333600 -12.059400
H -1.575400 -8.060800 -10.560000
H -1.514700 -10.079300 -11.589800
H -6.027600 -19.178800 -27.648100
H -6.001600 -21.174500 -28.779400
H -5.764600 -15.831400 -24.830300
C -5.751700 -19.950300 -27.206300
H -5.744000 -13.856400 -23.698000
C -5.740400 -21.140500 -27.886900
H -5.696900 -17.843200 -25.711800
C -5.475100 -15.810700 -23.946700
C -5.464500 -14.623000 -23.252200
C -5.385800 -18.559800 -25.207400
C -5.361600 -19.863000 -25.875000
C -5.340900 -22.275100 -27.241200
Cl -5.324300 -23.799200 -28.088900
N -5.079300 -14.499200 -21.984000
C -5.054400 -16.976000 -23.326800
C -5.017500 -18.289900 -23.976600
C -4.967700 -21.037600 -25.245200
C -4.952500 -22.240000 -25.924800
H -4.709800 -21.014000 -24.351700
H -4.703200 -19.001000 -23.467100
C -4.683400 -15.623300 -21.397500
H -4.681900 -23.018700 -25.494900
C -4.647900 -16.847200 -22.009400
H -4.411000 -15.574500 -20.510000
H -4.350300 -17.593000 -21.539800
