25
Fragment
H -3.192000 -11.665100 -17.698100
H -3.165900 -13.660800 -18.829400
H -2.929000 -8.317800 -14.880300
C -2.916000 -12.436600 -17.256300
H -2.908400 -6.342800 -13.747900
C -2.904800 -13.626800 -17.936900
H -2.861300 -10.329500 -15.761800
C -2.639400 -8.297000 -13.996700
C -2.628800 -7.109400 -13.302200
C -2.550100 -11.046200 -15.257400
C -2.525900 -12.349400 -15.925000
C -2.505200 -14.761400 -17.291100
Cl -2.488600 -16.285500 -18.138900
N -2.243600 -6.985500 -12.034000
C -2.218700 -9.462400 -13.376800
C -2.181800 -10.776200 -14.026500
C -2.132000 -13.523900 -15.295200
C -2.116800 -14.726400 -15.974800
H -1.874100 -13.500300 -14.401700
H -1.867500 -11.487300 -13.517100
C -1.847800 -8.109600 -11.447500
H -1.846300 -15.505000 -15.544900
C -1.812200 -9.333600 -12.059400
H -1.575400 -8.060800 -10.560000
H -1.514700 -10.079300 -11.589800
25
Fragment
H 0.474200 -12.461700 -18.260300
H 0.534900 -14.480300 -19.290100
C 0.771700 -13.207500 -17.790600
H 0.805800 -7.036100 -14.305100
C 0.807300 -14.431400 -18.402600
H 0.827100 -11.053800 -16.333000
H 0.833700 -9.040700 -15.448400
C 1.076300 -7.814700 -13.875300
C 1.091500 -9.017100 -14.554900
C 1.141300 -11.764800 -15.823500
C 1.178200 -13.078700 -16.473300
N 1.203100 -15.555600 -17.816100
Cl 1.448100 -6.255500 -11.711200
C 1.464800 -7.779700 -12.558900
C 1.485400 -10.191700 -13.925100
C 1.509600 -11.494900 -14.592700
C 1.588300 -15.431700 -16.547900
C 1.598900 -14.244000 -15.853400
H 1.820800 -12.211600 -14.088200
C 1.864300 -8.914300 -11.913200
H 1.867900 -16.198300 -16.102100
C 1.875500 -10.104500 -12.593700
H 1.888500 -14.223300 -14.969800
H 2.125400 -8.880300 -11.020600
H 2.151500 -10.875900 -12.152000
50
Fragment
H -3.192000 -11.665100 -17.698100
H -3.165900 -13.660800 -18.829400
H -2.929000 -8.317800 -14.880300
C -2.916000 -12.436600 -17.256300
H -2.908400 -6.342800 -13.747900
C -2.904800 -13.626800 -17.936900
H -2.861300 -10.329500 -15.761800
C -2.639400 -8.297000 -13.996700
C -2.628800 -7.109400 -13.302200
C -2.550100 -11.046200 -15.257400
C -2.525900 -12.349400 -15.925000
C -2.505200 -14.761400 -17.291100
Cl -2.488600 -16.285500 -18.138900
N -2.243600 -6.985500 -12.034000
C -2.218700 -9.462400 -13.376800
C -2.181800 -10.776200 -14.026500
C -2.132000 -13.523900 -15.295200
C -2.116800 -14.726400 -15.974800
H -1.874100 -13.500300 -14.401700
H -1.867500 -11.487300 -13.517100
C -1.847800 -8.109600 -11.447500
H -1.846300 -15.505000 -15.544900
C -1.812200 -9.333600 -12.059400
H -1.575400 -8.060800 -10.560000
H -1.514700 -10.079300 -11.589800
H 0.474200 -12.461700 -18.260300
H 0.534900 -14.480300 -19.290100
C 0.771700 -13.207500 -17.790600
H 0.805800 -7.036100 -14.305100
C 0.807300 -14.431400 -18.402600
H 0.827100 -11.053800 -16.333000
H 0.833700 -9.040700 -15.448400
C 1.076300 -7.814700 -13.875300
C 1.091500 -9.017100 -14.554900
C 1.141300 -11.764800 -15.823500
C 1.178200 -13.078700 -16.473300
N 1.203100 -15.555600 -17.816100
Cl 1.448100 -6.255500 -11.711200
C 1.464800 -7.779700 -12.558900
C 1.485400 -10.191700 -13.925100
C 1.509600 -11.494900 -14.592700
C 1.588300 -15.431700 -16.547900
C 1.598900 -14.244000 -15.853400
H 1.820800 -12.211600 -14.088200
C 1.864300 -8.914300 -11.913200
H 1.867900 -16.198300 -16.102100
C 1.875500 -10.104500 -12.593700
H 1.888500 -14.223300 -14.969800
H 2.125400 -8.880300 -11.020600
H 2.151500 -10.875900 -12.152000
