25
Fragment
H -3.192000 -11.665100 -17.698100
H -3.165900 -13.660800 -18.829400
H -2.929000 -8.317800 -14.880300
C -2.916000 -12.436600 -17.256300
H -2.908400 -6.342800 -13.747900
C -2.904800 -13.626800 -17.936900
H -2.861300 -10.329500 -15.761800
C -2.639400 -8.297000 -13.996700
C -2.628800 -7.109400 -13.302200
C -2.550100 -11.046200 -15.257400
C -2.525900 -12.349400 -15.925000
C -2.505200 -14.761400 -17.291100
Cl -2.488600 -16.285500 -18.138900
N -2.243600 -6.985500 -12.034000
C -2.218700 -9.462400 -13.376800
C -2.181800 -10.776200 -14.026500
C -2.132000 -13.523900 -15.295200
C -2.116800 -14.726400 -15.974800
H -1.874100 -13.500300 -14.401700
H -1.867500 -11.487300 -13.517100
C -1.847800 -8.109600 -11.447500
H -1.846300 -15.505000 -15.544900
C -1.812200 -9.333600 -12.059400
H -1.575400 -8.060800 -10.560000
H -1.514700 -10.079300 -11.589800
25
Fragment
H -4.156600 -4.948000 -8.310300
H -4.095900 -6.966600 -9.340100
C -3.859100 -5.693800 -7.840600
H -3.825100 0.477600 -4.355100
C -3.823600 -6.917700 -8.452500
H -3.803800 -3.540100 -6.382900
H -3.797200 -1.527100 -5.498400
C -3.554500 -0.301000 -3.925300
C -3.539300 -1.503500 -4.604900
C -3.489500 -4.251100 -5.873500
C -3.452600 -5.565000 -6.523200
N -3.427700 -8.041900 -7.866100
Cl -3.182700 1.258200 -1.761200
C -3.166100 -0.266000 -2.608900
C -3.145400 -2.678000 -3.975000
C -3.121200 -3.981200 -4.642700
C -3.042500 -7.918000 -6.597900
C -3.031900 -6.730300 -5.903300
H -2.810000 -4.697900 -4.138200
C -2.766500 -1.400600 -1.963100
H -2.763000 -8.684600 -6.152100
C -2.755300 -2.590800 -2.643700
H -2.742400 -6.709600 -5.019800
H -2.505400 -1.366600 -1.070600
H -2.479300 -3.362200 -2.201900
50
Fragment
H -3.192000 -11.665100 -17.698100
H -3.165900 -13.660800 -18.829400
H -2.929000 -8.317800 -14.880300
C -2.916000 -12.436600 -17.256300
H -2.908400 -6.342800 -13.747900
C -2.904800 -13.626800 -17.936900
H -2.861300 -10.329500 -15.761800
C -2.639400 -8.297000 -13.996700
C -2.628800 -7.109400 -13.302200
C -2.550100 -11.046200 -15.257400
C -2.525900 -12.349400 -15.925000
C -2.505200 -14.761400 -17.291100
Cl -2.488600 -16.285500 -18.138900
N -2.243600 -6.985500 -12.034000
C -2.218700 -9.462400 -13.376800
C -2.181800 -10.776200 -14.026500
C -2.132000 -13.523900 -15.295200
C -2.116800 -14.726400 -15.974800
H -1.874100 -13.500300 -14.401700
H -1.867500 -11.487300 -13.517100
C -1.847800 -8.109600 -11.447500
H -1.846300 -15.505000 -15.544900
C -1.812200 -9.333600 -12.059400
H -1.575400 -8.060800 -10.560000
H -1.514700 -10.079300 -11.589800
H -4.156600 -4.948000 -8.310300
H -4.095900 -6.966600 -9.340100
C -3.859100 -5.693800 -7.840600
H -3.825100 0.477600 -4.355100
C -3.823600 -6.917700 -8.452500
H -3.803800 -3.540100 -6.382900
H -3.797200 -1.527100 -5.498400
C -3.554500 -0.301000 -3.925300
C -3.539300 -1.503500 -4.604900
C -3.489500 -4.251100 -5.873500
C -3.452600 -5.565000 -6.523200
N -3.427700 -8.041900 -7.866100
Cl -3.182700 1.258200 -1.761200
C -3.166100 -0.266000 -2.608900
C -3.145400 -2.678000 -3.975000
C -3.121200 -3.981200 -4.642700
C -3.042500 -7.918000 -6.597900
C -3.031900 -6.730300 -5.903300
H -2.810000 -4.697900 -4.138200
C -2.766500 -1.400600 -1.963100
H -2.763000 -8.684600 -6.152100
C -2.755300 -2.590800 -2.643700
H -2.742400 -6.709600 -5.019800
H -2.505400 -1.366600 -1.070600
H -2.479300 -3.362200 -2.201900
