20
Fragment
N -8.814300 -18.632900 -16.096700
C -8.265300 -19.631900 -16.055900
N -7.590900 -21.644500 -17.094100
C -7.575600 -20.911500 -15.986200
N -7.007500 -21.209400 -14.821300
C -6.935600 -22.796900 -16.950500
C -6.847200 -23.635300 -18.132600
N -6.762800 -24.260900 -19.082400
C -6.411100 -22.409500 -14.818900
N -6.318800 -23.242600 -15.855800
N -5.867300 -22.016900 -12.506100
C -5.775000 -22.850000 -13.543000
N -5.423300 -20.998600 -9.279400
C -5.338800 -21.624200 -10.229300
C -5.250500 -22.462600 -11.411400
N -5.178600 -24.050100 -13.540600
C -4.610500 -24.348000 -12.375700
N -4.595200 -23.615000 -11.267800
C -3.920800 -25.627600 -12.305900
N -3.371800 -26.626600 -12.265200
28
Fragment
H -11.713000 -19.665300 -12.735400
H -11.064200 -24.360200 -17.338600
H -11.031000 -20.659500 -14.544000
H -10.967800 -19.113100 -11.429800
C -10.819500 -19.568400 -12.294900
H -10.669000 -22.128900 -16.326000
C -10.511000 -21.472500 -14.375300
C -10.309100 -22.343700 -15.426200
N -10.272600 -20.890100 -12.015100
H -10.259800 -19.052700 -12.876300
C -10.111500 -24.246100 -17.547100
C -9.998300 -21.728600 -13.092200
H -9.975300 -23.358400 -17.938900
H -9.804700 -24.930400 -18.189400
H -9.767700 -20.329100 -10.172500
H -9.597200 -21.901100 -10.423000
C -9.574200 -23.530900 -15.269700
C -9.461000 -21.013400 -10.814800
H -9.312700 -26.206800 -15.485600
N -9.299900 -24.369400 -16.346800
C -9.263400 -22.915800 -12.935700
C -9.061500 -23.787000 -13.986600
H -8.903500 -23.130600 -12.035800
C -8.753000 -25.691100 -16.067000
H -8.604600 -26.146400 -16.932000
H -8.541500 -24.600000 -13.817900
H -8.508300 -20.899300 -11.023300
H -7.859500 -25.594200 -15.626500
48
Fragment
N -8.814300 -18.632900 -16.096700
C -8.265300 -19.631900 -16.055900
N -7.590900 -21.644500 -17.094100
C -7.575600 -20.911500 -15.986200
N -7.007500 -21.209400 -14.821300
C -6.935600 -22.796900 -16.950500
C -6.847200 -23.635300 -18.132600
N -6.762800 -24.260900 -19.082400
C -6.411100 -22.409500 -14.818900
N -6.318800 -23.242600 -15.855800
N -5.867300 -22.016900 -12.506100
C -5.775000 -22.850000 -13.543000
N -5.423300 -20.998600 -9.279400
C -5.338800 -21.624200 -10.229300
C -5.250500 -22.462600 -11.411400
N -5.178600 -24.050100 -13.540600
C -4.610500 -24.348000 -12.375700
N -4.595200 -23.615000 -11.267800
C -3.920800 -25.627600 -12.305900
N -3.371800 -26.626600 -12.265200
H -11.713000 -19.665300 -12.735400
H -11.064200 -24.360200 -17.338600
H -11.031000 -20.659500 -14.544000
H -10.967800 -19.113100 -11.429800
C -10.819500 -19.568400 -12.294900
H -10.669000 -22.128900 -16.326000
C -10.511000 -21.472500 -14.375300
C -10.309100 -22.343700 -15.426200
N -10.272600 -20.890100 -12.015100
H -10.259800 -19.052700 -12.876300
C -10.111500 -24.246100 -17.547100
C -9.998300 -21.728600 -13.092200
H -9.975300 -23.358400 -17.938900
H -9.804700 -24.930400 -18.189400
H -9.767700 -20.329100 -10.172500
H -9.597200 -21.901100 -10.423000
C -9.574200 -23.530900 -15.269700
C -9.461000 -21.013400 -10.814800
H -9.312700 -26.206800 -15.485600
N -9.299900 -24.369400 -16.346800
C -9.263400 -22.915800 -12.935700
C -9.061500 -23.787000 -13.986600
H -8.903500 -23.130600 -12.035800
C -8.753000 -25.691100 -16.067000
H -8.604600 -26.146400 -16.932000
H -8.541500 -24.600000 -13.817900
H -8.508300 -20.899300 -11.023300
H -7.859500 -25.594200 -15.626500
