20
Fragment
N -8.814300 -18.632900 -16.096700
C -8.265300 -19.631900 -16.055900
N -7.590900 -21.644500 -17.094100
C -7.575600 -20.911500 -15.986200
N -7.007500 -21.209400 -14.821300
C -6.935600 -22.796900 -16.950500
C -6.847200 -23.635300 -18.132600
N -6.762800 -24.260900 -19.082400
C -6.411100 -22.409500 -14.818900
N -6.318800 -23.242600 -15.855800
N -5.867300 -22.016900 -12.506100
C -5.775000 -22.850000 -13.543000
N -5.423300 -20.998600 -9.279400
C -5.338800 -21.624200 -10.229300
C -5.250500 -22.462600 -11.411400
N -5.178600 -24.050100 -13.540600
C -4.610500 -24.348000 -12.375700
N -4.595200 -23.615000 -11.267800
C -3.920800 -25.627600 -12.305900
N -3.371800 -26.626600 -12.265200
28
Fragment
H -8.019800 -18.051000 -12.735400
H -7.371000 -13.356100 -17.338600
H -7.337800 -17.056800 -14.544000
H -7.274600 -18.603200 -11.429800
C -7.126300 -18.147900 -12.294900
H -6.975800 -15.587400 -16.326000
C -6.817800 -16.243800 -14.375300
C -6.615900 -15.372500 -15.426200
N -6.579400 -16.826100 -12.015100
H -6.566600 -18.663500 -12.876300
C -6.418300 -13.470100 -17.547100
C -6.305100 -15.987600 -13.092200
H -6.282100 -14.357800 -17.938900
H -6.111500 -12.785800 -18.189400
H -6.074500 -17.387200 -10.172500
H -5.904000 -15.815200 -10.423000
C -5.881000 -14.185400 -15.269700
C -5.767800 -16.702900 -10.814800
H -5.619500 -11.509500 -15.485600
N -5.606700 -13.346900 -16.346800
C -5.570200 -14.800500 -12.935700
C -5.368300 -13.929200 -13.986600
H -5.210300 -14.585600 -12.035800
C -5.059800 -12.025100 -16.067000
H -4.911400 -11.569800 -16.932000
H -4.848300 -13.116200 -13.817900
H -4.815100 -16.816900 -11.023300
H -4.166300 -12.122000 -15.626500
48
Fragment
N -8.814300 -18.632900 -16.096700
C -8.265300 -19.631900 -16.055900
N -7.590900 -21.644500 -17.094100
C -7.575600 -20.911500 -15.986200
N -7.007500 -21.209400 -14.821300
C -6.935600 -22.796900 -16.950500
C -6.847200 -23.635300 -18.132600
N -6.762800 -24.260900 -19.082400
C -6.411100 -22.409500 -14.818900
N -6.318800 -23.242600 -15.855800
N -5.867300 -22.016900 -12.506100
C -5.775000 -22.850000 -13.543000
N -5.423300 -20.998600 -9.279400
C -5.338800 -21.624200 -10.229300
C -5.250500 -22.462600 -11.411400
N -5.178600 -24.050100 -13.540600
C -4.610500 -24.348000 -12.375700
N -4.595200 -23.615000 -11.267800
C -3.920800 -25.627600 -12.305900
N -3.371800 -26.626600 -12.265200
H -8.019800 -18.051000 -12.735400
H -7.371000 -13.356100 -17.338600
H -7.337800 -17.056800 -14.544000
H -7.274600 -18.603200 -11.429800
C -7.126300 -18.147900 -12.294900
H -6.975800 -15.587400 -16.326000
C -6.817800 -16.243800 -14.375300
C -6.615900 -15.372500 -15.426200
N -6.579400 -16.826100 -12.015100
H -6.566600 -18.663500 -12.876300
C -6.418300 -13.470100 -17.547100
C -6.305100 -15.987600 -13.092200
H -6.282100 -14.357800 -17.938900
H -6.111500 -12.785800 -18.189400
H -6.074500 -17.387200 -10.172500
H -5.904000 -15.815200 -10.423000
C -5.881000 -14.185400 -15.269700
C -5.767800 -16.702900 -10.814800
H -5.619500 -11.509500 -15.485600
N -5.606700 -13.346900 -16.346800
C -5.570200 -14.800500 -12.935700
C -5.368300 -13.929200 -13.986600
H -5.210300 -14.585600 -12.035800
C -5.059800 -12.025100 -16.067000
H -4.911400 -11.569800 -16.932000
H -4.848300 -13.116200 -13.817900
H -4.815100 -16.816900 -11.023300
H -4.166300 -12.122000 -15.626500
