20
Fragment
N -8.814300 -18.632900 -16.096700
C -8.265300 -19.631900 -16.055900
N -7.590900 -21.644500 -17.094100
C -7.575600 -20.911500 -15.986200
N -7.007500 -21.209400 -14.821300
C -6.935600 -22.796900 -16.950500
C -6.847200 -23.635300 -18.132600
N -6.762800 -24.260900 -19.082400
C -6.411100 -22.409500 -14.818900
N -6.318800 -23.242600 -15.855800
N -5.867300 -22.016900 -12.506100
C -5.775000 -22.850000 -13.543000
N -5.423300 -20.998600 -9.279400
C -5.338800 -21.624200 -10.229300
C -5.250500 -22.462600 -11.411400
N -5.178600 -24.050100 -13.540600
C -4.610500 -24.348000 -12.375700
N -4.595200 -23.615000 -11.267800
C -3.920800 -25.627600 -12.305900
N -3.371800 -26.626600 -12.265200
20
Fragment
N -5.983300 -19.083400 -6.642700
C -5.434300 -18.084300 -6.602000
N -4.759900 -16.071800 -7.640100
C -4.744600 -16.804700 -6.532200
N -4.176500 -16.506900 -5.367300
C -4.104700 -14.919300 -7.496500
C -4.016300 -14.081000 -8.678600
N -3.931900 -13.455300 -9.628500
C -3.580200 -15.306800 -5.364900
N -3.487800 -14.473700 -6.401800
N -3.036400 -15.699300 -3.052100
C -2.944000 -14.866200 -4.089000
N -2.592300 -16.717700 0.174500
C -2.507900 -16.092000 -0.775300
C -2.419500 -15.253700 -1.957400
N -2.347600 -13.666100 -4.086700
C -1.779600 -13.368300 -2.921700
N -1.764300 -14.101200 -1.813800
C -1.089800 -12.088700 -2.852000
N -0.540800 -11.089600 -2.811200
40
Fragment
N -8.814300 -18.632900 -16.096700
C -8.265300 -19.631900 -16.055900
N -7.590900 -21.644500 -17.094100
C -7.575600 -20.911500 -15.986200
N -7.007500 -21.209400 -14.821300
C -6.935600 -22.796900 -16.950500
C -6.847200 -23.635300 -18.132600
N -6.762800 -24.260900 -19.082400
C -6.411100 -22.409500 -14.818900
N -6.318800 -23.242600 -15.855800
N -5.867300 -22.016900 -12.506100
C -5.775000 -22.850000 -13.543000
N -5.423300 -20.998600 -9.279400
C -5.338800 -21.624200 -10.229300
C -5.250500 -22.462600 -11.411400
N -5.178600 -24.050100 -13.540600
C -4.610500 -24.348000 -12.375700
N -4.595200 -23.615000 -11.267800
C -3.920800 -25.627600 -12.305900
N -3.371800 -26.626600 -12.265200
N -5.983300 -19.083400 -6.642700
C -5.434300 -18.084300 -6.602000
N -4.759900 -16.071800 -7.640100
C -4.744600 -16.804700 -6.532200
N -4.176500 -16.506900 -5.367300
C -4.104700 -14.919300 -7.496500
C -4.016300 -14.081000 -8.678600
N -3.931900 -13.455300 -9.628500
C -3.580200 -15.306800 -5.364900
N -3.487800 -14.473700 -6.401800
N -3.036400 -15.699300 -3.052100
C -2.944000 -14.866200 -4.089000
N -2.592300 -16.717700 0.174500
C -2.507900 -16.092000 -0.775300
C -2.419500 -15.253700 -1.957400
N -2.347600 -13.666100 -4.086700
C -1.779600 -13.368300 -2.921700
N -1.764300 -14.101200 -1.813800
C -1.089800 -12.088700 -2.852000
N -0.540800 -11.089600 -2.811200
