20
Fragment
N -8.814300 -18.632900 -16.096700
C -8.265300 -19.631900 -16.055900
N -7.590900 -21.644500 -17.094100
C -7.575600 -20.911500 -15.986200
N -7.007500 -21.209400 -14.821300
C -6.935600 -22.796900 -16.950500
C -6.847200 -23.635300 -18.132600
N -6.762800 -24.260900 -19.082400
C -6.411100 -22.409500 -14.818900
N -6.318800 -23.242600 -15.855800
N -5.867300 -22.016900 -12.506100
C -5.775000 -22.850000 -13.543000
N -5.423300 -20.998600 -9.279400
C -5.338800 -21.624200 -10.229300
C -5.250500 -22.462600 -11.411400
N -5.178600 -24.050100 -13.540600
C -4.610500 -24.348000 -12.375700
N -4.595200 -23.615000 -11.267800
C -3.920800 -25.627600 -12.305900
N -3.371800 -26.626600 -12.265200
20
Fragment
N -5.983300 -34.169900 -6.642700
C -5.434300 -33.170800 -6.602000
N -4.759900 -31.158300 -7.640100
C -4.744600 -31.891200 -6.532200
N -4.176500 -31.593400 -5.367300
C -4.104700 -30.005800 -7.496500
C -4.016300 -29.167500 -8.678600
N -3.931900 -28.541800 -9.628500
C -3.580200 -30.393300 -5.364900
N -3.487800 -29.560200 -6.401800
N -3.036400 -30.785800 -3.052100
C -2.944000 -29.952700 -4.089000
N -2.592300 -31.804200 0.174500
C -2.507900 -31.178500 -0.775300
C -2.419500 -30.340200 -1.957400
N -2.347600 -28.752600 -4.086700
C -1.779600 -28.454800 -2.921700
N -1.764300 -29.187700 -1.813800
C -1.089800 -27.175200 -2.852000
N -0.540800 -26.176100 -2.811200
40
Fragment
N -8.814300 -18.632900 -16.096700
C -8.265300 -19.631900 -16.055900
N -7.590900 -21.644500 -17.094100
C -7.575600 -20.911500 -15.986200
N -7.007500 -21.209400 -14.821300
C -6.935600 -22.796900 -16.950500
C -6.847200 -23.635300 -18.132600
N -6.762800 -24.260900 -19.082400
C -6.411100 -22.409500 -14.818900
N -6.318800 -23.242600 -15.855800
N -5.867300 -22.016900 -12.506100
C -5.775000 -22.850000 -13.543000
N -5.423300 -20.998600 -9.279400
C -5.338800 -21.624200 -10.229300
C -5.250500 -22.462600 -11.411400
N -5.178600 -24.050100 -13.540600
C -4.610500 -24.348000 -12.375700
N -4.595200 -23.615000 -11.267800
C -3.920800 -25.627600 -12.305900
N -3.371800 -26.626600 -12.265200
N -5.983300 -34.169900 -6.642700
C -5.434300 -33.170800 -6.602000
N -4.759900 -31.158300 -7.640100
C -4.744600 -31.891200 -6.532200
N -4.176500 -31.593400 -5.367300
C -4.104700 -30.005800 -7.496500
C -4.016300 -29.167500 -8.678600
N -3.931900 -28.541800 -9.628500
C -3.580200 -30.393300 -5.364900
N -3.487800 -29.560200 -6.401800
N -3.036400 -30.785800 -3.052100
C -2.944000 -29.952700 -4.089000
N -2.592300 -31.804200 0.174500
C -2.507900 -31.178500 -0.775300
C -2.419500 -30.340200 -1.957400
N -2.347600 -28.752600 -4.086700
C -1.779600 -28.454800 -2.921700
N -1.764300 -29.187700 -1.813800
C -1.089800 -27.175200 -2.852000
N -0.540800 -26.176100 -2.811200
