24
Fragment
H -12.385800 -10.308400 -20.362600
H -12.017000 -10.330200 -22.638500
C -11.518800 -10.327900 -20.698800
C -11.297300 -10.338500 -22.048700
H -10.562300 -10.340700 -18.927700
H -10.524400 -10.305400 -24.527400
C -10.443200 -10.347400 -19.850300
H -10.246800 -10.329400 -26.721000
C -10.003300 -10.361500 -22.538100
C -9.773500 -10.357300 -23.980300
H -9.675300 -10.253700 -28.958600
C -9.352600 -10.336200 -26.977900
C -9.177800 -10.376700 -20.400900
C -9.013600 -10.295700 -28.307000
N -8.938300 -10.385600 -21.706300
C -8.599900 -10.420200 -24.580100
H -8.449400 -10.391000 -19.822300
C -8.346600 -10.388400 -26.019100
H -7.854700 -10.493000 -24.029400
C -7.685000 -10.315900 -28.667200
H -7.429800 -10.294200 -29.562100
N -7.050100 -10.405900 -26.365200
C -6.751000 -10.370000 -27.666600
H -5.853200 -10.382000 -27.908800
24
Fragment
H -15.273700 -12.125500 -29.564000
C -14.375900 -12.137500 -29.806100
N -14.076800 -12.101600 -31.107500
H -13.697100 -12.213300 -27.910700
C -13.441900 -12.191600 -28.805500
H -13.272100 -12.014500 -33.443400
C -12.780300 -12.119100 -31.453700
H -12.677400 -12.116500 -37.650400
C -12.527000 -12.087300 -32.892600
N -12.188600 -12.121900 -35.766400
C -12.113300 -12.211800 -29.165700
C -11.949100 -12.130800 -37.071800
C -11.774300 -12.171300 -30.494800
H -11.451600 -12.253800 -28.514100
C -11.353400 -12.150200 -33.492400
C -11.123600 -12.146000 -34.934600
H -10.880100 -12.178100 -30.751700
C -10.683700 -12.160100 -37.622400
H -10.602500 -12.202100 -32.945300
H -10.564600 -12.166800 -38.545100
C -9.829500 -12.169000 -35.424100
C -9.608000 -12.179600 -36.773900
H -9.109900 -12.177300 -34.834200
H -8.741100 -12.199100 -37.110100
48
Fragment
H -12.385800 -10.308400 -20.362600
H -12.017000 -10.330200 -22.638500
C -11.518800 -10.327900 -20.698800
C -11.297300 -10.338500 -22.048700
H -10.562300 -10.340700 -18.927700
H -10.524400 -10.305400 -24.527400
C -10.443200 -10.347400 -19.850300
H -10.246800 -10.329400 -26.721000
C -10.003300 -10.361500 -22.538100
C -9.773500 -10.357300 -23.980300
H -9.675300 -10.253700 -28.958600
C -9.352600 -10.336200 -26.977900
C -9.177800 -10.376700 -20.400900
C -9.013600 -10.295700 -28.307000
N -8.938300 -10.385600 -21.706300
C -8.599900 -10.420200 -24.580100
H -8.449400 -10.391000 -19.822300
C -8.346600 -10.388400 -26.019100
H -7.854700 -10.493000 -24.029400
C -7.685000 -10.315900 -28.667200
H -7.429800 -10.294200 -29.562100
N -7.050100 -10.405900 -26.365200
C -6.751000 -10.370000 -27.666600
H -5.853200 -10.382000 -27.908800
H -15.273700 -12.125500 -29.564000
C -14.375900 -12.137500 -29.806100
N -14.076800 -12.101600 -31.107500
H -13.697100 -12.213300 -27.910700
C -13.441900 -12.191600 -28.805500
H -13.272100 -12.014500 -33.443400
C -12.780300 -12.119100 -31.453700
H -12.677400 -12.116500 -37.650400
C -12.527000 -12.087300 -32.892600
N -12.188600 -12.121900 -35.766400
C -12.113300 -12.211800 -29.165700
C -11.949100 -12.130800 -37.071800
C -11.774300 -12.171300 -30.494800
H -11.451600 -12.253800 -28.514100
C -11.353400 -12.150200 -33.492400
C -11.123600 -12.146000 -34.934600
H -10.880100 -12.178100 -30.751700
C -10.683700 -12.160100 -37.622400
H -10.602500 -12.202100 -32.945300
H -10.564600 -12.166800 -38.545100
C -9.829500 -12.169000 -35.424100
C -9.608000 -12.179600 -36.773900
H -9.109900 -12.177300 -34.834200
H -8.741100 -12.199100 -37.110100
