24
Fragment
H -12.385800 -10.308400 -20.362600
H -12.017000 -10.330200 -22.638500
C -11.518800 -10.327900 -20.698800
C -11.297300 -10.338500 -22.048700
H -10.562300 -10.340700 -18.927700
H -10.524400 -10.305400 -24.527400
C -10.443200 -10.347400 -19.850300
H -10.246800 -10.329400 -26.721000
C -10.003300 -10.361500 -22.538100
C -9.773500 -10.357300 -23.980300
H -9.675300 -10.253700 -28.958600
C -9.352600 -10.336200 -26.977900
C -9.177800 -10.376700 -20.400900
C -9.013600 -10.295700 -28.307000
N -8.938300 -10.385600 -21.706300
C -8.599900 -10.420200 -24.580100
H -8.449400 -10.391000 -19.822300
C -8.346600 -10.388400 -26.019100
H -7.854700 -10.493000 -24.029400
C -7.685000 -10.315900 -28.667200
H -7.429800 -10.294200 -29.562100
N -7.050100 -10.405900 -26.365200
C -6.751000 -10.370000 -27.666600
H -5.853200 -10.382000 -27.908800
24
Fragment
H -5.248900 -8.447800 -29.941400
H -4.880200 -8.426100 -32.217300
C -4.382000 -8.428300 -30.277600
C -4.160500 -8.417700 -31.627400
H -3.425500 -8.415600 -28.506500
H -3.387500 -8.450800 -34.106200
C -3.306300 -8.408800 -29.429100
H -3.109900 -8.426800 -36.299800
C -2.866400 -8.394800 -32.116900
C -2.636600 -8.399000 -33.559100
H -2.538400 -8.502600 -38.537400
C -2.215700 -8.420100 -36.556700
C -2.040900 -8.379500 -29.979700
C -1.876700 -8.460600 -37.885800
N -1.801500 -8.370600 -31.285100
C -1.463100 -8.336000 -34.158900
H -1.312600 -8.365300 -29.401100
C -1.209700 -8.367800 -35.597800
H -0.717900 -8.263300 -33.608100
C -0.548100 -8.440300 -38.246000
H -0.292900 -8.462100 -39.140900
N 0.086700 -8.350400 -35.944000
C 0.385800 -8.386300 -37.245400
H 1.283700 -8.374300 -37.487600
48
Fragment
H -12.385800 -10.308400 -20.362600
H -12.017000 -10.330200 -22.638500
C -11.518800 -10.327900 -20.698800
C -11.297300 -10.338500 -22.048700
H -10.562300 -10.340700 -18.927700
H -10.524400 -10.305400 -24.527400
C -10.443200 -10.347400 -19.850300
H -10.246800 -10.329400 -26.721000
C -10.003300 -10.361500 -22.538100
C -9.773500 -10.357300 -23.980300
H -9.675300 -10.253700 -28.958600
C -9.352600 -10.336200 -26.977900
C -9.177800 -10.376700 -20.400900
C -9.013600 -10.295700 -28.307000
N -8.938300 -10.385600 -21.706300
C -8.599900 -10.420200 -24.580100
H -8.449400 -10.391000 -19.822300
C -8.346600 -10.388400 -26.019100
H -7.854700 -10.493000 -24.029400
C -7.685000 -10.315900 -28.667200
H -7.429800 -10.294200 -29.562100
N -7.050100 -10.405900 -26.365200
C -6.751000 -10.370000 -27.666600
H -5.853200 -10.382000 -27.908800
H -5.248900 -8.447800 -29.941400
H -4.880200 -8.426100 -32.217300
C -4.382000 -8.428300 -30.277600
C -4.160500 -8.417700 -31.627400
H -3.425500 -8.415600 -28.506500
H -3.387500 -8.450800 -34.106200
C -3.306300 -8.408800 -29.429100
H -3.109900 -8.426800 -36.299800
C -2.866400 -8.394800 -32.116900
C -2.636600 -8.399000 -33.559100
H -2.538400 -8.502600 -38.537400
C -2.215700 -8.420100 -36.556700
C -2.040900 -8.379500 -29.979700
C -1.876700 -8.460600 -37.885800
N -1.801500 -8.370600 -31.285100
C -1.463100 -8.336000 -34.158900
H -1.312600 -8.365300 -29.401100
C -1.209700 -8.367800 -35.597800
H -0.717900 -8.263300 -33.608100
C -0.548100 -8.440300 -38.246000
H -0.292900 -8.462100 -39.140900
N 0.086700 -8.350400 -35.944000
C 0.385800 -8.386300 -37.245400
H 1.283700 -8.374300 -37.487600
