24
Fragment
H -12.385800 -10.308400 -20.362600
H -12.017000 -10.330200 -22.638500
C -11.518800 -10.327900 -20.698800
C -11.297300 -10.338500 -22.048700
H -10.562300 -10.340700 -18.927700
H -10.524400 -10.305400 -24.527400
C -10.443200 -10.347400 -19.850300
H -10.246800 -10.329400 -26.721000
C -10.003300 -10.361500 -22.538100
C -9.773500 -10.357300 -23.980300
H -9.675300 -10.253700 -28.958600
C -9.352600 -10.336200 -26.977900
C -9.177800 -10.376700 -20.400900
C -9.013600 -10.295700 -28.307000
N -8.938300 -10.385600 -21.706300
C -8.599900 -10.420200 -24.580100
H -8.449400 -10.391000 -19.822300
C -8.346600 -10.388400 -26.019100
H -7.854700 -10.493000 -24.029400
C -7.685000 -10.315900 -28.667200
H -7.429800 -10.294200 -29.562100
N -7.050100 -10.405900 -26.365200
C -6.751000 -10.370000 -27.666600
H -5.853200 -10.382000 -27.908800
8
Fragment
O -15.338800 -14.100000 -22.400400
C -14.098600 -14.091400 -22.419900
H -13.815100 -12.199100 -22.299400
H -13.781400 -15.981100 -22.489100
N -13.402700 -12.951500 -22.356100
N -13.382400 -15.219400 -22.470100
H -12.542600 -12.971100 -22.372200
H -12.522700 -15.182800 -22.483300
32
Fragment
H -12.385800 -10.308400 -20.362600
H -12.017000 -10.330200 -22.638500
C -11.518800 -10.327900 -20.698800
C -11.297300 -10.338500 -22.048700
H -10.562300 -10.340700 -18.927700
H -10.524400 -10.305400 -24.527400
C -10.443200 -10.347400 -19.850300
H -10.246800 -10.329400 -26.721000
C -10.003300 -10.361500 -22.538100
C -9.773500 -10.357300 -23.980300
H -9.675300 -10.253700 -28.958600
C -9.352600 -10.336200 -26.977900
C -9.177800 -10.376700 -20.400900
C -9.013600 -10.295700 -28.307000
N -8.938300 -10.385600 -21.706300
C -8.599900 -10.420200 -24.580100
H -8.449400 -10.391000 -19.822300
C -8.346600 -10.388400 -26.019100
H -7.854700 -10.493000 -24.029400
C -7.685000 -10.315900 -28.667200
H -7.429800 -10.294200 -29.562100
N -7.050100 -10.405900 -26.365200
C -6.751000 -10.370000 -27.666600
H -5.853200 -10.382000 -27.908800
O -15.338800 -14.100000 -22.400400
C -14.098600 -14.091400 -22.419900
H -13.815100 -12.199100 -22.299400
H -13.781400 -15.981100 -22.489100
N -13.402700 -12.951500 -22.356100
N -13.382400 -15.219400 -22.470100
H -12.542600 -12.971100 -22.372200
H -12.522700 -15.182800 -22.483300
