24
Fragment
H -12.385800 -10.308400 -20.362600
H -12.017000 -10.330200 -22.638500
C -11.518800 -10.327900 -20.698800
C -11.297300 -10.338500 -22.048700
H -10.562300 -10.340700 -18.927700
H -10.524400 -10.305400 -24.527400
C -10.443200 -10.347400 -19.850300
H -10.246800 -10.329400 -26.721000
C -10.003300 -10.361500 -22.538100
C -9.773500 -10.357300 -23.980300
H -9.675300 -10.253700 -28.958600
C -9.352600 -10.336200 -26.977900
C -9.177800 -10.376700 -20.400900
C -9.013600 -10.295700 -28.307000
N -8.938300 -10.385600 -21.706300
C -8.599900 -10.420200 -24.580100
H -8.449400 -10.391000 -19.822300
C -8.346600 -10.388400 -26.019100
H -7.854700 -10.493000 -24.029400
C -7.685000 -10.315900 -28.667200
H -7.429800 -10.294200 -29.562100
N -7.050100 -10.405900 -26.365200
C -6.751000 -10.370000 -27.666600
H -5.853200 -10.382000 -27.908800
24
Fragment
H -11.752500 -14.133200 -19.985200
C -10.854700 -14.121200 -20.227300
N -10.555600 -14.157100 -21.528700
H -10.176000 -14.045400 -18.331900
C -9.920800 -14.067200 -19.226700
H -9.751000 -14.244200 -23.864600
C -9.259200 -14.139700 -21.874900
H -9.156300 -14.142200 -28.071600
C -9.005800 -14.171500 -23.313800
N -8.667400 -14.136900 -26.187600
C -8.592200 -14.046900 -19.586900
C -8.428000 -14.128000 -27.493000
C -8.253200 -14.087400 -20.916100
H -7.930500 -14.004900 -18.935400
C -7.832200 -14.108500 -23.913600
C -7.602500 -14.112700 -25.355800
H -7.359000 -14.080700 -21.173000
C -7.162500 -14.098700 -28.043600
H -7.081400 -14.056700 -23.366500
H -7.043400 -14.091900 -28.966300
C -6.308400 -14.089800 -25.845300
C -6.086900 -14.079200 -27.195100
H -5.588700 -14.081400 -25.255400
H -5.219900 -14.059700 -27.531400
48
Fragment
H -12.385800 -10.308400 -20.362600
H -12.017000 -10.330200 -22.638500
C -11.518800 -10.327900 -20.698800
C -11.297300 -10.338500 -22.048700
H -10.562300 -10.340700 -18.927700
H -10.524400 -10.305400 -24.527400
C -10.443200 -10.347400 -19.850300
H -10.246800 -10.329400 -26.721000
C -10.003300 -10.361500 -22.538100
C -9.773500 -10.357300 -23.980300
H -9.675300 -10.253700 -28.958600
C -9.352600 -10.336200 -26.977900
C -9.177800 -10.376700 -20.400900
C -9.013600 -10.295700 -28.307000
N -8.938300 -10.385600 -21.706300
C -8.599900 -10.420200 -24.580100
H -8.449400 -10.391000 -19.822300
C -8.346600 -10.388400 -26.019100
H -7.854700 -10.493000 -24.029400
C -7.685000 -10.315900 -28.667200
H -7.429800 -10.294200 -29.562100
N -7.050100 -10.405900 -26.365200
C -6.751000 -10.370000 -27.666600
H -5.853200 -10.382000 -27.908800
H -11.752500 -14.133200 -19.985200
C -10.854700 -14.121200 -20.227300
N -10.555600 -14.157100 -21.528700
H -10.176000 -14.045400 -18.331900
C -9.920800 -14.067200 -19.226700
H -9.751000 -14.244200 -23.864600
C -9.259200 -14.139700 -21.874900
H -9.156300 -14.142200 -28.071600
C -9.005800 -14.171500 -23.313800
N -8.667400 -14.136900 -26.187600
C -8.592200 -14.046900 -19.586900
C -8.428000 -14.128000 -27.493000
C -8.253200 -14.087400 -20.916100
H -7.930500 -14.004900 -18.935400
C -7.832200 -14.108500 -23.913600
C -7.602500 -14.112700 -25.355800
H -7.359000 -14.080700 -21.173000
C -7.162500 -14.098700 -28.043600
H -7.081400 -14.056700 -23.366500
H -7.043400 -14.091900 -28.966300
C -6.308400 -14.089800 -25.845300
C -6.086900 -14.079200 -27.195100
H -5.588700 -14.081400 -25.255400
H -5.219900 -14.059700 -27.531400
