24
Fragment
H -20.805900 -26.244900 -28.127700
H -20.689900 -24.523600 -29.671700
C -20.522400 -25.396800 -27.868600
C -20.457800 -24.372400 -28.783300
H -20.286900 -22.195700 -30.220200
H -20.180800 -25.832300 -25.949300
C -20.166600 -25.152200 -26.584400
C -20.046300 -23.115000 -28.378100
H -20.021400 -20.561500 -31.772000
C -19.966600 -22.027700 -29.363100
H -19.792000 -18.684900 -33.097300
C -19.785000 -23.883300 -26.239500
C -19.709400 -19.768000 -31.401300
N -19.705100 -22.856900 -27.088400
C -19.576000 -18.627200 -32.194800
H -19.566500 -23.724800 -25.350000
C -19.476200 -20.843800 -29.118100
C -19.374200 -19.709200 -30.054400
H -19.156000 -20.700000 -28.256500
N -19.152500 -17.465000 -31.713400
C -18.915400 -18.497000 -29.582800
C -18.818900 -17.424300 -30.436800
H -18.671700 -18.405600 -28.689800
H -18.498600 -16.621400 -30.095200
8
Fragment
H -21.332700 -19.727000 -25.707200
N -20.573100 -20.127900 -25.757600
H -20.543100 -20.983300 -25.836100
O -19.437400 -18.184200 -25.600700
C -19.433700 -19.416300 -25.713700
H -18.320700 -20.974900 -25.859500
N -18.293900 -20.119300 -25.781000
H -17.535900 -19.714400 -25.746300
32
Fragment
H -20.805900 -26.244900 -28.127700
H -20.689900 -24.523600 -29.671700
C -20.522400 -25.396800 -27.868600
C -20.457800 -24.372400 -28.783300
H -20.286900 -22.195700 -30.220200
H -20.180800 -25.832300 -25.949300
C -20.166600 -25.152200 -26.584400
C -20.046300 -23.115000 -28.378100
H -20.021400 -20.561500 -31.772000
C -19.966600 -22.027700 -29.363100
H -19.792000 -18.684900 -33.097300
C -19.785000 -23.883300 -26.239500
C -19.709400 -19.768000 -31.401300
N -19.705100 -22.856900 -27.088400
C -19.576000 -18.627200 -32.194800
H -19.566500 -23.724800 -25.350000
C -19.476200 -20.843800 -29.118100
C -19.374200 -19.709200 -30.054400
H -19.156000 -20.700000 -28.256500
N -19.152500 -17.465000 -31.713400
C -18.915400 -18.497000 -29.582800
C -18.818900 -17.424300 -30.436800
H -18.671700 -18.405600 -28.689800
H -18.498600 -16.621400 -30.095200
H -21.332700 -19.727000 -25.707200
N -20.573100 -20.127900 -25.757600
H -20.543100 -20.983300 -25.836100
O -19.437400 -18.184200 -25.600700
C -19.433700 -19.416300 -25.713700
H -18.320700 -20.974900 -25.859500
N -18.293900 -20.119300 -25.781000
H -17.535900 -19.714400 -25.746300
