24
Fragment
H -20.805900 -26.244900 -28.127700
H -20.689900 -24.523600 -29.671700
C -20.522400 -25.396800 -27.868600
C -20.457800 -24.372400 -28.783300
H -20.286900 -22.195700 -30.220200
H -20.180800 -25.832300 -25.949300
C -20.166600 -25.152200 -26.584400
C -20.046300 -23.115000 -28.378100
H -20.021400 -20.561500 -31.772000
C -19.966600 -22.027700 -29.363100
H -19.792000 -18.684900 -33.097300
C -19.785000 -23.883300 -26.239500
C -19.709400 -19.768000 -31.401300
N -19.705100 -22.856900 -27.088400
C -19.576000 -18.627200 -32.194800
H -19.566500 -23.724800 -25.350000
C -19.476200 -20.843800 -29.118100
C -19.374200 -19.709200 -30.054400
H -19.156000 -20.700000 -28.256500
N -19.152500 -17.465000 -31.713400
C -18.915400 -18.497000 -29.582800
C -18.818900 -17.424300 -30.436800
H -18.671700 -18.405600 -28.689800
H -18.498600 -16.621400 -30.095200
24
Fragment
H -24.562900 -25.362200 -28.463400
H -24.389800 -23.577900 -29.868800
C -24.242600 -24.559200 -28.121800
C -24.146200 -23.486600 -28.975800
N -23.909100 -24.518600 -26.845200
H -23.905500 -21.283600 -30.302100
C -23.687300 -22.274300 -28.504200
C -23.585300 -21.139800 -29.440500
H -23.495100 -18.258800 -33.208600
C -23.485600 -23.356400 -26.363900
N -23.356500 -19.126600 -31.470200
C -23.352200 -22.215500 -27.157300
C -23.276500 -18.100300 -32.319100
H -23.269500 -23.298700 -25.461300
C -23.095000 -19.955900 -29.195600
H -23.040100 -21.422100 -26.786700
C -23.015300 -18.868500 -30.180500
C -22.895000 -16.831300 -31.974200
H -22.880700 -16.151200 -32.609300
H -22.774600 -19.787900 -28.338500
C -22.603700 -17.611100 -29.775300
C -22.539200 -16.586800 -30.690000
H -22.371700 -17.460000 -28.887000
H -22.255700 -15.738700 -30.431000
48
Fragment
H -20.805900 -26.244900 -28.127700
H -20.689900 -24.523600 -29.671700
C -20.522400 -25.396800 -27.868600
C -20.457800 -24.372400 -28.783300
H -20.286900 -22.195700 -30.220200
H -20.180800 -25.832300 -25.949300
C -20.166600 -25.152200 -26.584400
C -20.046300 -23.115000 -28.378100
H -20.021400 -20.561500 -31.772000
C -19.966600 -22.027700 -29.363100
H -19.792000 -18.684900 -33.097300
C -19.785000 -23.883300 -26.239500
C -19.709400 -19.768000 -31.401300
N -19.705100 -22.856900 -27.088400
C -19.576000 -18.627200 -32.194800
H -19.566500 -23.724800 -25.350000
C -19.476200 -20.843800 -29.118100
C -19.374200 -19.709200 -30.054400
H -19.156000 -20.700000 -28.256500
N -19.152500 -17.465000 -31.713400
C -18.915400 -18.497000 -29.582800
C -18.818900 -17.424300 -30.436800
H -18.671700 -18.405600 -28.689800
H -18.498600 -16.621400 -30.095200
H -24.562900 -25.362200 -28.463400
H -24.389800 -23.577900 -29.868800
C -24.242600 -24.559200 -28.121800
C -24.146200 -23.486600 -28.975800
N -23.909100 -24.518600 -26.845200
H -23.905500 -21.283600 -30.302100
C -23.687300 -22.274300 -28.504200
C -23.585300 -21.139800 -29.440500
H -23.495100 -18.258800 -33.208600
C -23.485600 -23.356400 -26.363900
N -23.356500 -19.126600 -31.470200
C -23.352200 -22.215500 -27.157300
C -23.276500 -18.100300 -32.319100
H -23.269500 -23.298700 -25.461300
C -23.095000 -19.955900 -29.195600
H -23.040100 -21.422100 -26.786700
C -23.015300 -18.868500 -30.180500
C -22.895000 -16.831300 -31.974200
H -22.880700 -16.151200 -32.609300
H -22.774600 -19.787900 -28.338500
C -22.603700 -17.611100 -29.775300
C -22.539200 -16.586800 -30.690000
H -22.371700 -17.460000 -28.887000
H -22.255700 -15.738700 -30.431000
