35
Fragment
H -6.584900 -5.070400 -12.511200
H -6.542300 -7.021700 -13.683200
H -6.536600 -13.591400 -9.051600
C -6.317100 -13.116500 -9.821400
H -6.293900 -11.328700 -8.968900
H -6.215800 -14.703600 -11.054300
C -6.174400 -11.770600 -9.778900
C -6.133100 -13.777600 -11.022100
C -5.858000 -11.037000 -10.903800
C -5.827600 -13.081500 -12.171100
C -5.817400 -5.319600 -12.974200
C -5.791100 -6.473400 -13.674000
H -5.757100 -10.114500 -10.859000
H -5.715200 -13.525100 -12.980000
C -5.693900 -11.710500 -12.091800
N -5.384500 -10.957900 -13.273000
N -5.262900 -9.636700 -13.248800
N -5.194500 -11.582300 -14.462200
C -4.970600 -9.347100 -14.534600
C -4.923800 -10.535800 -15.242300
C -4.677000 -4.492400 -12.947800
H -4.675500 -3.703300 -12.457200
C -4.647800 -6.856000 -14.386300
C -4.646000 -8.110000 -15.147000
H -4.643900 -11.331000 -17.003700
N -4.626700 -10.580600 -16.583200
C -4.331100 -8.192000 -16.471700
C -4.305600 -9.436400 -17.246100
C -4.028900 -7.011800 -17.242700
O -4.015500 -9.464400 -18.442200
N -3.795100 -6.087600 -17.863100
C -3.577700 -4.863100 -13.645200
C -3.524200 -6.031300 -14.371400
H -2.830900 -4.307600 -13.634900
H -2.756000 -6.264100 -14.841300
35
Fragment
H -4.469700 -16.098400 -12.511200
H -4.427100 -18.049600 -13.683200
H -4.421400 -24.619400 -9.051600
C -4.201800 -24.144400 -9.821400
H -4.178600 -22.356600 -8.968900
H -4.100500 -25.731600 -11.054300
C -4.059200 -22.798500 -9.778900
C -4.017800 -24.805600 -11.022100
C -3.742700 -22.064900 -10.903800
C -3.712400 -24.109500 -12.171100
C -3.702100 -16.347500 -12.974200
C -3.675800 -17.501300 -13.674000
H -3.641800 -21.142400 -10.859000
H -3.599900 -24.553000 -12.980000
C -3.578600 -22.738400 -12.091800
N -3.269300 -21.985800 -13.273000
N -3.147700 -20.664600 -13.248800
N -3.079200 -22.610300 -14.462200
C -2.855300 -20.375000 -14.534600
C -2.808500 -21.563800 -15.242300
C -2.561700 -15.520300 -12.947800
H -2.560200 -14.731300 -12.457200
C -2.532600 -17.884000 -14.386300
C -2.530700 -19.138000 -15.147000
H -2.528600 -22.359000 -17.003700
N -2.511400 -21.608600 -16.583200
C -2.215800 -19.219900 -16.471700
C -2.190400 -20.464300 -17.246100
C -1.913600 -18.039800 -17.242700
O -1.900300 -20.492300 -18.442200
N -1.679900 -17.115600 -17.863100
C -1.462400 -15.891100 -13.645200
C -1.408900 -17.059300 -14.371400
H -0.715700 -15.335600 -13.634900
H -0.640700 -17.292100 -14.841300
70
Fragment
H -6.584900 -5.070400 -12.511200
H -6.542300 -7.021700 -13.683200
H -6.536600 -13.591400 -9.051600
C -6.317100 -13.116500 -9.821400
H -6.293900 -11.328700 -8.968900
H -6.215800 -14.703600 -11.054300
C -6.174400 -11.770600 -9.778900
C -6.133100 -13.777600 -11.022100
C -5.858000 -11.037000 -10.903800
C -5.827600 -13.081500 -12.171100
C -5.817400 -5.319600 -12.974200
C -5.791100 -6.473400 -13.674000
H -5.757100 -10.114500 -10.859000
H -5.715200 -13.525100 -12.980000
C -5.693900 -11.710500 -12.091800
N -5.384500 -10.957900 -13.273000
N -5.262900 -9.636700 -13.248800
N -5.194500 -11.582300 -14.462200
C -4.970600 -9.347100 -14.534600
C -4.923800 -10.535800 -15.242300
C -4.677000 -4.492400 -12.947800
H -4.675500 -3.703300 -12.457200
C -4.647800 -6.856000 -14.386300
C -4.646000 -8.110000 -15.147000
H -4.643900 -11.331000 -17.003700
N -4.626700 -10.580600 -16.583200
C -4.331100 -8.192000 -16.471700
C -4.305600 -9.436400 -17.246100
C -4.028900 -7.011800 -17.242700
O -4.015500 -9.464400 -18.442200
N -3.795100 -6.087600 -17.863100
C -3.577700 -4.863100 -13.645200
C -3.524200 -6.031300 -14.371400
H -2.830900 -4.307600 -13.634900
H -2.756000 -6.264100 -14.841300
H -4.469700 -16.098400 -12.511200
H -4.427100 -18.049600 -13.683200
H -4.421400 -24.619400 -9.051600
C -4.201800 -24.144400 -9.821400
H -4.178600 -22.356600 -8.968900
H -4.100500 -25.731600 -11.054300
C -4.059200 -22.798500 -9.778900
C -4.017800 -24.805600 -11.022100
C -3.742700 -22.064900 -10.903800
C -3.712400 -24.109500 -12.171100
C -3.702100 -16.347500 -12.974200
C -3.675800 -17.501300 -13.674000
H -3.641800 -21.142400 -10.859000
H -3.599900 -24.553000 -12.980000
C -3.578600 -22.738400 -12.091800
N -3.269300 -21.985800 -13.273000
N -3.147700 -20.664600 -13.248800
N -3.079200 -22.610300 -14.462200
C -2.855300 -20.375000 -14.534600
C -2.808500 -21.563800 -15.242300
C -2.561700 -15.520300 -12.947800
H -2.560200 -14.731300 -12.457200
C -2.532600 -17.884000 -14.386300
C -2.530700 -19.138000 -15.147000
H -2.528600 -22.359000 -17.003700
N -2.511400 -21.608600 -16.583200
C -2.215800 -19.219900 -16.471700
C -2.190400 -20.464300 -17.246100
C -1.913600 -18.039800 -17.242700
O -1.900300 -20.492300 -18.442200
N -1.679900 -17.115600 -17.863100
C -1.462400 -15.891100 -13.645200
C -1.408900 -17.059300 -14.371400
H -0.715700 -15.335600 -13.634900
H -0.640700 -17.292100 -14.841300
