35
Fragment
H -6.584900 -5.070400 -12.511200
H -6.542300 -7.021700 -13.683200
H -6.536600 -13.591400 -9.051600
C -6.317100 -13.116500 -9.821400
H -6.293900 -11.328700 -8.968900
H -6.215800 -14.703600 -11.054300
C -6.174400 -11.770600 -9.778900
C -6.133100 -13.777600 -11.022100
C -5.858000 -11.037000 -10.903800
C -5.827600 -13.081500 -12.171100
C -5.817400 -5.319600 -12.974200
C -5.791100 -6.473400 -13.674000
H -5.757100 -10.114500 -10.859000
H -5.715200 -13.525100 -12.980000
C -5.693900 -11.710500 -12.091800
N -5.384500 -10.957900 -13.273000
N -5.262900 -9.636700 -13.248800
N -5.194500 -11.582300 -14.462200
C -4.970600 -9.347100 -14.534600
C -4.923800 -10.535800 -15.242300
C -4.677000 -4.492400 -12.947800
H -4.675500 -3.703300 -12.457200
C -4.647800 -6.856000 -14.386300
C -4.646000 -8.110000 -15.147000
H -4.643900 -11.331000 -17.003700
N -4.626700 -10.580600 -16.583200
C -4.331100 -8.192000 -16.471700
C -4.305600 -9.436400 -17.246100
C -4.028900 -7.011800 -17.242700
O -4.015500 -9.464400 -18.442200
N -3.795100 -6.087600 -17.863100
C -3.577700 -4.863100 -13.645200
C -3.524200 -6.031300 -14.371400
H -2.830900 -4.307600 -13.634900
H -2.756000 -6.264100 -14.841300
35
Fragment
H -1.839200 5.957500 -12.511200
H -1.796600 4.006300 -13.683200
H -1.790900 -2.563500 -9.051600
C -1.571300 -2.088500 -9.821400
H -1.548100 -0.300700 -8.968900
H -1.470100 -3.675700 -11.054300
C -1.428700 -0.742600 -9.778900
C -1.387300 -2.749600 -11.022100
C -1.112200 -0.009000 -10.903800
C -1.081900 -2.053600 -12.171100
C -1.071600 5.708400 -12.974200
C -1.045300 4.554600 -13.674000
H -1.011300 0.913500 -10.859000
H -0.969500 -2.497100 -12.980000
C -0.948200 -0.682500 -12.091800
N -0.638800 0.070100 -13.273000
N -0.517200 1.391300 -13.248800
N -0.448700 -0.554300 -14.462200
C -0.224800 1.680900 -14.534600
C -0.178000 0.492200 -15.242300
C 0.068800 6.535600 -12.947800
H 0.070200 7.324700 -12.457200
C 0.097900 4.171900 -14.386300
C 0.099700 2.917900 -15.147000
H 0.101900 -0.303100 -17.003700
N 0.119000 0.447300 -16.583200
C 0.414700 2.836000 -16.471700
C 0.440100 1.591600 -17.246100
C 0.716900 4.016200 -17.242700
O 0.730200 1.563600 -18.442200
N 0.950600 4.940400 -17.863100
C 1.168100 6.164900 -13.645200
C 1.221600 4.996600 -14.371400
H 1.914800 6.720400 -13.634900
H 1.989800 4.763900 -14.841300
70
Fragment
H -6.584900 -5.070400 -12.511200
H -6.542300 -7.021700 -13.683200
H -6.536600 -13.591400 -9.051600
C -6.317100 -13.116500 -9.821400
H -6.293900 -11.328700 -8.968900
H -6.215800 -14.703600 -11.054300
C -6.174400 -11.770600 -9.778900
C -6.133100 -13.777600 -11.022100
C -5.858000 -11.037000 -10.903800
C -5.827600 -13.081500 -12.171100
C -5.817400 -5.319600 -12.974200
C -5.791100 -6.473400 -13.674000
H -5.757100 -10.114500 -10.859000
H -5.715200 -13.525100 -12.980000
C -5.693900 -11.710500 -12.091800
N -5.384500 -10.957900 -13.273000
N -5.262900 -9.636700 -13.248800
N -5.194500 -11.582300 -14.462200
C -4.970600 -9.347100 -14.534600
C -4.923800 -10.535800 -15.242300
C -4.677000 -4.492400 -12.947800
H -4.675500 -3.703300 -12.457200
C -4.647800 -6.856000 -14.386300
C -4.646000 -8.110000 -15.147000
H -4.643900 -11.331000 -17.003700
N -4.626700 -10.580600 -16.583200
C -4.331100 -8.192000 -16.471700
C -4.305600 -9.436400 -17.246100
C -4.028900 -7.011800 -17.242700
O -4.015500 -9.464400 -18.442200
N -3.795100 -6.087600 -17.863100
C -3.577700 -4.863100 -13.645200
C -3.524200 -6.031300 -14.371400
H -2.830900 -4.307600 -13.634900
H -2.756000 -6.264100 -14.841300
H -1.839200 5.957500 -12.511200
H -1.796600 4.006300 -13.683200
H -1.790900 -2.563500 -9.051600
C -1.571300 -2.088500 -9.821400
H -1.548100 -0.300700 -8.968900
H -1.470100 -3.675700 -11.054300
C -1.428700 -0.742600 -9.778900
C -1.387300 -2.749600 -11.022100
C -1.112200 -0.009000 -10.903800
C -1.081900 -2.053600 -12.171100
C -1.071600 5.708400 -12.974200
C -1.045300 4.554600 -13.674000
H -1.011300 0.913500 -10.859000
H -0.969500 -2.497100 -12.980000
C -0.948200 -0.682500 -12.091800
N -0.638800 0.070100 -13.273000
N -0.517200 1.391300 -13.248800
N -0.448700 -0.554300 -14.462200
C -0.224800 1.680900 -14.534600
C -0.178000 0.492200 -15.242300
C 0.068800 6.535600 -12.947800
H 0.070200 7.324700 -12.457200
C 0.097900 4.171900 -14.386300
C 0.099700 2.917900 -15.147000
H 0.101900 -0.303100 -17.003700
N 0.119000 0.447300 -16.583200
C 0.414700 2.836000 -16.471700
C 0.440100 1.591600 -17.246100
C 0.716900 4.016200 -17.242700
O 0.730200 1.563600 -18.442200
N 0.950600 4.940400 -17.863100
C 1.168100 6.164900 -13.645200
C 1.221600 4.996600 -14.371400
H 1.914800 6.720400 -13.634900
H 1.989800 4.763900 -14.841300
