35
Fragment
H -6.584900 -5.070400 -12.511200
H -6.542300 -7.021700 -13.683200
H -6.536600 -13.591400 -9.051600
C -6.317100 -13.116500 -9.821400
H -6.293900 -11.328700 -8.968900
H -6.215800 -14.703600 -11.054300
C -6.174400 -11.770600 -9.778900
C -6.133100 -13.777600 -11.022100
C -5.858000 -11.037000 -10.903800
C -5.827600 -13.081500 -12.171100
C -5.817400 -5.319600 -12.974200
C -5.791100 -6.473400 -13.674000
H -5.757100 -10.114500 -10.859000
H -5.715200 -13.525100 -12.980000
C -5.693900 -11.710500 -12.091800
N -5.384500 -10.957900 -13.273000
N -5.262900 -9.636700 -13.248800
N -5.194500 -11.582300 -14.462200
C -4.970600 -9.347100 -14.534600
C -4.923800 -10.535800 -15.242300
C -4.677000 -4.492400 -12.947800
H -4.675500 -3.703300 -12.457200
C -4.647800 -6.856000 -14.386300
C -4.646000 -8.110000 -15.147000
H -4.643900 -11.331000 -17.003700
N -4.626700 -10.580600 -16.583200
C -4.331100 -8.192000 -16.471700
C -4.305600 -9.436400 -17.246100
C -4.028900 -7.011800 -17.242700
O -4.015500 -9.464400 -18.442200
N -3.795100 -6.087600 -17.863100
C -3.577700 -4.863100 -13.645200
C -3.524200 -6.031300 -14.371400
H -2.830900 -4.307600 -13.634900
H -2.756000 -6.264100 -14.841300
35
Fragment
H -5.380700 -16.361600 -8.138200
H -5.305700 -18.318100 -9.344600
C -4.612500 -16.594400 -8.608100
C -4.559000 -17.762600 -9.334300
N -4.341500 -16.538100 -5.116400
O -4.121100 -13.161300 -4.537300
C -4.107800 -15.613900 -5.736800
C -3.831000 -13.189400 -5.733400
C -3.805600 -14.433800 -6.507800
N -3.510000 -12.045100 -6.396400
H -3.492800 -11.294700 -5.975800
C -3.490600 -14.515700 -7.832600
C -3.488800 -15.769700 -8.593200
H -3.461200 -18.922400 -10.522300
C -3.459700 -18.133300 -10.031700
C -3.212900 -12.089900 -7.737200
C -3.166100 -13.278600 -8.445000
N -2.942200 -11.043400 -8.517400
N -2.873700 -12.989100 -9.730700
N -2.752100 -11.667900 -9.706600
C -2.442800 -10.915300 -10.887700
H -2.421500 -9.100600 -9.999500
H -2.379600 -12.511300 -12.120600
C -2.345600 -16.152400 -9.305600
C -2.319300 -17.306100 -10.005300
C -2.309000 -9.544200 -10.808400
C -2.278700 -11.588800 -12.075700
C -2.003600 -8.848100 -11.957400
C -1.962200 -10.855200 -13.200600
H -1.920900 -7.922100 -11.925200
H -1.842800 -11.297100 -14.010600
C -1.819600 -9.509200 -13.158100
H -1.600000 -9.034300 -13.927900
H -1.594300 -15.604000 -9.296400
H -1.551700 -17.555300 -10.468300
70
Fragment
H -6.584900 -5.070400 -12.511200
H -6.542300 -7.021700 -13.683200
H -6.536600 -13.591400 -9.051600
C -6.317100 -13.116500 -9.821400
H -6.293900 -11.328700 -8.968900
H -6.215800 -14.703600 -11.054300
C -6.174400 -11.770600 -9.778900
C -6.133100 -13.777600 -11.022100
C -5.858000 -11.037000 -10.903800
C -5.827600 -13.081500 -12.171100
C -5.817400 -5.319600 -12.974200
C -5.791100 -6.473400 -13.674000
H -5.757100 -10.114500 -10.859000
H -5.715200 -13.525100 -12.980000
C -5.693900 -11.710500 -12.091800
N -5.384500 -10.957900 -13.273000
N -5.262900 -9.636700 -13.248800
N -5.194500 -11.582300 -14.462200
C -4.970600 -9.347100 -14.534600
C -4.923800 -10.535800 -15.242300
C -4.677000 -4.492400 -12.947800
H -4.675500 -3.703300 -12.457200
C -4.647800 -6.856000 -14.386300
C -4.646000 -8.110000 -15.147000
H -4.643900 -11.331000 -17.003700
N -4.626700 -10.580600 -16.583200
C -4.331100 -8.192000 -16.471700
C -4.305600 -9.436400 -17.246100
C -4.028900 -7.011800 -17.242700
O -4.015500 -9.464400 -18.442200
N -3.795100 -6.087600 -17.863100
C -3.577700 -4.863100 -13.645200
C -3.524200 -6.031300 -14.371400
H -2.830900 -4.307600 -13.634900
H -2.756000 -6.264100 -14.841300
H -5.380700 -16.361600 -8.138200
H -5.305700 -18.318100 -9.344600
C -4.612500 -16.594400 -8.608100
C -4.559000 -17.762600 -9.334300
N -4.341500 -16.538100 -5.116400
O -4.121100 -13.161300 -4.537300
C -4.107800 -15.613900 -5.736800
C -3.831000 -13.189400 -5.733400
C -3.805600 -14.433800 -6.507800
N -3.510000 -12.045100 -6.396400
H -3.492800 -11.294700 -5.975800
C -3.490600 -14.515700 -7.832600
C -3.488800 -15.769700 -8.593200
H -3.461200 -18.922400 -10.522300
C -3.459700 -18.133300 -10.031700
C -3.212900 -12.089900 -7.737200
C -3.166100 -13.278600 -8.445000
N -2.942200 -11.043400 -8.517400
N -2.873700 -12.989100 -9.730700
N -2.752100 -11.667900 -9.706600
C -2.442800 -10.915300 -10.887700
H -2.421500 -9.100600 -9.999500
H -2.379600 -12.511300 -12.120600
C -2.345600 -16.152400 -9.305600
C -2.319300 -17.306100 -10.005300
C -2.309000 -9.544200 -10.808400
C -2.278700 -11.588800 -12.075700
C -2.003600 -8.848100 -11.957400
C -1.962200 -10.855200 -13.200600
H -1.920900 -7.922100 -11.925200
H -1.842800 -11.297100 -14.010600
C -1.819600 -9.509200 -13.158100
H -1.600000 -9.034300 -13.927900
H -1.594300 -15.604000 -9.296400
H -1.551700 -17.555300 -10.468300
