35
Fragment
H -6.584900 -5.070400 -12.511200
H -6.542300 -7.021700 -13.683200
H -6.536600 -13.591400 -9.051600
C -6.317100 -13.116500 -9.821400
H -6.293900 -11.328700 -8.968900
H -6.215800 -14.703600 -11.054300
C -6.174400 -11.770600 -9.778900
C -6.133100 -13.777600 -11.022100
C -5.858000 -11.037000 -10.903800
C -5.827600 -13.081500 -12.171100
C -5.817400 -5.319600 -12.974200
C -5.791100 -6.473400 -13.674000
H -5.757100 -10.114500 -10.859000
H -5.715200 -13.525100 -12.980000
C -5.693900 -11.710500 -12.091800
N -5.384500 -10.957900 -13.273000
N -5.262900 -9.636700 -13.248800
N -5.194500 -11.582300 -14.462200
C -4.970600 -9.347100 -14.534600
C -4.923800 -10.535800 -15.242300
C -4.677000 -4.492400 -12.947800
H -4.675500 -3.703300 -12.457200
C -4.647800 -6.856000 -14.386300
C -4.646000 -8.110000 -15.147000
H -4.643900 -11.331000 -17.003700
N -4.626700 -10.580600 -16.583200
C -4.331100 -8.192000 -16.471700
C -4.305600 -9.436400 -17.246100
C -4.028900 -7.011800 -17.242700
O -4.015500 -9.464400 -18.442200
N -3.795100 -6.087600 -17.863100
C -3.577700 -4.863100 -13.645200
C -3.524200 -6.031300 -14.371400
H -2.830900 -4.307600 -13.634900
H -2.756000 -6.264100 -14.841300
35
Fragment
H -9.191400 -11.132500 -19.628000
H -9.116500 -13.089000 -20.834400
C -8.423200 -11.365300 -20.097900
C -8.369700 -12.533500 -20.824000
N -8.152300 -11.309000 -16.606200
O -7.931900 -7.932300 -16.027100
C -7.918500 -10.384800 -17.226600
C -7.641800 -7.960300 -17.223200
C -7.616300 -9.204700 -17.997600
N -7.320700 -6.816000 -17.886100
H -7.303500 -6.065600 -17.465600
C -7.301400 -9.286600 -19.322300
C -7.299600 -10.540600 -20.083000
H -7.271900 -13.693300 -22.012100
C -7.270400 -12.904300 -21.521500
C -7.023600 -6.860800 -19.227000
C -6.976800 -8.049500 -19.934700
N -6.752900 -5.814300 -20.007100
N -6.684500 -7.760000 -21.220400
N -6.562900 -6.438800 -21.196300
C -6.253500 -5.686200 -22.377500
H -6.232200 -3.871600 -21.489300
H -6.190300 -7.282200 -23.610300
C -6.156300 -10.923300 -20.795300
C -6.130000 -12.077100 -21.495000
C -6.119800 -4.315100 -22.298200
C -6.089400 -6.359700 -23.565500
C -5.814300 -3.619000 -23.447200
C -5.772900 -5.626100 -24.690400
H -5.731600 -2.693000 -23.415000
H -5.653500 -6.068000 -25.500400
C -5.630300 -4.280200 -24.647800
H -5.410800 -3.805200 -25.417700
H -5.405100 -10.375000 -20.786100
H -5.362500 -12.326200 -21.958100
70
Fragment
H -6.584900 -5.070400 -12.511200
H -6.542300 -7.021700 -13.683200
H -6.536600 -13.591400 -9.051600
C -6.317100 -13.116500 -9.821400
H -6.293900 -11.328700 -8.968900
H -6.215800 -14.703600 -11.054300
C -6.174400 -11.770600 -9.778900
C -6.133100 -13.777600 -11.022100
C -5.858000 -11.037000 -10.903800
C -5.827600 -13.081500 -12.171100
C -5.817400 -5.319600 -12.974200
C -5.791100 -6.473400 -13.674000
H -5.757100 -10.114500 -10.859000
H -5.715200 -13.525100 -12.980000
C -5.693900 -11.710500 -12.091800
N -5.384500 -10.957900 -13.273000
N -5.262900 -9.636700 -13.248800
N -5.194500 -11.582300 -14.462200
C -4.970600 -9.347100 -14.534600
C -4.923800 -10.535800 -15.242300
C -4.677000 -4.492400 -12.947800
H -4.675500 -3.703300 -12.457200
C -4.647800 -6.856000 -14.386300
C -4.646000 -8.110000 -15.147000
H -4.643900 -11.331000 -17.003700
N -4.626700 -10.580600 -16.583200
C -4.331100 -8.192000 -16.471700
C -4.305600 -9.436400 -17.246100
C -4.028900 -7.011800 -17.242700
O -4.015500 -9.464400 -18.442200
N -3.795100 -6.087600 -17.863100
C -3.577700 -4.863100 -13.645200
C -3.524200 -6.031300 -14.371400
H -2.830900 -4.307600 -13.634900
H -2.756000 -6.264100 -14.841300
H -9.191400 -11.132500 -19.628000
H -9.116500 -13.089000 -20.834400
C -8.423200 -11.365300 -20.097900
C -8.369700 -12.533500 -20.824000
N -8.152300 -11.309000 -16.606200
O -7.931900 -7.932300 -16.027100
C -7.918500 -10.384800 -17.226600
C -7.641800 -7.960300 -17.223200
C -7.616300 -9.204700 -17.997600
N -7.320700 -6.816000 -17.886100
H -7.303500 -6.065600 -17.465600
C -7.301400 -9.286600 -19.322300
C -7.299600 -10.540600 -20.083000
H -7.271900 -13.693300 -22.012100
C -7.270400 -12.904300 -21.521500
C -7.023600 -6.860800 -19.227000
C -6.976800 -8.049500 -19.934700
N -6.752900 -5.814300 -20.007100
N -6.684500 -7.760000 -21.220400
N -6.562900 -6.438800 -21.196300
C -6.253500 -5.686200 -22.377500
H -6.232200 -3.871600 -21.489300
H -6.190300 -7.282200 -23.610300
C -6.156300 -10.923300 -20.795300
C -6.130000 -12.077100 -21.495000
C -6.119800 -4.315100 -22.298200
C -6.089400 -6.359700 -23.565500
C -5.814300 -3.619000 -23.447200
C -5.772900 -5.626100 -24.690400
H -5.731600 -2.693000 -23.415000
H -5.653500 -6.068000 -25.500400
C -5.630300 -4.280200 -24.647800
H -5.410800 -3.805200 -25.417700
H -5.405100 -10.375000 -20.786100
H -5.362500 -12.326200 -21.958100
