12
Fragment
O -5.881000 -18.305800 -19.393700
O -5.864700 -13.831900 -22.280900
N -5.255400 -15.830600 -20.528200
N -4.888600 -13.662800 -21.562700
N -4.887100 -17.712500 -19.001900
C -4.575100 -16.441700 -19.573200
C -4.543000 -14.728000 -20.636100
O -4.185100 -12.680700 -21.583700
O -4.124900 -18.163800 -18.146900
N -3.530000 -15.723100 -19.156100
N -3.488000 -14.586900 -19.845100
H -3.001700 -15.567100 -18.651100
12
Fragment
O -8.349500 -5.054200 -23.947300
O -8.333200 -9.528100 -21.060100
N -7.723900 -7.529400 -22.812800
N -7.357100 -9.697200 -21.778300
N -7.355600 -5.647500 -24.339100
C -7.043600 -6.918300 -23.767800
C -7.011500 -8.632000 -22.704900
O -6.653600 -10.679300 -21.757300
O -6.593400 -5.196200 -25.194100
N -5.998500 -7.636900 -24.184900
N -5.956500 -8.773100 -23.495900
H -5.470200 -7.792900 -24.689900
24
Fragment
O -5.881000 -18.305800 -19.393700
O -5.864700 -13.831900 -22.280900
N -5.255400 -15.830600 -20.528200
N -4.888600 -13.662800 -21.562700
N -4.887100 -17.712500 -19.001900
C -4.575100 -16.441700 -19.573200
C -4.543000 -14.728000 -20.636100
O -4.185100 -12.680700 -21.583700
O -4.124900 -18.163800 -18.146900
N -3.530000 -15.723100 -19.156100
N -3.488000 -14.586900 -19.845100
H -3.001700 -15.567100 -18.651100
O -8.349500 -5.054200 -23.947300
O -8.333200 -9.528100 -21.060100
N -7.723900 -7.529400 -22.812800
N -7.357100 -9.697200 -21.778300
N -7.355600 -5.647500 -24.339100
C -7.043600 -6.918300 -23.767800
C -7.011500 -8.632000 -22.704900
O -6.653600 -10.679300 -21.757300
O -6.593400 -5.196200 -25.194100
N -5.998500 -7.636900 -24.184900
N -5.956500 -8.773100 -23.495900
H -5.470200 -7.792900 -24.689900
