12
Fragment
O -5.881000 -18.305800 -19.393700
O -5.864700 -13.831900 -22.280900
N -5.255400 -15.830600 -20.528200
N -4.888600 -13.662800 -21.562700
N -4.887100 -17.712500 -19.001900
C -4.575100 -16.441700 -19.573200
C -4.543000 -14.728000 -20.636100
O -4.185100 -12.680700 -21.583700
O -4.124900 -18.163800 -18.146900
N -3.530000 -15.723100 -19.156100
N -3.488000 -14.586900 -19.845100
H -3.001700 -15.567100 -18.651100
12
Fragment
H -1.935300 -10.895100 -17.466400
N -1.449000 -9.914900 -16.272400
N -1.407000 -11.051100 -16.961400
O -0.812100 -13.491800 -17.970600
O -0.751900 -8.008700 -14.533800
C -0.394000 -10.056000 -15.481400
C -0.361900 -11.769700 -16.544300
N -0.049900 -13.040500 -17.115600
N -0.048400 -8.990800 -14.554800
N 0.318400 -11.158600 -15.589300
O 0.927700 -9.159900 -13.836600
O 0.944000 -13.633800 -16.723800
24
Fragment
O -5.881000 -18.305800 -19.393700
O -5.864700 -13.831900 -22.280900
N -5.255400 -15.830600 -20.528200
N -4.888600 -13.662800 -21.562700
N -4.887100 -17.712500 -19.001900
C -4.575100 -16.441700 -19.573200
C -4.543000 -14.728000 -20.636100
O -4.185100 -12.680700 -21.583700
O -4.124900 -18.163800 -18.146900
N -3.530000 -15.723100 -19.156100
N -3.488000 -14.586900 -19.845100
H -3.001700 -15.567100 -18.651100
H -1.935300 -10.895100 -17.466400
N -1.449000 -9.914900 -16.272400
N -1.407000 -11.051100 -16.961400
O -0.812100 -13.491800 -17.970600
O -0.751900 -8.008700 -14.533800
C -0.394000 -10.056000 -15.481400
C -0.361900 -11.769700 -16.544300
N -0.049900 -13.040500 -17.115600
N -0.048400 -8.990800 -14.554800
N 0.318400 -11.158600 -15.589300
O 0.927700 -9.159900 -13.836600
O 0.944000 -13.633800 -16.723800
