12
Fragment
O -5.881000 -18.305800 -19.393700
O -5.864700 -13.831900 -22.280900
N -5.255400 -15.830600 -20.528200
N -4.888600 -13.662800 -21.562700
N -4.887100 -17.712500 -19.001900
C -4.575100 -16.441700 -19.573200
C -4.543000 -14.728000 -20.636100
O -4.185100 -12.680700 -21.583700
O -4.124900 -18.163800 -18.146900
N -3.530000 -15.723100 -19.156100
N -3.488000 -14.586900 -19.845100
H -3.001700 -15.567100 -18.651100
12
Fragment
O -0.944000 -18.305800 -19.393700
O -0.927700 -13.831900 -22.280900
N -0.318400 -15.830600 -20.528200
N 0.048400 -13.662800 -21.562700
N 0.049900 -17.712500 -19.001900
C 0.361900 -16.441700 -19.573200
C 0.394000 -14.728000 -20.636100
O 0.751900 -12.680700 -21.583700
O 0.812100 -18.163800 -18.146900
N 1.407000 -15.723100 -19.156100
N 1.449000 -14.586900 -19.845100
H 1.935300 -15.567100 -18.651100
24
Fragment
O -5.881000 -18.305800 -19.393700
O -5.864700 -13.831900 -22.280900
N -5.255400 -15.830600 -20.528200
N -4.888600 -13.662800 -21.562700
N -4.887100 -17.712500 -19.001900
C -4.575100 -16.441700 -19.573200
C -4.543000 -14.728000 -20.636100
O -4.185100 -12.680700 -21.583700
O -4.124900 -18.163800 -18.146900
N -3.530000 -15.723100 -19.156100
N -3.488000 -14.586900 -19.845100
H -3.001700 -15.567100 -18.651100
O -0.944000 -18.305800 -19.393700
O -0.927700 -13.831900 -22.280900
N -0.318400 -15.830600 -20.528200
N 0.048400 -13.662800 -21.562700
N 0.049900 -17.712500 -19.001900
C 0.361900 -16.441700 -19.573200
C 0.394000 -14.728000 -20.636100
O 0.751900 -12.680700 -21.583700
O 0.812100 -18.163800 -18.146900
N 1.407000 -15.723100 -19.156100
N 1.449000 -14.586900 -19.845100
H 1.935300 -15.567100 -18.651100
