12
Fragment
O -5.881000 -18.305800 -19.393700
O -5.864700 -13.831900 -22.280900
N -5.255400 -15.830600 -20.528200
N -4.888600 -13.662800 -21.562700
N -4.887100 -17.712500 -19.001900
C -4.575100 -16.441700 -19.573200
C -4.543000 -14.728000 -20.636100
O -4.185100 -12.680700 -21.583700
O -4.124900 -18.163800 -18.146900
N -3.530000 -15.723100 -19.156100
N -3.488000 -14.586900 -19.845100
H -3.001700 -15.567100 -18.651100
3
Fragment
H -3.352200 -10.923100 -19.575700
O -3.155700 -11.661300 -18.905200
H -2.754800 -12.268700 -19.373400
15
Fragment
O -5.881000 -18.305800 -19.393700
O -5.864700 -13.831900 -22.280900
N -5.255400 -15.830600 -20.528200
N -4.888600 -13.662800 -21.562700
N -4.887100 -17.712500 -19.001900
C -4.575100 -16.441700 -19.573200
C -4.543000 -14.728000 -20.636100
O -4.185100 -12.680700 -21.583700
O -4.124900 -18.163800 -18.146900
N -3.530000 -15.723100 -19.156100
N -3.488000 -14.586900 -19.845100
H -3.001700 -15.567100 -18.651100
H -3.352200 -10.923100 -19.575700
O -3.155700 -11.661300 -18.905200
H -2.754800 -12.268700 -19.373400
