36
Fragment
O -21.336300 -13.218500 -42.383900
O -21.326400 -15.628800 -40.529500
N -20.350500 -14.988100 -40.193100
H -20.331600 -15.759700 -42.610200
N -20.312900 -12.969500 -42.999700
O -20.202200 -14.389100 -39.156100
O -19.947500 -11.872200 -43.391700
C -19.508300 -15.243800 -42.481000
N -19.503300 -14.031800 -43.315400
N -19.272500 -14.978600 -41.081800
H -18.519900 -16.859300 -43.468400
C -18.261900 -16.012100 -43.048800
C -18.144700 -13.735300 -43.770500
H -18.141800 -13.188100 -44.583800
C -18.073200 -14.260900 -40.720600
N -18.050500 -12.951700 -41.405900
H -18.008400 -14.150700 -39.748900
O -17.738600 -11.961400 -39.412600
N -17.685000 -15.079700 -44.023300
N -17.682700 -11.816800 -40.607500
O -17.441800 -10.799500 -41.201600
N -17.420500 -15.522700 -45.322500
O -17.340800 -14.671500 -46.182600
N -17.321700 -16.214500 -41.980900
C -17.253300 -13.096100 -42.621200
O -17.207600 -16.711000 -45.440100
O -17.166600 -18.367900 -42.415700
H -16.862100 -12.242000 -42.900400
C -16.843500 -15.056100 -41.280200
N -16.687500 -17.443500 -41.809600
H -16.235200 -15.312900 -40.555900
N -16.230400 -14.026900 -42.140900
O -15.750100 -17.478300 -41.042200
N -15.244900 -14.399400 -43.045600
O -15.078500 -13.646500 -43.987800
O -14.630400 -15.415300 -42.802000
36
Fragment
O -27.303500 -13.218500 -36.206100
O -27.293600 -15.628800 -38.060500
N -26.317700 -14.988100 -38.396900
H -26.298800 -15.759700 -35.979800
N -26.280100 -12.969500 -35.590300
O -26.169400 -14.389100 -39.433900
O -25.914700 -11.872200 -35.198300
C -25.475500 -15.243800 -36.109000
N -25.470500 -14.031800 -35.274600
N -25.239700 -14.978600 -37.508200
H -24.487100 -16.859300 -35.121600
C -24.229100 -16.012100 -35.541200
C -24.111900 -13.735300 -34.819500
H -24.109000 -13.188100 -34.006200
C -24.040400 -14.260900 -37.869400
N -24.017700 -12.951700 -37.184100
H -23.975600 -14.150700 -38.841100
O -23.705800 -11.961400 -39.177400
N -23.652200 -15.079700 -34.566700
N -23.649900 -11.816800 -37.982500
O -23.409000 -10.799500 -37.388400
N -23.387700 -15.522700 -33.267500
O -23.308000 -14.671500 -32.407400
N -23.288900 -16.214500 -36.609100
C -23.220500 -13.096100 -35.968800
O -23.174800 -16.711000 -33.149900
O -23.133800 -18.367900 -36.174300
H -22.829300 -12.242000 -35.689600
C -22.810700 -15.056100 -37.309800
N -22.654700 -17.443500 -36.780400
H -22.202400 -15.312900 -38.034100
N -22.197600 -14.026900 -36.449100
O -21.717300 -17.478300 -37.547800
N -21.212100 -14.399400 -35.544400
O -21.045700 -13.646500 -34.602200
O -20.597600 -15.415300 -35.788000
72
Fragment
O -21.336300 -13.218500 -42.383900
O -21.326400 -15.628800 -40.529500
N -20.350500 -14.988100 -40.193100
H -20.331600 -15.759700 -42.610200
N -20.312900 -12.969500 -42.999700
O -20.202200 -14.389100 -39.156100
O -19.947500 -11.872200 -43.391700
C -19.508300 -15.243800 -42.481000
N -19.503300 -14.031800 -43.315400
N -19.272500 -14.978600 -41.081800
H -18.519900 -16.859300 -43.468400
C -18.261900 -16.012100 -43.048800
C -18.144700 -13.735300 -43.770500
H -18.141800 -13.188100 -44.583800
C -18.073200 -14.260900 -40.720600
N -18.050500 -12.951700 -41.405900
H -18.008400 -14.150700 -39.748900
O -17.738600 -11.961400 -39.412600
N -17.685000 -15.079700 -44.023300
N -17.682700 -11.816800 -40.607500
O -17.441800 -10.799500 -41.201600
N -17.420500 -15.522700 -45.322500
O -17.340800 -14.671500 -46.182600
N -17.321700 -16.214500 -41.980900
C -17.253300 -13.096100 -42.621200
O -17.207600 -16.711000 -45.440100
O -17.166600 -18.367900 -42.415700
H -16.862100 -12.242000 -42.900400
C -16.843500 -15.056100 -41.280200
N -16.687500 -17.443500 -41.809600
H -16.235200 -15.312900 -40.555900
N -16.230400 -14.026900 -42.140900
O -15.750100 -17.478300 -41.042200
N -15.244900 -14.399400 -43.045600
O -15.078500 -13.646500 -43.987800
O -14.630400 -15.415300 -42.802000
O -27.303500 -13.218500 -36.206100
O -27.293600 -15.628800 -38.060500
N -26.317700 -14.988100 -38.396900
H -26.298800 -15.759700 -35.979800
N -26.280100 -12.969500 -35.590300
O -26.169400 -14.389100 -39.433900
O -25.914700 -11.872200 -35.198300
C -25.475500 -15.243800 -36.109000
N -25.470500 -14.031800 -35.274600
N -25.239700 -14.978600 -37.508200
H -24.487100 -16.859300 -35.121600
C -24.229100 -16.012100 -35.541200
C -24.111900 -13.735300 -34.819500
H -24.109000 -13.188100 -34.006200
C -24.040400 -14.260900 -37.869400
N -24.017700 -12.951700 -37.184100
H -23.975600 -14.150700 -38.841100
O -23.705800 -11.961400 -39.177400
N -23.652200 -15.079700 -34.566700
N -23.649900 -11.816800 -37.982500
O -23.409000 -10.799500 -37.388400
N -23.387700 -15.522700 -33.267500
O -23.308000 -14.671500 -32.407400
N -23.288900 -16.214500 -36.609100
C -23.220500 -13.096100 -35.968800
O -23.174800 -16.711000 -33.149900
O -23.133800 -18.367900 -36.174300
H -22.829300 -12.242000 -35.689600
C -22.810700 -15.056100 -37.309800
N -22.654700 -17.443500 -36.780400
H -22.202400 -15.312900 -38.034100
N -22.197600 -14.026900 -36.449100
O -21.717300 -17.478300 -37.547800
N -21.212100 -14.399400 -35.544400
O -21.045700 -13.646500 -34.602200
O -20.597600 -15.415300 -35.788000
