36
Fragment
O -21.336300 -13.218500 -42.383900
O -21.326400 -15.628800 -40.529500
N -20.350500 -14.988100 -40.193100
H -20.331600 -15.759700 -42.610200
N -20.312900 -12.969500 -42.999700
O -20.202200 -14.389100 -39.156100
O -19.947500 -11.872200 -43.391700
C -19.508300 -15.243800 -42.481000
N -19.503300 -14.031800 -43.315400
N -19.272500 -14.978600 -41.081800
H -18.519900 -16.859300 -43.468400
C -18.261900 -16.012100 -43.048800
C -18.144700 -13.735300 -43.770500
H -18.141800 -13.188100 -44.583800
C -18.073200 -14.260900 -40.720600
N -18.050500 -12.951700 -41.405900
H -18.008400 -14.150700 -39.748900
O -17.738600 -11.961400 -39.412600
N -17.685000 -15.079700 -44.023300
N -17.682700 -11.816800 -40.607500
O -17.441800 -10.799500 -41.201600
N -17.420500 -15.522700 -45.322500
O -17.340800 -14.671500 -46.182600
N -17.321700 -16.214500 -41.980900
C -17.253300 -13.096100 -42.621200
O -17.207600 -16.711000 -45.440100
O -17.166600 -18.367900 -42.415700
H -16.862100 -12.242000 -42.900400
C -16.843500 -15.056100 -41.280200
N -16.687500 -17.443500 -41.809600
H -16.235200 -15.312900 -40.555900
N -16.230400 -14.026900 -42.140900
O -15.750100 -17.478300 -41.042200
N -15.244900 -14.399400 -43.045600
O -15.078500 -13.646500 -43.987800
O -14.630400 -15.415300 -42.802000
36
Fragment
O -27.140000 -9.944000 -42.802000
O -26.691900 -8.175200 -43.987800
N -26.525500 -8.928000 -43.045600
O -26.020300 -12.007000 -41.042200
N -25.540000 -8.555500 -42.140900
H -25.535200 -9.841500 -40.555900
N -25.082900 -11.972200 -41.809600
C -24.926900 -9.584700 -41.280200
H -24.908300 -6.770700 -42.900400
O -24.603800 -12.896500 -42.415700
O -24.562800 -11.239700 -45.440100
C -24.517100 -7.624800 -42.621200
N -24.448700 -10.743100 -41.980900
O -24.429600 -9.200200 -46.182600
N -24.349900 -10.051300 -45.322500
O -24.328600 -5.328100 -41.201600
N -24.087700 -6.345500 -40.607500
N -24.085400 -9.608300 -44.023300
O -24.031800 -6.490000 -39.412600
H -23.762000 -8.679300 -39.748900
N -23.719900 -7.480300 -41.405900
C -23.697200 -8.789500 -40.720600
H -23.628600 -7.716800 -44.583800
C -23.625700 -8.263900 -43.770500
C -23.508500 -10.540800 -43.048800
H -23.250500 -11.388000 -43.468400
N -22.497900 -9.507200 -41.081800
N -22.267100 -8.560500 -43.315400
C -22.262100 -9.772500 -42.481000
O -21.822900 -6.400800 -43.391700
O -21.568200 -8.917800 -39.156100
N -21.457500 -7.498200 -42.999700
H -21.438800 -10.288300 -42.610200
N -21.419900 -9.516800 -40.193100
O -20.444000 -10.157500 -40.529500
O -20.434100 -7.747100 -42.383900
72
Fragment
O -21.336300 -13.218500 -42.383900
O -21.326400 -15.628800 -40.529500
N -20.350500 -14.988100 -40.193100
H -20.331600 -15.759700 -42.610200
N -20.312900 -12.969500 -42.999700
O -20.202200 -14.389100 -39.156100
O -19.947500 -11.872200 -43.391700
C -19.508300 -15.243800 -42.481000
N -19.503300 -14.031800 -43.315400
N -19.272500 -14.978600 -41.081800
H -18.519900 -16.859300 -43.468400
C -18.261900 -16.012100 -43.048800
C -18.144700 -13.735300 -43.770500
H -18.141800 -13.188100 -44.583800
C -18.073200 -14.260900 -40.720600
N -18.050500 -12.951700 -41.405900
H -18.008400 -14.150700 -39.748900
O -17.738600 -11.961400 -39.412600
N -17.685000 -15.079700 -44.023300
N -17.682700 -11.816800 -40.607500
O -17.441800 -10.799500 -41.201600
N -17.420500 -15.522700 -45.322500
O -17.340800 -14.671500 -46.182600
N -17.321700 -16.214500 -41.980900
C -17.253300 -13.096100 -42.621200
O -17.207600 -16.711000 -45.440100
O -17.166600 -18.367900 -42.415700
H -16.862100 -12.242000 -42.900400
C -16.843500 -15.056100 -41.280200
N -16.687500 -17.443500 -41.809600
H -16.235200 -15.312900 -40.555900
N -16.230400 -14.026900 -42.140900
O -15.750100 -17.478300 -41.042200
N -15.244900 -14.399400 -43.045600
O -15.078500 -13.646500 -43.987800
O -14.630400 -15.415300 -42.802000
O -27.140000 -9.944000 -42.802000
O -26.691900 -8.175200 -43.987800
N -26.525500 -8.928000 -43.045600
O -26.020300 -12.007000 -41.042200
N -25.540000 -8.555500 -42.140900
H -25.535200 -9.841500 -40.555900
N -25.082900 -11.972200 -41.809600
C -24.926900 -9.584700 -41.280200
H -24.908300 -6.770700 -42.900400
O -24.603800 -12.896500 -42.415700
O -24.562800 -11.239700 -45.440100
C -24.517100 -7.624800 -42.621200
N -24.448700 -10.743100 -41.980900
O -24.429600 -9.200200 -46.182600
N -24.349900 -10.051300 -45.322500
O -24.328600 -5.328100 -41.201600
N -24.087700 -6.345500 -40.607500
N -24.085400 -9.608300 -44.023300
O -24.031800 -6.490000 -39.412600
H -23.762000 -8.679300 -39.748900
N -23.719900 -7.480300 -41.405900
C -23.697200 -8.789500 -40.720600
H -23.628600 -7.716800 -44.583800
C -23.625700 -8.263900 -43.770500
C -23.508500 -10.540800 -43.048800
H -23.250500 -11.388000 -43.468400
N -22.497900 -9.507200 -41.081800
N -22.267100 -8.560500 -43.315400
C -22.262100 -9.772500 -42.481000
O -21.822900 -6.400800 -43.391700
O -21.568200 -8.917800 -39.156100
N -21.457500 -7.498200 -42.999700
H -21.438800 -10.288300 -42.610200
N -21.419900 -9.516800 -40.193100
O -20.444000 -10.157500 -40.529500
O -20.434100 -7.747100 -42.383900
