36
Fragment
O -21.336300 -13.218500 -42.383900
O -21.326400 -15.628800 -40.529500
N -20.350500 -14.988100 -40.193100
H -20.331600 -15.759700 -42.610200
N -20.312900 -12.969500 -42.999700
O -20.202200 -14.389100 -39.156100
O -19.947500 -11.872200 -43.391700
C -19.508300 -15.243800 -42.481000
N -19.503300 -14.031800 -43.315400
N -19.272500 -14.978600 -41.081800
H -18.519900 -16.859300 -43.468400
C -18.261900 -16.012100 -43.048800
C -18.144700 -13.735300 -43.770500
H -18.141800 -13.188100 -44.583800
C -18.073200 -14.260900 -40.720600
N -18.050500 -12.951700 -41.405900
H -18.008400 -14.150700 -39.748900
O -17.738600 -11.961400 -39.412600
N -17.685000 -15.079700 -44.023300
N -17.682700 -11.816800 -40.607500
O -17.441800 -10.799500 -41.201600
N -17.420500 -15.522700 -45.322500
O -17.340800 -14.671500 -46.182600
N -17.321700 -16.214500 -41.980900
C -17.253300 -13.096100 -42.621200
O -17.207600 -16.711000 -45.440100
O -17.166600 -18.367900 -42.415700
H -16.862100 -12.242000 -42.900400
C -16.843500 -15.056100 -41.280200
N -16.687500 -17.443500 -41.809600
H -16.235200 -15.312900 -40.555900
N -16.230400 -14.026900 -42.140900
O -15.750100 -17.478300 -41.042200
N -15.244900 -14.399400 -43.045600
O -15.078500 -13.646500 -43.987800
O -14.630400 -15.415300 -42.802000
36
Fragment
O -21.336300 -24.161200 -42.383900
O -21.326400 -26.571500 -40.529500
N -20.350500 -25.930800 -40.193100
H -20.331600 -26.702400 -42.610200
N -20.312900 -23.912200 -42.999700
O -20.202200 -25.331800 -39.156100
O -19.947500 -22.814900 -43.391700
C -19.508300 -26.186500 -42.481000
N -19.503300 -24.974500 -43.315400
N -19.272500 -25.921300 -41.081800
H -18.519900 -27.802000 -43.468400
C -18.261900 -26.954800 -43.048800
C -18.144700 -24.678000 -43.770500
H -18.141800 -24.130800 -44.583800
C -18.073200 -25.203600 -40.720600
N -18.050500 -23.894400 -41.405900
H -18.008400 -25.093400 -39.748900
O -17.738600 -22.904100 -39.412600
N -17.685000 -26.022400 -44.023300
N -17.682700 -22.759500 -40.607500
O -17.441800 -21.742200 -41.201600
N -17.420500 -26.465400 -45.322500
O -17.340800 -25.614200 -46.182600
N -17.321700 -27.157200 -41.980900
C -17.253300 -24.038800 -42.621200
O -17.207600 -27.653700 -45.440100
O -17.166600 -29.310600 -42.415700
H -16.862100 -23.184700 -42.900400
C -16.843500 -25.998800 -41.280200
N -16.687500 -28.386200 -41.809600
H -16.235200 -26.255600 -40.555900
N -16.230400 -24.969600 -42.140900
O -15.750100 -28.421000 -41.042200
N -15.244900 -25.342100 -43.045600
O -15.078500 -24.589200 -43.987800
O -14.630400 -26.358000 -42.802000
72
Fragment
O -21.336300 -13.218500 -42.383900
O -21.326400 -15.628800 -40.529500
N -20.350500 -14.988100 -40.193100
H -20.331600 -15.759700 -42.610200
N -20.312900 -12.969500 -42.999700
O -20.202200 -14.389100 -39.156100
O -19.947500 -11.872200 -43.391700
C -19.508300 -15.243800 -42.481000
N -19.503300 -14.031800 -43.315400
N -19.272500 -14.978600 -41.081800
H -18.519900 -16.859300 -43.468400
C -18.261900 -16.012100 -43.048800
C -18.144700 -13.735300 -43.770500
H -18.141800 -13.188100 -44.583800
C -18.073200 -14.260900 -40.720600
N -18.050500 -12.951700 -41.405900
H -18.008400 -14.150700 -39.748900
O -17.738600 -11.961400 -39.412600
N -17.685000 -15.079700 -44.023300
N -17.682700 -11.816800 -40.607500
O -17.441800 -10.799500 -41.201600
N -17.420500 -15.522700 -45.322500
O -17.340800 -14.671500 -46.182600
N -17.321700 -16.214500 -41.980900
C -17.253300 -13.096100 -42.621200
O -17.207600 -16.711000 -45.440100
O -17.166600 -18.367900 -42.415700
H -16.862100 -12.242000 -42.900400
C -16.843500 -15.056100 -41.280200
N -16.687500 -17.443500 -41.809600
H -16.235200 -15.312900 -40.555900
N -16.230400 -14.026900 -42.140900
O -15.750100 -17.478300 -41.042200
N -15.244900 -14.399400 -43.045600
O -15.078500 -13.646500 -43.987800
O -14.630400 -15.415300 -42.802000
O -21.336300 -24.161200 -42.383900
O -21.326400 -26.571500 -40.529500
N -20.350500 -25.930800 -40.193100
H -20.331600 -26.702400 -42.610200
N -20.312900 -23.912200 -42.999700
O -20.202200 -25.331800 -39.156100
O -19.947500 -22.814900 -43.391700
C -19.508300 -26.186500 -42.481000
N -19.503300 -24.974500 -43.315400
N -19.272500 -25.921300 -41.081800
H -18.519900 -27.802000 -43.468400
C -18.261900 -26.954800 -43.048800
C -18.144700 -24.678000 -43.770500
H -18.141800 -24.130800 -44.583800
C -18.073200 -25.203600 -40.720600
N -18.050500 -23.894400 -41.405900
H -18.008400 -25.093400 -39.748900
O -17.738600 -22.904100 -39.412600
N -17.685000 -26.022400 -44.023300
N -17.682700 -22.759500 -40.607500
O -17.441800 -21.742200 -41.201600
N -17.420500 -26.465400 -45.322500
O -17.340800 -25.614200 -46.182600
N -17.321700 -27.157200 -41.980900
C -17.253300 -24.038800 -42.621200
O -17.207600 -27.653700 -45.440100
O -17.166600 -29.310600 -42.415700
H -16.862100 -23.184700 -42.900400
C -16.843500 -25.998800 -41.280200
N -16.687500 -28.386200 -41.809600
H -16.235200 -26.255600 -40.555900
N -16.230400 -24.969600 -42.140900
O -15.750100 -28.421000 -41.042200
N -15.244900 -25.342100 -43.045600
O -15.078500 -24.589200 -43.987800
O -14.630400 -26.358000 -42.802000
