36
Fragment
O -21.336300 -13.218500 -42.383900
O -21.326400 -15.628800 -40.529500
N -20.350500 -14.988100 -40.193100
H -20.331600 -15.759700 -42.610200
N -20.312900 -12.969500 -42.999700
O -20.202200 -14.389100 -39.156100
O -19.947500 -11.872200 -43.391700
C -19.508300 -15.243800 -42.481000
N -19.503300 -14.031800 -43.315400
N -19.272500 -14.978600 -41.081800
H -18.519900 -16.859300 -43.468400
C -18.261900 -16.012100 -43.048800
C -18.144700 -13.735300 -43.770500
H -18.141800 -13.188100 -44.583800
C -18.073200 -14.260900 -40.720600
N -18.050500 -12.951700 -41.405900
H -18.008400 -14.150700 -39.748900
O -17.738600 -11.961400 -39.412600
N -17.685000 -15.079700 -44.023300
N -17.682700 -11.816800 -40.607500
O -17.441800 -10.799500 -41.201600
N -17.420500 -15.522700 -45.322500
O -17.340800 -14.671500 -46.182600
N -17.321700 -16.214500 -41.980900
C -17.253300 -13.096100 -42.621200
O -17.207600 -16.711000 -45.440100
O -17.166600 -18.367900 -42.415700
H -16.862100 -12.242000 -42.900400
C -16.843500 -15.056100 -41.280200
N -16.687500 -17.443500 -41.809600
H -16.235200 -15.312900 -40.555900
N -16.230400 -14.026900 -42.140900
O -15.750100 -17.478300 -41.042200
N -15.244900 -14.399400 -43.045600
O -15.078500 -13.646500 -43.987800
O -14.630400 -15.415300 -42.802000
36
Fragment
O -21.336300 -2.275800 -42.383900
O -21.326400 -4.686100 -40.529500
N -20.350500 -4.045400 -40.193100
H -20.331600 -4.817000 -42.610200
N -20.312900 -2.026800 -42.999700
O -20.202200 -3.446400 -39.156100
O -19.947500 -0.929500 -43.391700
C -19.508300 -4.301100 -42.481000
N -19.503300 -3.089100 -43.315400
N -19.272500 -4.035900 -41.081800
H -18.519900 -5.916600 -43.468400
C -18.261900 -5.069400 -43.048800
C -18.144700 -2.792600 -43.770500
H -18.141800 -2.245400 -44.583800
C -18.073200 -3.318200 -40.720600
N -18.050500 -2.009000 -41.405900
H -18.008400 -3.208000 -39.748900
O -17.738600 -1.018700 -39.412600
N -17.685000 -4.137000 -44.023300
N -17.682700 -0.874100 -40.607500
O -17.441800 0.143200 -41.201600
N -17.420500 -4.580000 -45.322500
O -17.340800 -3.728800 -46.182600
N -17.321700 -5.271800 -41.980900
C -17.253300 -2.153400 -42.621200
O -17.207600 -5.768300 -45.440100
O -17.166600 -7.425200 -42.415700
H -16.862100 -1.299300 -42.900400
C -16.843500 -4.113400 -41.280200
N -16.687500 -6.500800 -41.809600
H -16.235200 -4.370200 -40.555900
N -16.230400 -3.084200 -42.140900
O -15.750100 -6.535600 -41.042200
N -15.244900 -3.456700 -43.045600
O -15.078500 -2.703800 -43.987800
O -14.630400 -4.472600 -42.802000
72
Fragment
O -21.336300 -13.218500 -42.383900
O -21.326400 -15.628800 -40.529500
N -20.350500 -14.988100 -40.193100
H -20.331600 -15.759700 -42.610200
N -20.312900 -12.969500 -42.999700
O -20.202200 -14.389100 -39.156100
O -19.947500 -11.872200 -43.391700
C -19.508300 -15.243800 -42.481000
N -19.503300 -14.031800 -43.315400
N -19.272500 -14.978600 -41.081800
H -18.519900 -16.859300 -43.468400
C -18.261900 -16.012100 -43.048800
C -18.144700 -13.735300 -43.770500
H -18.141800 -13.188100 -44.583800
C -18.073200 -14.260900 -40.720600
N -18.050500 -12.951700 -41.405900
H -18.008400 -14.150700 -39.748900
O -17.738600 -11.961400 -39.412600
N -17.685000 -15.079700 -44.023300
N -17.682700 -11.816800 -40.607500
O -17.441800 -10.799500 -41.201600
N -17.420500 -15.522700 -45.322500
O -17.340800 -14.671500 -46.182600
N -17.321700 -16.214500 -41.980900
C -17.253300 -13.096100 -42.621200
O -17.207600 -16.711000 -45.440100
O -17.166600 -18.367900 -42.415700
H -16.862100 -12.242000 -42.900400
C -16.843500 -15.056100 -41.280200
N -16.687500 -17.443500 -41.809600
H -16.235200 -15.312900 -40.555900
N -16.230400 -14.026900 -42.140900
O -15.750100 -17.478300 -41.042200
N -15.244900 -14.399400 -43.045600
O -15.078500 -13.646500 -43.987800
O -14.630400 -15.415300 -42.802000
O -21.336300 -2.275800 -42.383900
O -21.326400 -4.686100 -40.529500
N -20.350500 -4.045400 -40.193100
H -20.331600 -4.817000 -42.610200
N -20.312900 -2.026800 -42.999700
O -20.202200 -3.446400 -39.156100
O -19.947500 -0.929500 -43.391700
C -19.508300 -4.301100 -42.481000
N -19.503300 -3.089100 -43.315400
N -19.272500 -4.035900 -41.081800
H -18.519900 -5.916600 -43.468400
C -18.261900 -5.069400 -43.048800
C -18.144700 -2.792600 -43.770500
H -18.141800 -2.245400 -44.583800
C -18.073200 -3.318200 -40.720600
N -18.050500 -2.009000 -41.405900
H -18.008400 -3.208000 -39.748900
O -17.738600 -1.018700 -39.412600
N -17.685000 -4.137000 -44.023300
N -17.682700 -0.874100 -40.607500
O -17.441800 0.143200 -41.201600
N -17.420500 -4.580000 -45.322500
O -17.340800 -3.728800 -46.182600
N -17.321700 -5.271800 -41.980900
C -17.253300 -2.153400 -42.621200
O -17.207600 -5.768300 -45.440100
O -17.166600 -7.425200 -42.415700
H -16.862100 -1.299300 -42.900400
C -16.843500 -4.113400 -41.280200
N -16.687500 -6.500800 -41.809600
H -16.235200 -4.370200 -40.555900
N -16.230400 -3.084200 -42.140900
O -15.750100 -6.535600 -41.042200
N -15.244900 -3.456700 -43.045600
O -15.078500 -2.703800 -43.987800
O -14.630400 -4.472600 -42.802000
