32
Fragment
H -12.518400 -11.752000 -16.285800
H -12.467600 -4.869100 -11.957300
H -12.466000 -5.807600 -16.218900
C -12.093000 -5.676500 -12.316200
H -12.086100 -5.027300 -14.238200
C -12.014000 -10.996100 -16.595800
H -11.946400 -6.648400 -10.509600
C -11.868000 -5.768000 -13.668600
H -11.819400 -6.583100 -17.362400
C -11.793000 -6.725600 -11.453600
N -11.745000 -10.794700 -17.910500
C -11.617600 -6.109800 -16.552200
N -11.535200 -10.081900 -15.768700
C -11.320700 -6.935600 -14.223500
C -11.264900 -7.884300 -11.996700
H -11.054100 -8.621000 -11.419200
C -11.043300 -9.666200 -17.878800
C -11.036000 -8.000000 -13.356000
N -11.022500 -7.019100 -15.598600
N -10.907500 -9.230300 -16.627400
N -10.769700 -4.948600 -16.859900
H -10.684200 -9.225300 -18.651700
H -10.678400 -8.817800 -13.708600
N -10.424800 -4.025300 -15.918100
H -10.369200 -5.092800 -18.853500
C -10.260700 -4.594600 -18.040100
C -10.180900 -8.053000 -16.136800
C -9.715100 -3.161700 -16.621500
H -9.642600 -7.691100 -16.844400
N -9.582700 -3.458800 -17.935200
H -9.543300 -8.324100 -15.472800
H -9.322100 -2.378800 -16.228500
32
Fragment
H -14.310000 -7.118000 -6.393300
H -14.259200 -0.235000 -2.064800
H -14.257600 -1.173500 -6.326300
C -13.884600 -1.042500 -2.423700
H -13.877600 -0.393200 -4.345600
C -13.805600 -6.362100 -6.703200
H -13.738000 -2.014300 -0.617000
C -13.659600 -1.133900 -3.776000
H -13.610900 -1.949100 -7.469900
C -13.584500 -2.091500 -1.561000
N -13.536600 -6.160600 -8.017900
C -13.409100 -1.475700 -6.659700
N -13.326800 -5.447800 -5.876200
C -13.112200 -2.301500 -4.331000
C -13.056500 -3.250200 -2.104100
H -12.845700 -3.987000 -1.526600
C -12.834800 -5.032100 -7.986300
C -12.827600 -3.366000 -3.463400
N -12.814000 -2.385000 -5.706000
N -12.699100 -4.596200 -6.734900
N -12.561300 -0.314500 -6.967300
H -12.475800 -4.591200 -8.759200
H -12.470000 -4.183800 -3.816100
N -12.216400 0.608800 -6.025600
H -12.160800 -0.458800 -8.961000
C -12.052300 0.039500 -8.147500
C -11.972500 -3.419000 -6.244200
C -11.506600 1.472400 -6.728900
H -11.434200 -3.057100 -6.951800
N -11.374300 1.175300 -8.042700
H -11.334800 -3.690000 -5.580200
H -11.113700 2.255300 -6.335900
64
Fragment
H -12.518400 -11.752000 -16.285800
H -12.467600 -4.869100 -11.957300
H -12.466000 -5.807600 -16.218900
C -12.093000 -5.676500 -12.316200
H -12.086100 -5.027300 -14.238200
C -12.014000 -10.996100 -16.595800
H -11.946400 -6.648400 -10.509600
C -11.868000 -5.768000 -13.668600
H -11.819400 -6.583100 -17.362400
C -11.793000 -6.725600 -11.453600
N -11.745000 -10.794700 -17.910500
C -11.617600 -6.109800 -16.552200
N -11.535200 -10.081900 -15.768700
C -11.320700 -6.935600 -14.223500
C -11.264900 -7.884300 -11.996700
H -11.054100 -8.621000 -11.419200
C -11.043300 -9.666200 -17.878800
C -11.036000 -8.000000 -13.356000
N -11.022500 -7.019100 -15.598600
N -10.907500 -9.230300 -16.627400
N -10.769700 -4.948600 -16.859900
H -10.684200 -9.225300 -18.651700
H -10.678400 -8.817800 -13.708600
N -10.424800 -4.025300 -15.918100
H -10.369200 -5.092800 -18.853500
C -10.260700 -4.594600 -18.040100
C -10.180900 -8.053000 -16.136800
C -9.715100 -3.161700 -16.621500
H -9.642600 -7.691100 -16.844400
N -9.582700 -3.458800 -17.935200
H -9.543300 -8.324100 -15.472800
H -9.322100 -2.378800 -16.228500
H -14.310000 -7.118000 -6.393300
H -14.259200 -0.235000 -2.064800
H -14.257600 -1.173500 -6.326300
C -13.884600 -1.042500 -2.423700
H -13.877600 -0.393200 -4.345600
C -13.805600 -6.362100 -6.703200
H -13.738000 -2.014300 -0.617000
C -13.659600 -1.133900 -3.776000
H -13.610900 -1.949100 -7.469900
C -13.584500 -2.091500 -1.561000
N -13.536600 -6.160600 -8.017900
C -13.409100 -1.475700 -6.659700
N -13.326800 -5.447800 -5.876200
C -13.112200 -2.301500 -4.331000
C -13.056500 -3.250200 -2.104100
H -12.845700 -3.987000 -1.526600
C -12.834800 -5.032100 -7.986300
C -12.827600 -3.366000 -3.463400
N -12.814000 -2.385000 -5.706000
N -12.699100 -4.596200 -6.734900
N -12.561300 -0.314500 -6.967300
H -12.475800 -4.591200 -8.759200
H -12.470000 -4.183800 -3.816100
N -12.216400 0.608800 -6.025600
H -12.160800 -0.458800 -8.961000
C -12.052300 0.039500 -8.147500
C -11.972500 -3.419000 -6.244200
C -11.506600 1.472400 -6.728900
H -11.434200 -3.057100 -6.951800
N -11.374300 1.175300 -8.042700
H -11.334800 -3.690000 -5.580200
H -11.113700 2.255300 -6.335900
