32
Fragment
H -12.518400 -11.752000 -16.285800
H -12.467600 -4.869100 -11.957300
H -12.466000 -5.807600 -16.218900
C -12.093000 -5.676500 -12.316200
H -12.086100 -5.027300 -14.238200
C -12.014000 -10.996100 -16.595800
H -11.946400 -6.648400 -10.509600
C -11.868000 -5.768000 -13.668600
H -11.819400 -6.583100 -17.362400
C -11.793000 -6.725600 -11.453600
N -11.745000 -10.794700 -17.910500
C -11.617600 -6.109800 -16.552200
N -11.535200 -10.081900 -15.768700
C -11.320700 -6.935600 -14.223500
C -11.264900 -7.884300 -11.996700
H -11.054100 -8.621000 -11.419200
C -11.043300 -9.666200 -17.878800
C -11.036000 -8.000000 -13.356000
N -11.022500 -7.019100 -15.598600
N -10.907500 -9.230300 -16.627400
N -10.769700 -4.948600 -16.859900
H -10.684200 -9.225300 -18.651700
H -10.678400 -8.817800 -13.708600
N -10.424800 -4.025300 -15.918100
H -10.369200 -5.092800 -18.853500
C -10.260700 -4.594600 -18.040100
C -10.180900 -8.053000 -16.136800
C -9.715100 -3.161700 -16.621500
H -9.642600 -7.691100 -16.844400
N -9.582700 -3.458800 -17.935200
H -9.543300 -8.324100 -15.472800
H -9.322100 -2.378800 -16.228500
32
Fragment
H -10.522300 -3.080000 -13.449200
H -10.301100 2.865300 -14.204900
N -10.261700 -2.000000 -11.742500
H -10.201800 2.232400 -12.833300
C -10.129300 -2.297100 -13.056200
C -9.663500 2.594300 -13.540900
C -9.583700 -0.864200 -11.637600
H -9.475200 -0.365900 -10.824100
N -9.419600 -1.433500 -13.759600
H -9.166000 3.359000 -15.969100
H -9.160200 3.766500 -11.026000
N -9.074700 -0.510200 -12.817800
N -8.936900 3.771500 -13.050300
N -8.822000 1.560300 -14.079100
C -8.808400 2.541300 -16.321700
C -8.801200 4.207400 -11.798900
H -8.790300 3.162300 -18.258500
C -8.579500 2.425500 -17.681000
C -8.523800 1.476800 -15.454200
N -8.309200 4.623100 -13.908900
C -8.226900 0.651000 -13.125500
N -8.099400 5.335900 -11.767200
C -8.051500 1.266800 -18.224100
H -8.025100 1.124300 -12.315300
C -7.976400 0.309200 -16.009100
H -7.898000 1.189600 -19.168100
C -7.830400 5.537400 -13.081900
H -7.758300 -0.431500 -15.439500
C -7.751400 0.217800 -17.361400
H -7.378400 0.348800 -13.458800
H -7.376800 -0.589700 -17.720400
H -7.326000 6.293300 -13.391900
64
Fragment
H -12.518400 -11.752000 -16.285800
H -12.467600 -4.869100 -11.957300
H -12.466000 -5.807600 -16.218900
C -12.093000 -5.676500 -12.316200
H -12.086100 -5.027300 -14.238200
C -12.014000 -10.996100 -16.595800
H -11.946400 -6.648400 -10.509600
C -11.868000 -5.768000 -13.668600
H -11.819400 -6.583100 -17.362400
C -11.793000 -6.725600 -11.453600
N -11.745000 -10.794700 -17.910500
C -11.617600 -6.109800 -16.552200
N -11.535200 -10.081900 -15.768700
C -11.320700 -6.935600 -14.223500
C -11.264900 -7.884300 -11.996700
H -11.054100 -8.621000 -11.419200
C -11.043300 -9.666200 -17.878800
C -11.036000 -8.000000 -13.356000
N -11.022500 -7.019100 -15.598600
N -10.907500 -9.230300 -16.627400
N -10.769700 -4.948600 -16.859900
H -10.684200 -9.225300 -18.651700
H -10.678400 -8.817800 -13.708600
N -10.424800 -4.025300 -15.918100
H -10.369200 -5.092800 -18.853500
C -10.260700 -4.594600 -18.040100
C -10.180900 -8.053000 -16.136800
C -9.715100 -3.161700 -16.621500
H -9.642600 -7.691100 -16.844400
N -9.582700 -3.458800 -17.935200
H -9.543300 -8.324100 -15.472800
H -9.322100 -2.378800 -16.228500
H -10.522300 -3.080000 -13.449200
H -10.301100 2.865300 -14.204900
N -10.261700 -2.000000 -11.742500
H -10.201800 2.232400 -12.833300
C -10.129300 -2.297100 -13.056200
C -9.663500 2.594300 -13.540900
C -9.583700 -0.864200 -11.637600
H -9.475200 -0.365900 -10.824100
N -9.419600 -1.433500 -13.759600
H -9.166000 3.359000 -15.969100
H -9.160200 3.766500 -11.026000
N -9.074700 -0.510200 -12.817800
N -8.936900 3.771500 -13.050300
N -8.822000 1.560300 -14.079100
C -8.808400 2.541300 -16.321700
C -8.801200 4.207400 -11.798900
H -8.790300 3.162300 -18.258500
C -8.579500 2.425500 -17.681000
C -8.523800 1.476800 -15.454200
N -8.309200 4.623100 -13.908900
C -8.226900 0.651000 -13.125500
N -8.099400 5.335900 -11.767200
C -8.051500 1.266800 -18.224100
H -8.025100 1.124300 -12.315300
C -7.976400 0.309200 -16.009100
H -7.898000 1.189600 -19.168100
C -7.830400 5.537400 -13.081900
H -7.758300 -0.431500 -15.439500
C -7.751400 0.217800 -17.361400
H -7.378400 0.348800 -13.458800
H -7.376800 -0.589700 -17.720400
H -7.326000 6.293300 -13.391900
