32
Fragment
H -12.518400 -11.752000 -16.285800
H -12.467600 -4.869100 -11.957300
H -12.466000 -5.807600 -16.218900
C -12.093000 -5.676500 -12.316200
H -12.086100 -5.027300 -14.238200
C -12.014000 -10.996100 -16.595800
H -11.946400 -6.648400 -10.509600
C -11.868000 -5.768000 -13.668600
H -11.819400 -6.583100 -17.362400
C -11.793000 -6.725600 -11.453600
N -11.745000 -10.794700 -17.910500
C -11.617600 -6.109800 -16.552200
N -11.535200 -10.081900 -15.768700
C -11.320700 -6.935600 -14.223500
C -11.264900 -7.884300 -11.996700
H -11.054100 -8.621000 -11.419200
C -11.043300 -9.666200 -17.878800
C -11.036000 -8.000000 -13.356000
N -11.022500 -7.019100 -15.598600
N -10.907500 -9.230300 -16.627400
N -10.769700 -4.948600 -16.859900
H -10.684200 -9.225300 -18.651700
H -10.678400 -8.817800 -13.708600
N -10.424800 -4.025300 -15.918100
H -10.369200 -5.092800 -18.853500
C -10.260700 -4.594600 -18.040100
C -10.180900 -8.053000 -16.136800
C -9.715100 -3.161700 -16.621500
H -9.642600 -7.691100 -16.844400
N -9.582700 -3.458800 -17.935200
H -9.543300 -8.324100 -15.472800
H -9.322100 -2.378800 -16.228500
32
Fragment
H -12.137700 -7.942700 -26.178400
H -12.086900 -1.059700 -21.849900
H -12.085300 -1.998200 -26.111400
C -11.712300 -1.867200 -22.208800
H -11.705300 -1.217900 -24.130700
C -11.633300 -7.186800 -26.488300
H -11.565700 -2.839000 -20.402100
C -11.487300 -1.958600 -23.561100
H -11.438600 -2.773800 -27.255000
C -11.412200 -2.916200 -21.346200
N -11.364300 -6.985300 -27.803100
C -11.236800 -2.300400 -26.444800
N -11.154500 -6.272500 -25.661300
C -10.939900 -3.126200 -24.116100
C -10.884200 -4.074900 -21.889300
H -10.673300 -4.811700 -21.311700
C -10.662500 -5.856800 -27.771400
C -10.655200 -4.190700 -23.248500
N -10.641700 -3.209700 -25.491200
N -10.526700 -5.420900 -26.520000
N -10.389000 -1.139200 -26.752500
H -10.303500 -5.415900 -28.544300
H -10.297700 -5.008500 -23.601200
N -10.044100 -0.215900 -25.810700
H -9.988500 -1.283500 -28.746100
C -9.879900 -0.785200 -27.932600
C -9.800100 -4.243700 -26.029300
C -9.334300 0.647700 -26.514000
H -9.261800 -3.881800 -26.736900
N -9.202000 0.350600 -27.827800
H -9.162500 -4.514700 -25.365300
H -8.941400 1.430600 -26.121000
64
Fragment
H -12.518400 -11.752000 -16.285800
H -12.467600 -4.869100 -11.957300
H -12.466000 -5.807600 -16.218900
C -12.093000 -5.676500 -12.316200
H -12.086100 -5.027300 -14.238200
C -12.014000 -10.996100 -16.595800
H -11.946400 -6.648400 -10.509600
C -11.868000 -5.768000 -13.668600
H -11.819400 -6.583100 -17.362400
C -11.793000 -6.725600 -11.453600
N -11.745000 -10.794700 -17.910500
C -11.617600 -6.109800 -16.552200
N -11.535200 -10.081900 -15.768700
C -11.320700 -6.935600 -14.223500
C -11.264900 -7.884300 -11.996700
H -11.054100 -8.621000 -11.419200
C -11.043300 -9.666200 -17.878800
C -11.036000 -8.000000 -13.356000
N -11.022500 -7.019100 -15.598600
N -10.907500 -9.230300 -16.627400
N -10.769700 -4.948600 -16.859900
H -10.684200 -9.225300 -18.651700
H -10.678400 -8.817800 -13.708600
N -10.424800 -4.025300 -15.918100
H -10.369200 -5.092800 -18.853500
C -10.260700 -4.594600 -18.040100
C -10.180900 -8.053000 -16.136800
C -9.715100 -3.161700 -16.621500
H -9.642600 -7.691100 -16.844400
N -9.582700 -3.458800 -17.935200
H -9.543300 -8.324100 -15.472800
H -9.322100 -2.378800 -16.228500
H -12.137700 -7.942700 -26.178400
H -12.086900 -1.059700 -21.849900
H -12.085300 -1.998200 -26.111400
C -11.712300 -1.867200 -22.208800
H -11.705300 -1.217900 -24.130700
C -11.633300 -7.186800 -26.488300
H -11.565700 -2.839000 -20.402100
C -11.487300 -1.958600 -23.561100
H -11.438600 -2.773800 -27.255000
C -11.412200 -2.916200 -21.346200
N -11.364300 -6.985300 -27.803100
C -11.236800 -2.300400 -26.444800
N -11.154500 -6.272500 -25.661300
C -10.939900 -3.126200 -24.116100
C -10.884200 -4.074900 -21.889300
H -10.673300 -4.811700 -21.311700
C -10.662500 -5.856800 -27.771400
C -10.655200 -4.190700 -23.248500
N -10.641700 -3.209700 -25.491200
N -10.526700 -5.420900 -26.520000
N -10.389000 -1.139200 -26.752500
H -10.303500 -5.415900 -28.544300
H -10.297700 -5.008500 -23.601200
N -10.044100 -0.215900 -25.810700
H -9.988500 -1.283500 -28.746100
C -9.879900 -0.785200 -27.932600
C -9.800100 -4.243700 -26.029300
C -9.334300 0.647700 -26.514000
H -9.261800 -3.881800 -26.736900
N -9.202000 0.350600 -27.827800
H -9.162500 -4.514700 -25.365300
H -8.941400 1.430600 -26.121000
