16
Fragment
O -9.479100 -13.541900 -20.769800
O -8.489500 -16.833100 -17.009900
N -8.313900 -13.777200 -21.052000
N -8.193500 -15.339600 -19.209800
O -7.675500 -13.197100 -21.924000
C -7.626200 -14.792900 -20.303100
N -7.466400 -17.001500 -17.644200
C -7.281300 -16.197300 -18.825600
O -6.583400 -17.807400 -17.361900
C -6.388400 -15.312200 -20.580900
N -6.170400 -16.233000 -19.617600
H -5.809500 -15.075700 -21.296000
H -5.138200 -17.970900 -19.519100
C -4.927300 -17.014800 -19.492300
H -4.490800 -16.800500 -18.641400
H -4.325500 -16.792400 -20.233100
16
Fragment
H -12.113000 -10.969400 -20.922500
H -11.947700 -10.977500 -22.514200
C -11.511200 -11.191800 -21.663300
H -11.300300 -12.147900 -21.636500
H -10.629000 -9.252700 -19.859700
N -10.268100 -10.410000 -21.538100
C -10.050100 -9.489200 -20.574700
O -9.855000 -11.984400 -23.793700
C -9.157200 -10.374300 -22.330000
N -8.972000 -11.178500 -23.511400
C -8.812300 -8.969900 -20.852500
O -8.763000 -7.374100 -19.231600
N -8.245000 -9.516600 -21.945800
N -8.124600 -7.954200 -20.103600
O -7.949000 -11.010100 -24.145700
O -6.959400 -7.718900 -20.385800
32
Fragment
O -9.479100 -13.541900 -20.769800
O -8.489500 -16.833100 -17.009900
N -8.313900 -13.777200 -21.052000
N -8.193500 -15.339600 -19.209800
O -7.675500 -13.197100 -21.924000
C -7.626200 -14.792900 -20.303100
N -7.466400 -17.001500 -17.644200
C -7.281300 -16.197300 -18.825600
O -6.583400 -17.807400 -17.361900
C -6.388400 -15.312200 -20.580900
N -6.170400 -16.233000 -19.617600
H -5.809500 -15.075700 -21.296000
H -5.138200 -17.970900 -19.519100
C -4.927300 -17.014800 -19.492300
H -4.490800 -16.800500 -18.641400
H -4.325500 -16.792400 -20.233100
H -12.113000 -10.969400 -20.922500
H -11.947700 -10.977500 -22.514200
C -11.511200 -11.191800 -21.663300
H -11.300300 -12.147900 -21.636500
H -10.629000 -9.252700 -19.859700
N -10.268100 -10.410000 -21.538100
C -10.050100 -9.489200 -20.574700
O -9.855000 -11.984400 -23.793700
C -9.157200 -10.374300 -22.330000
N -8.972000 -11.178500 -23.511400
C -8.812300 -8.969900 -20.852500
O -8.763000 -7.374100 -19.231600
N -8.245000 -9.516600 -21.945800
N -8.124600 -7.954200 -20.103600
O -7.949000 -11.010100 -24.145700
O -6.959400 -7.718900 -20.385800
