16
Fragment
O -9.479100 -13.541900 -20.769800
O -8.489500 -16.833100 -17.009900
N -8.313900 -13.777200 -21.052000
N -8.193500 -15.339600 -19.209800
O -7.675500 -13.197100 -21.924000
C -7.626200 -14.792900 -20.303100
N -7.466400 -17.001500 -17.644200
C -7.281300 -16.197300 -18.825600
O -6.583400 -17.807400 -17.361900
C -6.388400 -15.312200 -20.580900
N -6.170400 -16.233000 -19.617600
H -5.809500 -15.075700 -21.296000
H -5.138200 -17.970900 -19.519100
C -4.927300 -17.014800 -19.492300
H -4.490800 -16.800500 -18.641400
H -4.325500 -16.792400 -20.233100
16
Fragment
O -15.765700 -13.541900 -20.769800
O -14.776100 -16.833100 -17.009900
N -14.600500 -13.777200 -21.052000
N -14.480100 -15.339600 -19.209800
O -13.962100 -13.197100 -21.924000
C -13.912800 -14.792900 -20.303100
N -13.753000 -17.001500 -17.644200
C -13.567900 -16.197300 -18.825600
O -12.870000 -17.807400 -17.361900
C -12.675000 -15.312200 -20.580900
N -12.457000 -16.233000 -19.617600
H -12.096100 -15.075700 -21.296000
H -11.424800 -17.970900 -19.519100
C -11.213900 -17.014800 -19.492300
H -10.777400 -16.800500 -18.641400
H -10.612100 -16.792400 -20.233100
32
Fragment
O -9.479100 -13.541900 -20.769800
O -8.489500 -16.833100 -17.009900
N -8.313900 -13.777200 -21.052000
N -8.193500 -15.339600 -19.209800
O -7.675500 -13.197100 -21.924000
C -7.626200 -14.792900 -20.303100
N -7.466400 -17.001500 -17.644200
C -7.281300 -16.197300 -18.825600
O -6.583400 -17.807400 -17.361900
C -6.388400 -15.312200 -20.580900
N -6.170400 -16.233000 -19.617600
H -5.809500 -15.075700 -21.296000
H -5.138200 -17.970900 -19.519100
C -4.927300 -17.014800 -19.492300
H -4.490800 -16.800500 -18.641400
H -4.325500 -16.792400 -20.233100
O -15.765700 -13.541900 -20.769800
O -14.776100 -16.833100 -17.009900
N -14.600500 -13.777200 -21.052000
N -14.480100 -15.339600 -19.209800
O -13.962100 -13.197100 -21.924000
C -13.912800 -14.792900 -20.303100
N -13.753000 -17.001500 -17.644200
C -13.567900 -16.197300 -18.825600
O -12.870000 -17.807400 -17.361900
C -12.675000 -15.312200 -20.580900
N -12.457000 -16.233000 -19.617600
H -12.096100 -15.075700 -21.296000
H -11.424800 -17.970900 -19.519100
C -11.213900 -17.014800 -19.492300
H -10.777400 -16.800500 -18.641400
H -10.612100 -16.792400 -20.233100
