16
Fragment
O -9.479100 -13.541900 -20.769800
O -8.489500 -16.833100 -17.009900
N -8.313900 -13.777200 -21.052000
N -8.193500 -15.339600 -19.209800
O -7.675500 -13.197100 -21.924000
C -7.626200 -14.792900 -20.303100
N -7.466400 -17.001500 -17.644200
C -7.281300 -16.197300 -18.825600
O -6.583400 -17.807400 -17.361900
C -6.388400 -15.312200 -20.580900
N -6.170400 -16.233000 -19.617600
H -5.809500 -15.075700 -21.296000
H -5.138200 -17.970900 -19.519100
C -4.927300 -17.014800 -19.492300
H -4.490800 -16.800500 -18.641400
H -4.325500 -16.792400 -20.233100
19
Fragment
H -10.596700 -18.447300 -26.329300
O -10.385400 -18.034200 -25.517800
O -10.212300 -19.679900 -27.477600
O -10.038200 -16.332600 -23.565400
N -9.240800 -17.124000 -23.100700
C -9.214600 -18.544200 -25.158400
N -9.181800 -20.193800 -27.020600
O -8.922600 -17.167700 -21.914800
O -8.677600 -21.190600 -27.501200
C -8.588700 -18.092500 -23.990600
C -8.550900 -19.569900 -25.861200
C -7.361300 -18.559100 -23.587300
C -7.313900 -20.060200 -25.483600
H -6.954100 -18.228300 -22.795100
H -6.881700 -20.745000 -25.980500
C -6.730800 -19.516400 -24.355900
N -5.431400 -20.019500 -23.917900
O -4.920800 -19.501500 -22.926900
O -4.911400 -20.918200 -24.571500
35
Fragment
O -9.479100 -13.541900 -20.769800
O -8.489500 -16.833100 -17.009900
N -8.313900 -13.777200 -21.052000
N -8.193500 -15.339600 -19.209800
O -7.675500 -13.197100 -21.924000
C -7.626200 -14.792900 -20.303100
N -7.466400 -17.001500 -17.644200
C -7.281300 -16.197300 -18.825600
O -6.583400 -17.807400 -17.361900
C -6.388400 -15.312200 -20.580900
N -6.170400 -16.233000 -19.617600
H -5.809500 -15.075700 -21.296000
H -5.138200 -17.970900 -19.519100
C -4.927300 -17.014800 -19.492300
H -4.490800 -16.800500 -18.641400
H -4.325500 -16.792400 -20.233100
H -10.596700 -18.447300 -26.329300
O -10.385400 -18.034200 -25.517800
O -10.212300 -19.679900 -27.477600
O -10.038200 -16.332600 -23.565400
N -9.240800 -17.124000 -23.100700
C -9.214600 -18.544200 -25.158400
N -9.181800 -20.193800 -27.020600
O -8.922600 -17.167700 -21.914800
O -8.677600 -21.190600 -27.501200
C -8.588700 -18.092500 -23.990600
C -8.550900 -19.569900 -25.861200
C -7.361300 -18.559100 -23.587300
C -7.313900 -20.060200 -25.483600
H -6.954100 -18.228300 -22.795100
H -6.881700 -20.745000 -25.980500
C -6.730800 -19.516400 -24.355900
N -5.431400 -20.019500 -23.917900
O -4.920800 -19.501500 -22.926900
O -4.911400 -20.918200 -24.571500
