16
Fragment
O -9.479100 -13.541900 -20.769800
O -8.489500 -16.833100 -17.009900
N -8.313900 -13.777200 -21.052000
N -8.193500 -15.339600 -19.209800
O -7.675500 -13.197100 -21.924000
C -7.626200 -14.792900 -20.303100
N -7.466400 -17.001500 -17.644200
C -7.281300 -16.197300 -18.825600
O -6.583400 -17.807400 -17.361900
C -6.388400 -15.312200 -20.580900
N -6.170400 -16.233000 -19.617600
H -5.809500 -15.075700 -21.296000
H -5.138200 -17.970900 -19.519100
C -4.927300 -17.014800 -19.492300
H -4.490800 -16.800500 -18.641400
H -4.325500 -16.792400 -20.233100
19
Fragment
H -11.202000 -18.447300 -16.040400
O -10.990700 -18.034200 -15.228900
O -10.817600 -19.679900 -17.188700
O -10.643500 -16.332600 -13.276500
N -9.846100 -17.124000 -12.811700
C -9.819900 -18.544200 -14.869500
N -9.787100 -20.193800 -16.731700
O -9.528000 -17.167700 -11.625800
O -9.282900 -21.190600 -17.212300
C -9.194000 -18.092500 -13.701700
C -9.156200 -19.569900 -15.572300
C -7.966700 -18.559100 -13.298400
C -7.919200 -20.060200 -15.194700
H -7.559400 -18.228300 -12.506200
H -7.487000 -20.745000 -15.691600
C -7.336200 -19.516400 -14.067000
N -6.036700 -20.019500 -13.629000
O -5.526100 -19.501500 -12.638000
O -5.516700 -20.918200 -14.282500
35
Fragment
O -9.479100 -13.541900 -20.769800
O -8.489500 -16.833100 -17.009900
N -8.313900 -13.777200 -21.052000
N -8.193500 -15.339600 -19.209800
O -7.675500 -13.197100 -21.924000
C -7.626200 -14.792900 -20.303100
N -7.466400 -17.001500 -17.644200
C -7.281300 -16.197300 -18.825600
O -6.583400 -17.807400 -17.361900
C -6.388400 -15.312200 -20.580900
N -6.170400 -16.233000 -19.617600
H -5.809500 -15.075700 -21.296000
H -5.138200 -17.970900 -19.519100
C -4.927300 -17.014800 -19.492300
H -4.490800 -16.800500 -18.641400
H -4.325500 -16.792400 -20.233100
H -11.202000 -18.447300 -16.040400
O -10.990700 -18.034200 -15.228900
O -10.817600 -19.679900 -17.188700
O -10.643500 -16.332600 -13.276500
N -9.846100 -17.124000 -12.811700
C -9.819900 -18.544200 -14.869500
N -9.787100 -20.193800 -16.731700
O -9.528000 -17.167700 -11.625800
O -9.282900 -21.190600 -17.212300
C -9.194000 -18.092500 -13.701700
C -9.156200 -19.569900 -15.572300
C -7.966700 -18.559100 -13.298400
C -7.919200 -20.060200 -15.194700
H -7.559400 -18.228300 -12.506200
H -7.487000 -20.745000 -15.691600
C -7.336200 -19.516400 -14.067000
N -6.036700 -20.019500 -13.629000
O -5.526100 -19.501500 -12.638000
O -5.516700 -20.918200 -14.282500
