16
Fragment
O -9.479100 -13.541900 -20.769800
O -8.489500 -16.833100 -17.009900
N -8.313900 -13.777200 -21.052000
N -8.193500 -15.339600 -19.209800
O -7.675500 -13.197100 -21.924000
C -7.626200 -14.792900 -20.303100
N -7.466400 -17.001500 -17.644200
C -7.281300 -16.197300 -18.825600
O -6.583400 -17.807400 -17.361900
C -6.388400 -15.312200 -20.580900
N -6.170400 -16.233000 -19.617600
H -5.809500 -15.075700 -21.296000
H -5.138200 -17.970900 -19.519100
C -4.927300 -17.014800 -19.492300
H -4.490800 -16.800500 -18.641400
H -4.325500 -16.792400 -20.233100
19
Fragment
H -4.915400 -18.447300 -16.040400
O -4.704100 -18.034200 -15.228900
O -4.531000 -19.679900 -17.188700
O -4.356900 -16.332600 -13.276500
N -3.559500 -17.124000 -12.811700
C -3.533300 -18.544200 -14.869500
N -3.500500 -20.193800 -16.731700
O -3.241400 -17.167700 -11.625800
O -2.996300 -21.190600 -17.212300
C -2.907400 -18.092500 -13.701700
C -2.869600 -19.569900 -15.572300
C -1.680100 -18.559100 -13.298400
C -1.632600 -20.060200 -15.194700
H -1.272800 -18.228300 -12.506200
H -1.200400 -20.745000 -15.691600
C -1.049600 -19.516400 -14.067000
N 0.249900 -20.019500 -13.629000
O 0.760500 -19.501500 -12.638000
O 0.769900 -20.918200 -14.282500
35
Fragment
O -9.479100 -13.541900 -20.769800
O -8.489500 -16.833100 -17.009900
N -8.313900 -13.777200 -21.052000
N -8.193500 -15.339600 -19.209800
O -7.675500 -13.197100 -21.924000
C -7.626200 -14.792900 -20.303100
N -7.466400 -17.001500 -17.644200
C -7.281300 -16.197300 -18.825600
O -6.583400 -17.807400 -17.361900
C -6.388400 -15.312200 -20.580900
N -6.170400 -16.233000 -19.617600
H -5.809500 -15.075700 -21.296000
H -5.138200 -17.970900 -19.519100
C -4.927300 -17.014800 -19.492300
H -4.490800 -16.800500 -18.641400
H -4.325500 -16.792400 -20.233100
H -4.915400 -18.447300 -16.040400
O -4.704100 -18.034200 -15.228900
O -4.531000 -19.679900 -17.188700
O -4.356900 -16.332600 -13.276500
N -3.559500 -17.124000 -12.811700
C -3.533300 -18.544200 -14.869500
N -3.500500 -20.193800 -16.731700
O -3.241400 -17.167700 -11.625800
O -2.996300 -21.190600 -17.212300
C -2.907400 -18.092500 -13.701700
C -2.869600 -19.569900 -15.572300
C -1.680100 -18.559100 -13.298400
C -1.632600 -20.060200 -15.194700
H -1.272800 -18.228300 -12.506200
H -1.200400 -20.745000 -15.691600
C -1.049600 -19.516400 -14.067000
N 0.249900 -20.019500 -13.629000
O 0.760500 -19.501500 -12.638000
O 0.769900 -20.918200 -14.282500
