16
Fragment
O -9.479100 -13.541900 -20.769800
O -8.489500 -16.833100 -17.009900
N -8.313900 -13.777200 -21.052000
N -8.193500 -15.339600 -19.209800
O -7.675500 -13.197100 -21.924000
C -7.626200 -14.792900 -20.303100
N -7.466400 -17.001500 -17.644200
C -7.281300 -16.197300 -18.825600
O -6.583400 -17.807400 -17.361900
C -6.388400 -15.312200 -20.580900
N -6.170400 -16.233000 -19.617600
H -5.809500 -15.075700 -21.296000
H -5.138200 -17.970900 -19.519100
C -4.927300 -17.014800 -19.492300
H -4.490800 -16.800500 -18.641400
H -4.325500 -16.792400 -20.233100
16
Fragment
O -3.192500 -13.541900 -20.769800
O -2.202900 -16.833100 -17.009900
N -2.027300 -13.777200 -21.052000
N -1.906900 -15.339600 -19.209800
O -1.388900 -13.197100 -21.924000
C -1.339600 -14.792900 -20.303100
N -1.179800 -17.001500 -17.644200
C -0.994700 -16.197300 -18.825600
O -0.296800 -17.807400 -17.361900
C -0.101800 -15.312200 -20.580900
N 0.116200 -16.233000 -19.617600
H 0.477100 -15.075700 -21.296000
H 1.148400 -17.970900 -19.519100
C 1.359300 -17.014800 -19.492300
H 1.795800 -16.800500 -18.641400
H 1.961100 -16.792400 -20.233100
32
Fragment
O -9.479100 -13.541900 -20.769800
O -8.489500 -16.833100 -17.009900
N -8.313900 -13.777200 -21.052000
N -8.193500 -15.339600 -19.209800
O -7.675500 -13.197100 -21.924000
C -7.626200 -14.792900 -20.303100
N -7.466400 -17.001500 -17.644200
C -7.281300 -16.197300 -18.825600
O -6.583400 -17.807400 -17.361900
C -6.388400 -15.312200 -20.580900
N -6.170400 -16.233000 -19.617600
H -5.809500 -15.075700 -21.296000
H -5.138200 -17.970900 -19.519100
C -4.927300 -17.014800 -19.492300
H -4.490800 -16.800500 -18.641400
H -4.325500 -16.792400 -20.233100
O -3.192500 -13.541900 -20.769800
O -2.202900 -16.833100 -17.009900
N -2.027300 -13.777200 -21.052000
N -1.906900 -15.339600 -19.209800
O -1.388900 -13.197100 -21.924000
C -1.339600 -14.792900 -20.303100
N -1.179800 -17.001500 -17.644200
C -0.994700 -16.197300 -18.825600
O -0.296800 -17.807400 -17.361900
C -0.101800 -15.312200 -20.580900
N 0.116200 -16.233000 -19.617600
H 0.477100 -15.075700 -21.296000
H 1.148400 -17.970900 -19.519100
C 1.359300 -17.014800 -19.492300
H 1.795800 -16.800500 -18.641400
H 1.961100 -16.792400 -20.233100
