42
Fragment
H -8.937700 -18.365200 -45.493600
C -8.018800 -18.169300 -45.634400
H -7.891800 -19.023500 -47.481900
H -7.714700 -17.253200 -43.839800
C -7.404000 -18.543100 -46.822800
C -7.289800 -17.507900 -44.651100
N -6.782900 -13.202600 -43.588700
N -6.721500 -14.510500 -43.358300
H -6.385400 -16.744300 -38.463100
H -6.183000 -14.486800 -40.545800
C -6.073600 -18.211600 -47.044300
C -5.941200 -17.217000 -44.845900
H -5.778800 -11.244100 -45.385700
H -5.661300 -18.435800 -47.870400
N -5.635000 -12.896200 -44.190000
N -5.568200 -18.489900 -40.763000
C -5.535200 -15.001800 -43.822000
N -5.518300 -18.332200 -42.080600
N -5.491300 -17.260500 -40.241200
C -5.476000 -16.768100 -38.855000
C -5.425000 -16.997200 -42.368200
C -5.406600 -16.302800 -41.177600
C -5.340500 -17.551000 -46.060200
C -5.314200 -14.960500 -40.525300
H -5.300800 -14.715900 -38.422600
C -5.160100 -16.471100 -43.763500
C -5.149900 -11.623200 -44.720700
H -5.000300 -10.963300 -43.999000
C -4.912000 -15.351000 -39.075500
H -4.883200 -17.313000 -38.279600
C -4.826100 -13.954700 -44.364600
H -4.623000 -14.395300 -40.953200
H -4.430300 -17.327500 -46.216600
H -3.927200 -15.348000 -38.972900
H -3.869800 -11.906000 -46.359600
C -3.821500 -12.046800 -45.380800
O -3.774200 -16.598400 -44.073200
C -3.575400 -13.552000 -45.071400
H -3.451400 -14.073000 -45.903700
H -3.318100 -16.236300 -43.467500
H -3.076300 -11.501200 -45.024200
H -2.781900 -13.673600 -44.492700
42
Fragment
H -10.675800 -9.145900 -49.931600
H -10.381300 -6.973500 -49.400100
H -10.139500 -11.708600 -50.956700
H -10.006200 -9.545300 -48.520600
C -9.882200 -9.024300 -49.352900
O -9.683400 -12.070700 -50.351100
C -9.636200 -7.519100 -49.043400
H -9.587800 -7.378300 -48.064700
H -9.530400 -10.820300 -55.451300
H -9.027300 -12.799800 -48.207600
H -8.834600 -9.867600 -53.471100
C -8.631500 -9.427000 -50.059700
H -8.574500 -12.785300 -56.144700
C -8.545600 -10.823400 -55.348800
H -8.457300 -6.435700 -50.425300
C -8.307700 -7.095500 -49.703600
C -8.297500 -11.943400 -50.660800
H -8.156800 -10.188200 -56.001700
C -8.143400 -10.432800 -53.899000
C -8.117100 -13.023400 -48.364100
C -8.051000 -11.775100 -53.246700
C -8.032600 -12.469500 -52.056100
C -7.981600 -12.240400 -55.569200
N -7.966300 -12.732800 -54.183100
N -7.939300 -13.804500 -52.343700
C -7.922400 -10.474100 -50.602200
N -7.889500 -13.962200 -53.661300
N -7.822600 -8.368500 -50.234300
H -7.796300 -13.908200 -46.553900
H -7.678800 -6.716400 -49.038600
C -7.516400 -12.689300 -49.578400
C -7.384000 -13.683900 -47.379900
H -7.274600 -9.959100 -53.878500
H -7.072200 -12.216600 -55.961200
N -6.736100 -9.982800 -51.066000
N -6.674700 -8.674900 -50.835600
C -6.167800 -12.980300 -49.773200
C -6.053600 -14.015400 -47.601400
H -5.742900 -12.725500 -50.584400
H -5.565800 -14.495900 -46.942400
C -5.438800 -13.641600 -48.789800
H -4.519900 -13.837500 -48.930700
84
Fragment
H -8.937700 -18.365200 -45.493600
C -8.018800 -18.169300 -45.634400
H -7.891800 -19.023500 -47.481900
H -7.714700 -17.253200 -43.839800
C -7.404000 -18.543100 -46.822800
C -7.289800 -17.507900 -44.651100
N -6.782900 -13.202600 -43.588700
N -6.721500 -14.510500 -43.358300
H -6.385400 -16.744300 -38.463100
H -6.183000 -14.486800 -40.545800
C -6.073600 -18.211600 -47.044300
C -5.941200 -17.217000 -44.845900
H -5.778800 -11.244100 -45.385700
H -5.661300 -18.435800 -47.870400
N -5.635000 -12.896200 -44.190000
N -5.568200 -18.489900 -40.763000
C -5.535200 -15.001800 -43.822000
N -5.518300 -18.332200 -42.080600
N -5.491300 -17.260500 -40.241200
C -5.476000 -16.768100 -38.855000
C -5.425000 -16.997200 -42.368200
C -5.406600 -16.302800 -41.177600
C -5.340500 -17.551000 -46.060200
C -5.314200 -14.960500 -40.525300
H -5.300800 -14.715900 -38.422600
C -5.160100 -16.471100 -43.763500
C -5.149900 -11.623200 -44.720700
H -5.000300 -10.963300 -43.999000
C -4.912000 -15.351000 -39.075500
H -4.883200 -17.313000 -38.279600
C -4.826100 -13.954700 -44.364600
H -4.623000 -14.395300 -40.953200
H -4.430300 -17.327500 -46.216600
H -3.927200 -15.348000 -38.972900
H -3.869800 -11.906000 -46.359600
C -3.821500 -12.046800 -45.380800
O -3.774200 -16.598400 -44.073200
C -3.575400 -13.552000 -45.071400
H -3.451400 -14.073000 -45.903700
H -3.318100 -16.236300 -43.467500
H -3.076300 -11.501200 -45.024200
H -2.781900 -13.673600 -44.492700
H -10.675800 -9.145900 -49.931600
H -10.381300 -6.973500 -49.400100
H -10.139500 -11.708600 -50.956700
H -10.006200 -9.545300 -48.520600
C -9.882200 -9.024300 -49.352900
O -9.683400 -12.070700 -50.351100
C -9.636200 -7.519100 -49.043400
H -9.587800 -7.378300 -48.064700
H -9.530400 -10.820300 -55.451300
H -9.027300 -12.799800 -48.207600
H -8.834600 -9.867600 -53.471100
C -8.631500 -9.427000 -50.059700
H -8.574500 -12.785300 -56.144700
C -8.545600 -10.823400 -55.348800
H -8.457300 -6.435700 -50.425300
C -8.307700 -7.095500 -49.703600
C -8.297500 -11.943400 -50.660800
H -8.156800 -10.188200 -56.001700
C -8.143400 -10.432800 -53.899000
C -8.117100 -13.023400 -48.364100
C -8.051000 -11.775100 -53.246700
C -8.032600 -12.469500 -52.056100
C -7.981600 -12.240400 -55.569200
N -7.966300 -12.732800 -54.183100
N -7.939300 -13.804500 -52.343700
C -7.922400 -10.474100 -50.602200
N -7.889500 -13.962200 -53.661300
N -7.822600 -8.368500 -50.234300
H -7.796300 -13.908200 -46.553900
H -7.678800 -6.716400 -49.038600
C -7.516400 -12.689300 -49.578400
C -7.384000 -13.683900 -47.379900
H -7.274600 -9.959100 -53.878500
H -7.072200 -12.216600 -55.961200
N -6.736100 -9.982800 -51.066000
N -6.674700 -8.674900 -50.835600
C -6.167800 -12.980300 -49.773200
C -6.053600 -14.015400 -47.601400
H -5.742900 -12.725500 -50.584400
H -5.565800 -14.495900 -46.942400
C -5.438800 -13.641600 -48.789800
H -4.519900 -13.837500 -48.930700
