42
Fragment
H -8.937700 -18.365200 -45.493600
C -8.018800 -18.169300 -45.634400
H -7.891800 -19.023500 -47.481900
H -7.714700 -17.253200 -43.839800
C -7.404000 -18.543100 -46.822800
C -7.289800 -17.507900 -44.651100
N -6.782900 -13.202600 -43.588700
N -6.721500 -14.510500 -43.358300
H -6.385400 -16.744300 -38.463100
H -6.183000 -14.486800 -40.545800
C -6.073600 -18.211600 -47.044300
C -5.941200 -17.217000 -44.845900
H -5.778800 -11.244100 -45.385700
H -5.661300 -18.435800 -47.870400
N -5.635000 -12.896200 -44.190000
N -5.568200 -18.489900 -40.763000
C -5.535200 -15.001800 -43.822000
N -5.518300 -18.332200 -42.080600
N -5.491300 -17.260500 -40.241200
C -5.476000 -16.768100 -38.855000
C -5.425000 -16.997200 -42.368200
C -5.406600 -16.302800 -41.177600
C -5.340500 -17.551000 -46.060200
C -5.314200 -14.960500 -40.525300
H -5.300800 -14.715900 -38.422600
C -5.160100 -16.471100 -43.763500
C -5.149900 -11.623200 -44.720700
H -5.000300 -10.963300 -43.999000
C -4.912000 -15.351000 -39.075500
H -4.883200 -17.313000 -38.279600
C -4.826100 -13.954700 -44.364600
H -4.623000 -14.395300 -40.953200
H -4.430300 -17.327500 -46.216600
H -3.927200 -15.348000 -38.972900
H -3.869800 -11.906000 -46.359600
C -3.821500 -12.046800 -45.380800
O -3.774200 -16.598400 -44.073200
C -3.575400 -13.552000 -45.071400
H -3.451400 -14.073000 -45.903700
H -3.318100 -16.236300 -43.467500
H -3.076300 -11.501200 -45.024200
H -2.781900 -13.673600 -44.492700
42
Fragment
H -4.922100 -22.547900 -36.442400
H -4.627700 -24.720300 -35.910900
H -4.385900 -19.985200 -37.467600
H -4.252600 -22.148600 -35.031400
C -4.128600 -22.669500 -35.863700
O -3.929800 -19.623100 -36.861900
C -3.882500 -24.174700 -35.554200
H -3.834200 -24.315500 -34.575500
H -3.776800 -20.873600 -41.962100
H -3.273700 -18.894100 -34.718500
H -3.081000 -21.826200 -39.981900
C -2.877900 -22.266800 -36.570500
H -2.820800 -18.908500 -42.655500
C -2.792000 -20.870500 -41.859600
H -2.703700 -25.258200 -36.936100
C -2.554100 -24.598300 -36.214400
C -2.543900 -19.750400 -37.171600
H -2.403200 -21.505600 -42.512500
C -2.389800 -21.261000 -40.409800
C -2.363500 -18.670500 -34.874900
C -2.297400 -19.918800 -39.757500
C -2.279000 -19.224300 -38.566900
C -2.228000 -19.453400 -42.080000
N -2.212700 -18.961100 -40.693900
N -2.185700 -17.889400 -38.854500
C -2.168800 -21.219700 -37.113100
N -2.135800 -17.731600 -40.172100
N -2.069000 -23.325300 -36.745100
H -2.042700 -17.785700 -33.064700
H -1.925200 -24.977500 -35.549400
C -1.762800 -19.004500 -36.089200
C -1.630400 -18.009900 -33.890800
H -1.521000 -21.734700 -40.389300
H -1.318600 -19.477200 -42.472000
N -0.982500 -21.711000 -37.576800
N -0.921100 -23.019000 -37.346400
C -0.414200 -18.713600 -36.284000
C -0.300000 -17.678500 -34.112300
H 0.010700 -18.968300 -37.095300
H 0.187800 -17.198000 -33.453200
C 0.314800 -18.052300 -35.300700
H 1.233700 -17.856300 -35.441500
84
Fragment
H -8.937700 -18.365200 -45.493600
C -8.018800 -18.169300 -45.634400
H -7.891800 -19.023500 -47.481900
H -7.714700 -17.253200 -43.839800
C -7.404000 -18.543100 -46.822800
C -7.289800 -17.507900 -44.651100
N -6.782900 -13.202600 -43.588700
N -6.721500 -14.510500 -43.358300
H -6.385400 -16.744300 -38.463100
H -6.183000 -14.486800 -40.545800
C -6.073600 -18.211600 -47.044300
C -5.941200 -17.217000 -44.845900
H -5.778800 -11.244100 -45.385700
H -5.661300 -18.435800 -47.870400
N -5.635000 -12.896200 -44.190000
N -5.568200 -18.489900 -40.763000
C -5.535200 -15.001800 -43.822000
N -5.518300 -18.332200 -42.080600
N -5.491300 -17.260500 -40.241200
C -5.476000 -16.768100 -38.855000
C -5.425000 -16.997200 -42.368200
C -5.406600 -16.302800 -41.177600
C -5.340500 -17.551000 -46.060200
C -5.314200 -14.960500 -40.525300
H -5.300800 -14.715900 -38.422600
C -5.160100 -16.471100 -43.763500
C -5.149900 -11.623200 -44.720700
H -5.000300 -10.963300 -43.999000
C -4.912000 -15.351000 -39.075500
H -4.883200 -17.313000 -38.279600
C -4.826100 -13.954700 -44.364600
H -4.623000 -14.395300 -40.953200
H -4.430300 -17.327500 -46.216600
H -3.927200 -15.348000 -38.972900
H -3.869800 -11.906000 -46.359600
C -3.821500 -12.046800 -45.380800
O -3.774200 -16.598400 -44.073200
C -3.575400 -13.552000 -45.071400
H -3.451400 -14.073000 -45.903700
H -3.318100 -16.236300 -43.467500
H -3.076300 -11.501200 -45.024200
H -2.781900 -13.673600 -44.492700
H -4.922100 -22.547900 -36.442400
H -4.627700 -24.720300 -35.910900
H -4.385900 -19.985200 -37.467600
H -4.252600 -22.148600 -35.031400
C -4.128600 -22.669500 -35.863700
O -3.929800 -19.623100 -36.861900
C -3.882500 -24.174700 -35.554200
H -3.834200 -24.315500 -34.575500
H -3.776800 -20.873600 -41.962100
H -3.273700 -18.894100 -34.718500
H -3.081000 -21.826200 -39.981900
C -2.877900 -22.266800 -36.570500
H -2.820800 -18.908500 -42.655500
C -2.792000 -20.870500 -41.859600
H -2.703700 -25.258200 -36.936100
C -2.554100 -24.598300 -36.214400
C -2.543900 -19.750400 -37.171600
H -2.403200 -21.505600 -42.512500
C -2.389800 -21.261000 -40.409800
C -2.363500 -18.670500 -34.874900
C -2.297400 -19.918800 -39.757500
C -2.279000 -19.224300 -38.566900
C -2.228000 -19.453400 -42.080000
N -2.212700 -18.961100 -40.693900
N -2.185700 -17.889400 -38.854500
C -2.168800 -21.219700 -37.113100
N -2.135800 -17.731600 -40.172100
N -2.069000 -23.325300 -36.745100
H -2.042700 -17.785700 -33.064700
H -1.925200 -24.977500 -35.549400
C -1.762800 -19.004500 -36.089200
C -1.630400 -18.009900 -33.890800
H -1.521000 -21.734700 -40.389300
H -1.318600 -19.477200 -42.472000
N -0.982500 -21.711000 -37.576800
N -0.921100 -23.019000 -37.346400
C -0.414200 -18.713600 -36.284000
C -0.300000 -17.678500 -34.112300
H 0.010700 -18.968300 -37.095300
H 0.187800 -17.198000 -33.453200
C 0.314800 -18.052300 -35.300700
H 1.233700 -17.856300 -35.441500
