42
Fragment
H -8.937700 -18.365200 -45.493600
C -8.018800 -18.169300 -45.634400
H -7.891800 -19.023500 -47.481900
H -7.714700 -17.253200 -43.839800
C -7.404000 -18.543100 -46.822800
C -7.289800 -17.507900 -44.651100
N -6.782900 -13.202600 -43.588700
N -6.721500 -14.510500 -43.358300
H -6.385400 -16.744300 -38.463100
H -6.183000 -14.486800 -40.545800
C -6.073600 -18.211600 -47.044300
C -5.941200 -17.217000 -44.845900
H -5.778800 -11.244100 -45.385700
H -5.661300 -18.435800 -47.870400
N -5.635000 -12.896200 -44.190000
N -5.568200 -18.489900 -40.763000
C -5.535200 -15.001800 -43.822000
N -5.518300 -18.332200 -42.080600
N -5.491300 -17.260500 -40.241200
C -5.476000 -16.768100 -38.855000
C -5.425000 -16.997200 -42.368200
C -5.406600 -16.302800 -41.177600
C -5.340500 -17.551000 -46.060200
C -5.314200 -14.960500 -40.525300
H -5.300800 -14.715900 -38.422600
C -5.160100 -16.471100 -43.763500
C -5.149900 -11.623200 -44.720700
H -5.000300 -10.963300 -43.999000
C -4.912000 -15.351000 -39.075500
H -4.883200 -17.313000 -38.279600
C -4.826100 -13.954700 -44.364600
H -4.623000 -14.395300 -40.953200
H -4.430300 -17.327500 -46.216600
H -3.927200 -15.348000 -38.972900
H -3.869800 -11.906000 -46.359600
C -3.821500 -12.046800 -45.380800
O -3.774200 -16.598400 -44.073200
C -3.575400 -13.552000 -45.071400
H -3.451400 -14.073000 -45.903700
H -3.318100 -16.236300 -43.467500
H -3.076300 -11.501200 -45.024200
H -2.781900 -13.673600 -44.492700
42
Fragment
H -11.626600 -13.492500 -36.442400
H -11.332200 -15.664900 -35.910900
H -11.090400 -10.929800 -37.467600
H -10.957000 -13.093200 -35.031400
C -10.833100 -13.614100 -35.863700
O -10.634200 -10.567700 -36.861900
C -10.587000 -15.119300 -35.554200
H -10.538600 -15.260100 -34.575500
H -10.481200 -11.818200 -41.962100
H -9.978100 -9.838700 -34.718500
H -9.785400 -12.770800 -39.981900
C -9.582300 -13.211400 -36.570500
H -9.525300 -9.853200 -42.655500
C -9.496400 -11.815100 -41.859600
H -9.408100 -16.202800 -36.936100
C -9.258500 -15.542900 -36.214400
C -9.248300 -10.695000 -37.171600
H -9.107600 -12.450200 -42.512500
C -9.094200 -12.205700 -40.409800
C -9.067900 -9.615100 -34.874900
C -9.001800 -10.863400 -39.757500
C -8.983400 -10.168900 -38.566900
C -8.932500 -10.398000 -42.080000
N -8.917100 -9.905700 -40.693900
N -8.890100 -8.834000 -38.854500
C -8.873300 -12.164400 -37.113100
N -8.840300 -8.676200 -40.172100
N -8.773400 -14.269900 -36.745100
H -8.747100 -8.730300 -33.064700
H -8.629600 -15.922100 -35.549400
C -8.467200 -9.949100 -36.089200
C -8.334800 -8.954500 -33.890800
H -8.225400 -12.679300 -40.389300
H -8.023000 -10.421800 -42.472000
N -7.686900 -12.655600 -37.576800
N -7.625500 -13.963600 -37.346400
C -7.118600 -9.658200 -36.284000
C -7.004400 -8.623100 -34.112300
H -6.693700 -9.912900 -37.095300
H -6.516600 -8.142600 -33.453200
C -6.389600 -8.996900 -35.300700
H -5.470700 -8.800900 -35.441500
84
Fragment
H -8.937700 -18.365200 -45.493600
C -8.018800 -18.169300 -45.634400
H -7.891800 -19.023500 -47.481900
H -7.714700 -17.253200 -43.839800
C -7.404000 -18.543100 -46.822800
C -7.289800 -17.507900 -44.651100
N -6.782900 -13.202600 -43.588700
N -6.721500 -14.510500 -43.358300
H -6.385400 -16.744300 -38.463100
H -6.183000 -14.486800 -40.545800
C -6.073600 -18.211600 -47.044300
C -5.941200 -17.217000 -44.845900
H -5.778800 -11.244100 -45.385700
H -5.661300 -18.435800 -47.870400
N -5.635000 -12.896200 -44.190000
N -5.568200 -18.489900 -40.763000
C -5.535200 -15.001800 -43.822000
N -5.518300 -18.332200 -42.080600
N -5.491300 -17.260500 -40.241200
C -5.476000 -16.768100 -38.855000
C -5.425000 -16.997200 -42.368200
C -5.406600 -16.302800 -41.177600
C -5.340500 -17.551000 -46.060200
C -5.314200 -14.960500 -40.525300
H -5.300800 -14.715900 -38.422600
C -5.160100 -16.471100 -43.763500
C -5.149900 -11.623200 -44.720700
H -5.000300 -10.963300 -43.999000
C -4.912000 -15.351000 -39.075500
H -4.883200 -17.313000 -38.279600
C -4.826100 -13.954700 -44.364600
H -4.623000 -14.395300 -40.953200
H -4.430300 -17.327500 -46.216600
H -3.927200 -15.348000 -38.972900
H -3.869800 -11.906000 -46.359600
C -3.821500 -12.046800 -45.380800
O -3.774200 -16.598400 -44.073200
C -3.575400 -13.552000 -45.071400
H -3.451400 -14.073000 -45.903700
H -3.318100 -16.236300 -43.467500
H -3.076300 -11.501200 -45.024200
H -2.781900 -13.673600 -44.492700
H -11.626600 -13.492500 -36.442400
H -11.332200 -15.664900 -35.910900
H -11.090400 -10.929800 -37.467600
H -10.957000 -13.093200 -35.031400
C -10.833100 -13.614100 -35.863700
O -10.634200 -10.567700 -36.861900
C -10.587000 -15.119300 -35.554200
H -10.538600 -15.260100 -34.575500
H -10.481200 -11.818200 -41.962100
H -9.978100 -9.838700 -34.718500
H -9.785400 -12.770800 -39.981900
C -9.582300 -13.211400 -36.570500
H -9.525300 -9.853200 -42.655500
C -9.496400 -11.815100 -41.859600
H -9.408100 -16.202800 -36.936100
C -9.258500 -15.542900 -36.214400
C -9.248300 -10.695000 -37.171600
H -9.107600 -12.450200 -42.512500
C -9.094200 -12.205700 -40.409800
C -9.067900 -9.615100 -34.874900
C -9.001800 -10.863400 -39.757500
C -8.983400 -10.168900 -38.566900
C -8.932500 -10.398000 -42.080000
N -8.917100 -9.905700 -40.693900
N -8.890100 -8.834000 -38.854500
C -8.873300 -12.164400 -37.113100
N -8.840300 -8.676200 -40.172100
N -8.773400 -14.269900 -36.745100
H -8.747100 -8.730300 -33.064700
H -8.629600 -15.922100 -35.549400
C -8.467200 -9.949100 -36.089200
C -8.334800 -8.954500 -33.890800
H -8.225400 -12.679300 -40.389300
H -8.023000 -10.421800 -42.472000
N -7.686900 -12.655600 -37.576800
N -7.625500 -13.963600 -37.346400
C -7.118600 -9.658200 -36.284000
C -7.004400 -8.623100 -34.112300
H -6.693700 -9.912900 -37.095300
H -6.516600 -8.142600 -33.453200
C -6.389600 -8.996900 -35.300700
H -5.470700 -8.800900 -35.441500
