42
Fragment
H -8.937700 -18.365200 -45.493600
C -8.018800 -18.169300 -45.634400
H -7.891800 -19.023500 -47.481900
H -7.714700 -17.253200 -43.839800
C -7.404000 -18.543100 -46.822800
C -7.289800 -17.507900 -44.651100
N -6.782900 -13.202600 -43.588700
N -6.721500 -14.510500 -43.358300
H -6.385400 -16.744300 -38.463100
H -6.183000 -14.486800 -40.545800
C -6.073600 -18.211600 -47.044300
C -5.941200 -17.217000 -44.845900
H -5.778800 -11.244100 -45.385700
H -5.661300 -18.435800 -47.870400
N -5.635000 -12.896200 -44.190000
N -5.568200 -18.489900 -40.763000
C -5.535200 -15.001800 -43.822000
N -5.518300 -18.332200 -42.080600
N -5.491300 -17.260500 -40.241200
C -5.476000 -16.768100 -38.855000
C -5.425000 -16.997200 -42.368200
C -5.406600 -16.302800 -41.177600
C -5.340500 -17.551000 -46.060200
C -5.314200 -14.960500 -40.525300
H -5.300800 -14.715900 -38.422600
C -5.160100 -16.471100 -43.763500
C -5.149900 -11.623200 -44.720700
H -5.000300 -10.963300 -43.999000
C -4.912000 -15.351000 -39.075500
H -4.883200 -17.313000 -38.279600
C -4.826100 -13.954700 -44.364600
H -4.623000 -14.395300 -40.953200
H -4.430300 -17.327500 -46.216600
H -3.927200 -15.348000 -38.972900
H -3.869800 -11.906000 -46.359600
C -3.821500 -12.046800 -45.380800
O -3.774200 -16.598400 -44.073200
C -3.575400 -13.552000 -45.071400
H -3.451400 -14.073000 -45.903700
H -3.318100 -16.236300 -43.467500
H -3.076300 -11.501200 -45.024200
H -2.781900 -13.673600 -44.492700
42
Fragment
H -15.642100 -27.420600 -45.493600
C -14.723200 -27.224600 -45.634400
H -14.596200 -28.078900 -47.481900
H -14.419100 -26.308600 -43.839800
C -14.108400 -27.598400 -46.822800
C -13.994200 -26.563300 -44.651100
N -13.487400 -22.257900 -43.588700
N -13.426000 -23.565900 -43.358300
H -13.089800 -25.799700 -38.463100
H -12.887400 -23.542200 -40.545800
C -12.778000 -27.267000 -47.044300
C -12.645600 -26.272400 -44.845900
H -12.483200 -20.299400 -45.385700
H -12.365700 -27.491200 -47.870400
N -12.339400 -21.951600 -44.190000
N -12.272600 -27.545300 -40.763000
C -12.239600 -24.057200 -43.822000
N -12.222700 -27.387500 -42.080600
N -12.195700 -26.315800 -40.241200
C -12.180400 -25.823500 -38.855000
C -12.129400 -26.052600 -42.368200
C -12.111000 -25.358100 -41.177600
C -12.044900 -26.606400 -46.060200
C -12.018600 -24.015900 -40.525300
H -12.005200 -23.771300 -38.422600
C -11.864500 -25.526500 -43.763500
C -11.854300 -20.678600 -44.720700
H -11.704700 -20.018700 -43.999000
C -11.616400 -24.406400 -39.075500
H -11.587600 -26.368400 -38.279600
C -11.530500 -23.010100 -44.364600
H -11.327400 -23.450700 -40.953200
H -11.134700 -26.382800 -46.216600
H -10.631600 -24.403300 -38.972900
H -10.574200 -20.961400 -46.359600
C -10.525900 -21.102200 -45.380800
O -10.478700 -25.653800 -44.073200
C -10.279800 -22.607400 -45.071400
H -10.155800 -23.128300 -45.903700
H -10.022500 -25.291700 -43.467500
H -9.780700 -20.556600 -45.024200
H -9.486300 -22.729000 -44.492700
84
Fragment
H -8.937700 -18.365200 -45.493600
C -8.018800 -18.169300 -45.634400
H -7.891800 -19.023500 -47.481900
H -7.714700 -17.253200 -43.839800
C -7.404000 -18.543100 -46.822800
C -7.289800 -17.507900 -44.651100
N -6.782900 -13.202600 -43.588700
N -6.721500 -14.510500 -43.358300
H -6.385400 -16.744300 -38.463100
H -6.183000 -14.486800 -40.545800
C -6.073600 -18.211600 -47.044300
C -5.941200 -17.217000 -44.845900
H -5.778800 -11.244100 -45.385700
H -5.661300 -18.435800 -47.870400
N -5.635000 -12.896200 -44.190000
N -5.568200 -18.489900 -40.763000
C -5.535200 -15.001800 -43.822000
N -5.518300 -18.332200 -42.080600
N -5.491300 -17.260500 -40.241200
C -5.476000 -16.768100 -38.855000
C -5.425000 -16.997200 -42.368200
C -5.406600 -16.302800 -41.177600
C -5.340500 -17.551000 -46.060200
C -5.314200 -14.960500 -40.525300
H -5.300800 -14.715900 -38.422600
C -5.160100 -16.471100 -43.763500
C -5.149900 -11.623200 -44.720700
H -5.000300 -10.963300 -43.999000
C -4.912000 -15.351000 -39.075500
H -4.883200 -17.313000 -38.279600
C -4.826100 -13.954700 -44.364600
H -4.623000 -14.395300 -40.953200
H -4.430300 -17.327500 -46.216600
H -3.927200 -15.348000 -38.972900
H -3.869800 -11.906000 -46.359600
C -3.821500 -12.046800 -45.380800
O -3.774200 -16.598400 -44.073200
C -3.575400 -13.552000 -45.071400
H -3.451400 -14.073000 -45.903700
H -3.318100 -16.236300 -43.467500
H -3.076300 -11.501200 -45.024200
H -2.781900 -13.673600 -44.492700
H -15.642100 -27.420600 -45.493600
C -14.723200 -27.224600 -45.634400
H -14.596200 -28.078900 -47.481900
H -14.419100 -26.308600 -43.839800
C -14.108400 -27.598400 -46.822800
C -13.994200 -26.563300 -44.651100
N -13.487400 -22.257900 -43.588700
N -13.426000 -23.565900 -43.358300
H -13.089800 -25.799700 -38.463100
H -12.887400 -23.542200 -40.545800
C -12.778000 -27.267000 -47.044300
C -12.645600 -26.272400 -44.845900
H -12.483200 -20.299400 -45.385700
H -12.365700 -27.491200 -47.870400
N -12.339400 -21.951600 -44.190000
N -12.272600 -27.545300 -40.763000
C -12.239600 -24.057200 -43.822000
N -12.222700 -27.387500 -42.080600
N -12.195700 -26.315800 -40.241200
C -12.180400 -25.823500 -38.855000
C -12.129400 -26.052600 -42.368200
C -12.111000 -25.358100 -41.177600
C -12.044900 -26.606400 -46.060200
C -12.018600 -24.015900 -40.525300
H -12.005200 -23.771300 -38.422600
C -11.864500 -25.526500 -43.763500
C -11.854300 -20.678600 -44.720700
H -11.704700 -20.018700 -43.999000
C -11.616400 -24.406400 -39.075500
H -11.587600 -26.368400 -38.279600
C -11.530500 -23.010100 -44.364600
H -11.327400 -23.450700 -40.953200
H -11.134700 -26.382800 -46.216600
H -10.631600 -24.403300 -38.972900
H -10.574200 -20.961400 -46.359600
C -10.525900 -21.102200 -45.380800
O -10.478700 -25.653800 -44.073200
C -10.279800 -22.607400 -45.071400
H -10.155800 -23.128300 -45.903700
H -10.022500 -25.291700 -43.467500
H -9.780700 -20.556600 -45.024200
H -9.486300 -22.729000 -44.492700
