14
Fragment
O -22.323300 -5.827900 -24.163800
N -22.236200 -5.073200 -25.344000
N -21.140000 -5.727700 -23.409200
C -21.057000 -4.540400 -25.299200
H -20.920400 -3.513600 -27.044800
N -20.479700 -3.716500 -26.226900
C -20.381600 -4.940400 -24.102200
C -19.211500 -3.307400 -25.922100
N -19.113300 -4.531300 -23.797400
H -18.672600 -4.734200 -22.979500
C -18.536000 -3.707400 -24.725200
N -18.453100 -2.520100 -26.615100
N -17.356900 -3.174600 -24.680400
O -17.269700 -2.419900 -25.860600
12
Fragment
H -26.567800 -8.981900 -21.897300
H -25.956700 -7.950900 -23.648200
C -25.795700 -8.835000 -21.356600
O -25.722400 -9.238800 -20.192500
C -25.077900 -7.695200 -23.351700
H -24.946400 -6.783800 -23.409700
N -24.863800 -8.157500 -21.992900
H -24.395700 -8.054000 -23.976700
H -23.727700 -7.138500 -20.690100
C -23.610300 -7.814400 -21.342200
H -23.274800 -8.569500 -20.800100
H -22.962100 -7.575600 -21.940700
26
Fragment
O -22.323300 -5.827900 -24.163800
N -22.236200 -5.073200 -25.344000
N -21.140000 -5.727700 -23.409200
C -21.057000 -4.540400 -25.299200
H -20.920400 -3.513600 -27.044800
N -20.479700 -3.716500 -26.226900
C -20.381600 -4.940400 -24.102200
C -19.211500 -3.307400 -25.922100
N -19.113300 -4.531300 -23.797400
H -18.672600 -4.734200 -22.979500
C -18.536000 -3.707400 -24.725200
N -18.453100 -2.520100 -26.615100
N -17.356900 -3.174600 -24.680400
O -17.269700 -2.419900 -25.860600
H -26.567800 -8.981900 -21.897300
H -25.956700 -7.950900 -23.648200
C -25.795700 -8.835000 -21.356600
O -25.722400 -9.238800 -20.192500
C -25.077900 -7.695200 -23.351700
H -24.946400 -6.783800 -23.409700
N -24.863800 -8.157500 -21.992900
H -24.395700 -8.054000 -23.976700
H -23.727700 -7.138500 -20.690100
C -23.610300 -7.814400 -21.342200
H -23.274800 -8.569500 -20.800100
H -22.962100 -7.575600 -21.940700
