14
Fragment
O -22.323300 -5.827900 -24.163800
N -22.236200 -5.073200 -25.344000
N -21.140000 -5.727700 -23.409200
C -21.057000 -4.540400 -25.299200
H -20.920400 -3.513600 -27.044800
N -20.479700 -3.716500 -26.226900
C -20.381600 -4.940400 -24.102200
C -19.211500 -3.307400 -25.922100
N -19.113300 -4.531300 -23.797400
H -18.672600 -4.734200 -22.979500
C -18.536000 -3.707400 -24.725200
N -18.453100 -2.520100 -26.615100
N -17.356900 -3.174600 -24.680400
O -17.269700 -2.419900 -25.860600
12
Fragment
H -20.619700 -3.451700 -19.746300
H -20.306900 -4.445600 -20.886800
C -19.971500 -3.690500 -20.344700
H -19.854100 -3.014600 -20.996900
H -19.186100 -3.930100 -17.710300
N -18.717900 -4.033600 -19.694100
H -18.635400 -2.659900 -18.277200
C -18.503800 -3.571300 -18.335300
O -17.859300 -5.114900 -21.494500
C -17.786100 -4.711100 -20.330400
H -17.625000 -3.827000 -18.038800
H -17.014000 -4.858000 -19.789600
26
Fragment
O -22.323300 -5.827900 -24.163800
N -22.236200 -5.073200 -25.344000
N -21.140000 -5.727700 -23.409200
C -21.057000 -4.540400 -25.299200
H -20.920400 -3.513600 -27.044800
N -20.479700 -3.716500 -26.226900
C -20.381600 -4.940400 -24.102200
C -19.211500 -3.307400 -25.922100
N -19.113300 -4.531300 -23.797400
H -18.672600 -4.734200 -22.979500
C -18.536000 -3.707400 -24.725200
N -18.453100 -2.520100 -26.615100
N -17.356900 -3.174600 -24.680400
O -17.269700 -2.419900 -25.860600
H -20.619700 -3.451700 -19.746300
H -20.306900 -4.445600 -20.886800
C -19.971500 -3.690500 -20.344700
H -19.854100 -3.014600 -20.996900
H -19.186100 -3.930100 -17.710300
N -18.717900 -4.033600 -19.694100
H -18.635400 -2.659900 -18.277200
C -18.503800 -3.571300 -18.335300
O -17.859300 -5.114900 -21.494500
C -17.786100 -4.711100 -20.330400
H -17.625000 -3.827000 -18.038800
H -17.014000 -4.858000 -19.789600
