14
Fragment
O -22.323300 -5.827900 -24.163800
N -22.236200 -5.073200 -25.344000
N -21.140000 -5.727700 -23.409200
C -21.057000 -4.540400 -25.299200
H -20.920400 -3.513600 -27.044800
N -20.479700 -3.716500 -26.226900
C -20.381600 -4.940400 -24.102200
C -19.211500 -3.307400 -25.922100
N -19.113300 -4.531300 -23.797400
H -18.672600 -4.734200 -22.979500
C -18.536000 -3.707400 -24.725200
N -18.453100 -2.520100 -26.615100
N -17.356900 -3.174600 -24.680400
O -17.269700 -2.419900 -25.860600
14
Fragment
O -22.323300 -1.704000 -24.163800
N -22.236200 -0.949300 -25.344000
N -21.140000 -1.603800 -23.409200
C -21.057000 -0.416500 -25.299200
H -20.920400 0.610300 -27.044800
N -20.479700 0.407400 -26.226900
C -20.381600 -0.816500 -24.102200
C -19.211500 0.816500 -25.922100
N -19.113300 -0.407400 -23.797400
H -18.672600 -0.610300 -22.979500
C -18.536000 0.416500 -24.725200
N -18.453100 1.603800 -26.615100
N -17.356900 0.949300 -24.680400
O -17.269700 1.704000 -25.860600
28
Fragment
O -22.323300 -5.827900 -24.163800
N -22.236200 -5.073200 -25.344000
N -21.140000 -5.727700 -23.409200
C -21.057000 -4.540400 -25.299200
H -20.920400 -3.513600 -27.044800
N -20.479700 -3.716500 -26.226900
C -20.381600 -4.940400 -24.102200
C -19.211500 -3.307400 -25.922100
N -19.113300 -4.531300 -23.797400
H -18.672600 -4.734200 -22.979500
C -18.536000 -3.707400 -24.725200
N -18.453100 -2.520100 -26.615100
N -17.356900 -3.174600 -24.680400
O -17.269700 -2.419900 -25.860600
O -22.323300 -1.704000 -24.163800
N -22.236200 -0.949300 -25.344000
N -21.140000 -1.603800 -23.409200
C -21.057000 -0.416500 -25.299200
H -20.920400 0.610300 -27.044800
N -20.479700 0.407400 -26.226900
C -20.381600 -0.816500 -24.102200
C -19.211500 0.816500 -25.922100
N -19.113300 -0.407400 -23.797400
H -18.672600 -0.610300 -22.979500
C -18.536000 0.416500 -24.725200
N -18.453100 1.603800 -26.615100
N -17.356900 0.949300 -24.680400
O -17.269700 1.704000 -25.860600
