14
Fragment
O -22.323300 -5.827900 -24.163800
N -22.236200 -5.073200 -25.344000
N -21.140000 -5.727700 -23.409200
C -21.057000 -4.540400 -25.299200
H -20.920400 -3.513600 -27.044800
N -20.479700 -3.716500 -26.226900
C -20.381600 -4.940400 -24.102200
C -19.211500 -3.307400 -25.922100
N -19.113300 -4.531300 -23.797400
H -18.672600 -4.734200 -22.979500
C -18.536000 -3.707400 -24.725200
N -18.453100 -2.520100 -26.615100
N -17.356900 -3.174600 -24.680400
O -17.269700 -2.419900 -25.860600
12
Fragment
H -22.579100 0.734100 -30.234700
H -21.968000 -0.296900 -31.985600
C -21.807000 0.587200 -29.694000
O -21.733700 0.991000 -28.529900
C -21.089200 -0.552600 -31.689100
H -20.957700 -1.464000 -31.747100
N -20.875100 -0.090300 -30.330300
H -20.406900 -0.193800 -32.314100
H -19.739000 -1.109300 -29.027500
C -19.621600 -0.433400 -29.679600
H -19.286100 0.321700 -29.137500
H -18.973400 -0.672200 -30.278100
26
Fragment
O -22.323300 -5.827900 -24.163800
N -22.236200 -5.073200 -25.344000
N -21.140000 -5.727700 -23.409200
C -21.057000 -4.540400 -25.299200
H -20.920400 -3.513600 -27.044800
N -20.479700 -3.716500 -26.226900
C -20.381600 -4.940400 -24.102200
C -19.211500 -3.307400 -25.922100
N -19.113300 -4.531300 -23.797400
H -18.672600 -4.734200 -22.979500
C -18.536000 -3.707400 -24.725200
N -18.453100 -2.520100 -26.615100
N -17.356900 -3.174600 -24.680400
O -17.269700 -2.419900 -25.860600
H -22.579100 0.734100 -30.234700
H -21.968000 -0.296900 -31.985600
C -21.807000 0.587200 -29.694000
O -21.733700 0.991000 -28.529900
C -21.089200 -0.552600 -31.689100
H -20.957700 -1.464000 -31.747100
N -20.875100 -0.090300 -30.330300
H -20.406900 -0.193800 -32.314100
H -19.739000 -1.109300 -29.027500
C -19.621600 -0.433400 -29.679600
H -19.286100 0.321700 -29.137500
H -18.973400 -0.672200 -30.278100
