3
Fragment
H -20.191800 -14.943200 -27.805800
H -19.738000 -15.930900 -28.949600
O -19.395400 -15.223200 -28.336000
23
Fragment
H -25.576000 -14.758900 -27.948400
H -24.783400 -12.828900 -26.382200
C -24.631700 -14.516400 -27.731100
C -24.205600 -13.474500 -26.884500
H -24.095700 -16.703700 -29.471100
H -23.557100 -18.814100 -30.333300
H -23.548300 -17.742600 -31.565800
C -23.506500 -15.130500 -28.198700
C -23.313100 -16.202000 -29.102600
C -22.976800 -18.323200 -30.985200
C -22.866800 -13.533700 -26.896700
O -22.545700 -20.193100 -32.474900
O -22.392800 -14.521300 -27.679000
O -22.252400 -11.813600 -25.587800
C -22.148800 -19.279300 -31.809200
N -22.114700 -16.522300 -29.445100
N -21.962900 -17.557300 -30.309000
N -21.877000 -12.757900 -26.243100
N -20.835300 -18.902800 -31.631800
C -20.701300 -17.855000 -30.752300
O -20.695000 -13.082200 -26.389100
H -20.064100 -19.341400 -32.094200
O -19.673500 -17.321700 -30.406300
26
Fragment
H -20.191800 -14.943200 -27.805800
H -19.738000 -15.930900 -28.949600
O -19.395400 -15.223200 -28.336000
H -25.576000 -14.758900 -27.948400
H -24.783400 -12.828900 -26.382200
C -24.631700 -14.516400 -27.731100
C -24.205600 -13.474500 -26.884500
H -24.095700 -16.703700 -29.471100
H -23.557100 -18.814100 -30.333300
H -23.548300 -17.742600 -31.565800
C -23.506500 -15.130500 -28.198700
C -23.313100 -16.202000 -29.102600
C -22.976800 -18.323200 -30.985200
C -22.866800 -13.533700 -26.896700
O -22.545700 -20.193100 -32.474900
O -22.392800 -14.521300 -27.679000
O -22.252400 -11.813600 -25.587800
C -22.148800 -19.279300 -31.809200
N -22.114700 -16.522300 -29.445100
N -21.962900 -17.557300 -30.309000
N -21.877000 -12.757900 -26.243100
N -20.835300 -18.902800 -31.631800
C -20.701300 -17.855000 -30.752300
O -20.695000 -13.082200 -26.389100
H -20.064100 -19.341400 -32.094200
O -19.673500 -17.321700 -30.406300
