3
Fragment
H -20.191800 -14.943200 -27.805800
H -19.738000 -15.930900 -28.949600
O -19.395400 -15.223200 -28.336000
23
Fragment
O -24.573500 -22.250200 -30.406300
H -24.182900 -24.269900 -32.094200
O -23.552000 -18.010700 -26.389100
C -23.545700 -22.783500 -30.752300
N -23.411700 -23.831300 -31.631800
N -22.370000 -17.686400 -26.243100
N -22.284100 -22.485800 -30.309000
N -22.132300 -21.450800 -29.445100
C -22.098200 -24.207800 -31.809200
O -21.994600 -16.742100 -25.587800
O -21.854200 -19.449800 -27.679000
O -21.701300 -25.121600 -32.474900
C -21.380200 -18.462200 -26.896700
C -21.270200 -23.251700 -30.985200
C -20.933900 -21.130500 -29.102600
C -20.740500 -20.059000 -28.198700
H -20.698700 -22.671100 -31.565800
H -20.689900 -23.742600 -30.333300
H -20.151300 -21.632200 -29.471100
C -20.041400 -18.403000 -26.884500
C -19.615300 -19.444900 -27.731100
H -19.463600 -17.757400 -26.382200
H -18.671000 -19.687400 -27.948400
26
Fragment
H -20.191800 -14.943200 -27.805800
H -19.738000 -15.930900 -28.949600
O -19.395400 -15.223200 -28.336000
O -24.573500 -22.250200 -30.406300
H -24.182900 -24.269900 -32.094200
O -23.552000 -18.010700 -26.389100
C -23.545700 -22.783500 -30.752300
N -23.411700 -23.831300 -31.631800
N -22.370000 -17.686400 -26.243100
N -22.284100 -22.485800 -30.309000
N -22.132300 -21.450800 -29.445100
C -22.098200 -24.207800 -31.809200
O -21.994600 -16.742100 -25.587800
O -21.854200 -19.449800 -27.679000
O -21.701300 -25.121600 -32.474900
C -21.380200 -18.462200 -26.896700
C -21.270200 -23.251700 -30.985200
C -20.933900 -21.130500 -29.102600
C -20.740500 -20.059000 -28.198700
H -20.698700 -22.671100 -31.565800
H -20.689900 -23.742600 -30.333300
H -20.151300 -21.632200 -29.471100
C -20.041400 -18.403000 -26.884500
C -19.615300 -19.444900 -27.731100
H -19.463600 -17.757400 -26.382200
H -18.671000 -19.687400 -27.948400
