3
Fragment
H -20.191800 -14.943200 -27.805800
H -19.738000 -15.930900 -28.949600
O -19.395400 -15.223200 -28.336000
23
Fragment
O -24.573500 -12.393200 -30.406300
H -24.182900 -14.412900 -32.094200
O -23.552000 -8.153700 -26.389100
C -23.545700 -12.926500 -30.752300
N -23.411700 -13.974300 -31.631800
N -22.370000 -7.829400 -26.243100
N -22.284100 -12.628800 -30.309000
N -22.132300 -11.593800 -29.445100
C -22.098200 -14.350800 -31.809200
O -21.994600 -6.885100 -25.587800
O -21.854200 -9.592800 -27.679000
O -21.701300 -15.264600 -32.474900
C -21.380200 -8.605200 -26.896700
C -21.270200 -13.394700 -30.985200
C -20.933900 -11.273500 -29.102600
C -20.740500 -10.202000 -28.198700
H -20.698700 -12.814100 -31.565800
H -20.689900 -13.885600 -30.333300
H -20.151300 -11.775200 -29.471100
C -20.041400 -8.546000 -26.884500
C -19.615300 -9.587900 -27.731100
H -19.463600 -7.900400 -26.382200
H -18.671000 -9.830400 -27.948400
26
Fragment
H -20.191800 -14.943200 -27.805800
H -19.738000 -15.930900 -28.949600
O -19.395400 -15.223200 -28.336000
O -24.573500 -12.393200 -30.406300
H -24.182900 -14.412900 -32.094200
O -23.552000 -8.153700 -26.389100
C -23.545700 -12.926500 -30.752300
N -23.411700 -13.974300 -31.631800
N -22.370000 -7.829400 -26.243100
N -22.284100 -12.628800 -30.309000
N -22.132300 -11.593800 -29.445100
C -22.098200 -14.350800 -31.809200
O -21.994600 -6.885100 -25.587800
O -21.854200 -9.592800 -27.679000
O -21.701300 -15.264600 -32.474900
C -21.380200 -8.605200 -26.896700
C -21.270200 -13.394700 -30.985200
C -20.933900 -11.273500 -29.102600
C -20.740500 -10.202000 -28.198700
H -20.698700 -12.814100 -31.565800
H -20.689900 -13.885600 -30.333300
H -20.151300 -11.775200 -29.471100
C -20.041400 -8.546000 -26.884500
C -19.615300 -9.587900 -27.731100
H -19.463600 -7.900400 -26.382200
H -18.671000 -9.830400 -27.948400
