23
Fragment
H -26.442100 -11.144200 -25.137100
H -25.885000 -13.034500 -26.794000
C -25.604800 -11.554800 -25.290400
C -25.306200 -12.588100 -26.210000
H -24.906300 -9.726200 -23.318600
C -24.432000 -11.229200 -24.671400
H -24.277600 -8.819400 -21.132200
H -24.212500 -7.726100 -22.279200
C -24.127400 -10.235400 -23.680500
C -23.982300 -12.806500 -26.075400
C -23.677000 -8.265500 -21.680400
O -23.640100 -14.605800 -27.397700
O -23.399600 -11.995400 -25.155000
N -23.114700 -13.752400 -26.688400
O -23.111200 -6.477600 -20.118400
N -22.912000 -10.055200 -23.309500
C -22.778900 -7.409000 -20.810600
N -22.699000 -9.077000 -22.386600
O -21.902100 -13.670600 -26.470300
N -21.495700 -7.871300 -20.992700
C -21.423300 -8.862300 -21.952200
H -20.785600 -7.553800 -20.615200
O -20.414900 -9.417000 -22.351400
23
Fragment
H -26.442100 -12.520500 -34.112700
H -25.885000 -10.630200 -35.769600
C -25.604800 -12.109900 -34.266000
C -25.306200 -11.076600 -35.185600
H -24.906300 -13.938500 -32.294200
C -24.432000 -12.435500 -33.647000
H -24.277600 -14.845400 -30.107800
H -24.212500 -15.938700 -31.254800
C -24.127400 -13.429400 -32.656100
C -23.982300 -10.858200 -35.051000
C -23.677000 -15.399200 -30.656000
O -23.640100 -9.059000 -36.373300
O -23.399600 -11.669400 -34.130600
N -23.114700 -9.912300 -35.664000
O -23.111200 -17.187100 -29.094000
N -22.912000 -13.609600 -32.285100
C -22.778900 -16.255800 -29.786200
N -22.699000 -14.587700 -31.362200
O -21.902100 -9.994200 -35.445900
N -21.495700 -15.793500 -29.968300
C -21.423300 -14.802500 -30.927800
H -20.785600 -16.111000 -29.590800
O -20.414900 -14.247800 -31.327000
46
Fragment
H -26.442100 -11.144200 -25.137100
H -25.885000 -13.034500 -26.794000
C -25.604800 -11.554800 -25.290400
C -25.306200 -12.588100 -26.210000
H -24.906300 -9.726200 -23.318600
C -24.432000 -11.229200 -24.671400
H -24.277600 -8.819400 -21.132200
H -24.212500 -7.726100 -22.279200
C -24.127400 -10.235400 -23.680500
C -23.982300 -12.806500 -26.075400
C -23.677000 -8.265500 -21.680400
O -23.640100 -14.605800 -27.397700
O -23.399600 -11.995400 -25.155000
N -23.114700 -13.752400 -26.688400
O -23.111200 -6.477600 -20.118400
N -22.912000 -10.055200 -23.309500
C -22.778900 -7.409000 -20.810600
N -22.699000 -9.077000 -22.386600
O -21.902100 -13.670600 -26.470300
N -21.495700 -7.871300 -20.992700
C -21.423300 -8.862300 -21.952200
H -20.785600 -7.553800 -20.615200
O -20.414900 -9.417000 -22.351400
H -26.442100 -12.520500 -34.112700
H -25.885000 -10.630200 -35.769600
C -25.604800 -12.109900 -34.266000
C -25.306200 -11.076600 -35.185600
H -24.906300 -13.938500 -32.294200
C -24.432000 -12.435500 -33.647000
H -24.277600 -14.845400 -30.107800
H -24.212500 -15.938700 -31.254800
C -24.127400 -13.429400 -32.656100
C -23.982300 -10.858200 -35.051000
C -23.677000 -15.399200 -30.656000
O -23.640100 -9.059000 -36.373300
O -23.399600 -11.669400 -34.130600
N -23.114700 -9.912300 -35.664000
O -23.111200 -17.187100 -29.094000
N -22.912000 -13.609600 -32.285100
C -22.778900 -16.255800 -29.786200
N -22.699000 -14.587700 -31.362200
O -21.902100 -9.994200 -35.445900
N -21.495700 -15.793500 -29.968300
C -21.423300 -14.802500 -30.927800
H -20.785600 -16.111000 -29.590800
O -20.414900 -14.247800 -31.327000
