23
Fragment
H -26.442100 -11.144200 -25.137100
H -25.885000 -13.034500 -26.794000
C -25.604800 -11.554800 -25.290400
C -25.306200 -12.588100 -26.210000
H -24.906300 -9.726200 -23.318600
C -24.432000 -11.229200 -24.671400
H -24.277600 -8.819400 -21.132200
H -24.212500 -7.726100 -22.279200
C -24.127400 -10.235400 -23.680500
C -23.982300 -12.806500 -26.075400
C -23.677000 -8.265500 -21.680400
O -23.640100 -14.605800 -27.397700
O -23.399600 -11.995400 -25.155000
N -23.114700 -13.752400 -26.688400
O -23.111200 -6.477600 -20.118400
N -22.912000 -10.055200 -23.309500
C -22.778900 -7.409000 -20.810600
N -22.699000 -9.077000 -22.386600
O -21.902100 -13.670600 -26.470300
N -21.495700 -7.871300 -20.992700
C -21.423300 -8.862300 -21.952200
H -20.785600 -7.553800 -20.615200
O -20.414900 -9.417000 -22.351400
23
Fragment
H -32.949800 -12.520500 -28.716500
H -32.392700 -10.630200 -27.059600
C -32.112500 -12.109900 -28.563200
C -31.813900 -11.076600 -27.643600
H -31.414000 -13.938500 -30.535000
C -30.939700 -12.435500 -29.182200
H -30.785300 -14.845400 -32.721400
H -30.720200 -15.938700 -31.574400
C -30.635100 -13.429400 -30.173100
C -30.490000 -10.858200 -27.778200
C -30.184700 -15.399200 -32.173200
O -30.147800 -9.059000 -26.455900
O -29.907300 -11.669400 -28.698600
N -29.622400 -9.912300 -27.165200
O -29.618900 -17.187100 -33.735200
N -29.419700 -13.609600 -30.544100
C -29.286600 -16.255800 -33.043000
N -29.206700 -14.587700 -31.467000
O -28.409800 -9.994200 -27.383300
N -28.003400 -15.793500 -32.860900
C -27.931000 -14.802500 -31.901400
H -27.293300 -16.111000 -33.238400
O -26.922600 -14.247800 -31.502200
46
Fragment
H -26.442100 -11.144200 -25.137100
H -25.885000 -13.034500 -26.794000
C -25.604800 -11.554800 -25.290400
C -25.306200 -12.588100 -26.210000
H -24.906300 -9.726200 -23.318600
C -24.432000 -11.229200 -24.671400
H -24.277600 -8.819400 -21.132200
H -24.212500 -7.726100 -22.279200
C -24.127400 -10.235400 -23.680500
C -23.982300 -12.806500 -26.075400
C -23.677000 -8.265500 -21.680400
O -23.640100 -14.605800 -27.397700
O -23.399600 -11.995400 -25.155000
N -23.114700 -13.752400 -26.688400
O -23.111200 -6.477600 -20.118400
N -22.912000 -10.055200 -23.309500
C -22.778900 -7.409000 -20.810600
N -22.699000 -9.077000 -22.386600
O -21.902100 -13.670600 -26.470300
N -21.495700 -7.871300 -20.992700
C -21.423300 -8.862300 -21.952200
H -20.785600 -7.553800 -20.615200
O -20.414900 -9.417000 -22.351400
H -32.949800 -12.520500 -28.716500
H -32.392700 -10.630200 -27.059600
C -32.112500 -12.109900 -28.563200
C -31.813900 -11.076600 -27.643600
H -31.414000 -13.938500 -30.535000
C -30.939700 -12.435500 -29.182200
H -30.785300 -14.845400 -32.721400
H -30.720200 -15.938700 -31.574400
C -30.635100 -13.429400 -30.173100
C -30.490000 -10.858200 -27.778200
C -30.184700 -15.399200 -32.173200
O -30.147800 -9.059000 -26.455900
O -29.907300 -11.669400 -28.698600
N -29.622400 -9.912300 -27.165200
O -29.618900 -17.187100 -33.735200
N -29.419700 -13.609600 -30.544100
C -29.286600 -16.255800 -33.043000
N -29.206700 -14.587700 -31.467000
O -28.409800 -9.994200 -27.383300
N -28.003400 -15.793500 -32.860900
C -27.931000 -14.802500 -31.901400
H -27.293300 -16.111000 -33.238400
O -26.922600 -14.247800 -31.502200
