23
Fragment
H -26.442100 -11.144200 -25.137100
H -25.885000 -13.034500 -26.794000
C -25.604800 -11.554800 -25.290400
C -25.306200 -12.588100 -26.210000
H -24.906300 -9.726200 -23.318600
C -24.432000 -11.229200 -24.671400
H -24.277600 -8.819400 -21.132200
H -24.212500 -7.726100 -22.279200
C -24.127400 -10.235400 -23.680500
C -23.982300 -12.806500 -26.075400
C -23.677000 -8.265500 -21.680400
O -23.640100 -14.605800 -27.397700
O -23.399600 -11.995400 -25.155000
N -23.114700 -13.752400 -26.688400
O -23.111200 -6.477600 -20.118400
N -22.912000 -10.055200 -23.309500
C -22.778900 -7.409000 -20.810600
N -22.699000 -9.077000 -22.386600
O -21.902100 -13.670600 -26.470300
N -21.495700 -7.871300 -20.992700
C -21.423300 -8.862300 -21.952200
H -20.785600 -7.553800 -20.615200
O -20.414900 -9.417000 -22.351400
23
Fragment
O -31.646700 -18.980700 -31.502200
H -31.276000 -20.843900 -33.238400
C -30.638300 -19.535400 -31.901400
N -30.565900 -20.526400 -32.860900
O -30.159500 -14.727100 -27.383300
N -29.362600 -19.320700 -31.467000
C -29.282700 -20.988700 -33.043000
N -29.149600 -18.342500 -30.544100
O -28.950400 -21.920100 -33.735200
N -28.946900 -14.645300 -27.165200
O -28.662000 -16.402300 -28.698600
O -28.421500 -13.791900 -26.455900
C -28.384600 -20.132200 -32.173200
C -28.079300 -15.591200 -27.778200
C -27.934200 -18.162300 -30.173100
H -27.849100 -20.671600 -31.574400
H -27.784000 -19.578300 -32.721400
C -27.629600 -17.168500 -29.182200
H -27.155300 -18.671500 -30.535000
C -26.755400 -15.809600 -27.643600
C -26.456800 -16.842900 -28.563200
H -26.176600 -15.363200 -27.059600
H -25.619500 -17.253500 -28.716500
46
Fragment
H -26.442100 -11.144200 -25.137100
H -25.885000 -13.034500 -26.794000
C -25.604800 -11.554800 -25.290400
C -25.306200 -12.588100 -26.210000
H -24.906300 -9.726200 -23.318600
C -24.432000 -11.229200 -24.671400
H -24.277600 -8.819400 -21.132200
H -24.212500 -7.726100 -22.279200
C -24.127400 -10.235400 -23.680500
C -23.982300 -12.806500 -26.075400
C -23.677000 -8.265500 -21.680400
O -23.640100 -14.605800 -27.397700
O -23.399600 -11.995400 -25.155000
N -23.114700 -13.752400 -26.688400
O -23.111200 -6.477600 -20.118400
N -22.912000 -10.055200 -23.309500
C -22.778900 -7.409000 -20.810600
N -22.699000 -9.077000 -22.386600
O -21.902100 -13.670600 -26.470300
N -21.495700 -7.871300 -20.992700
C -21.423300 -8.862300 -21.952200
H -20.785600 -7.553800 -20.615200
O -20.414900 -9.417000 -22.351400
O -31.646700 -18.980700 -31.502200
H -31.276000 -20.843900 -33.238400
C -30.638300 -19.535400 -31.901400
N -30.565900 -20.526400 -32.860900
O -30.159500 -14.727100 -27.383300
N -29.362600 -19.320700 -31.467000
C -29.282700 -20.988700 -33.043000
N -29.149600 -18.342500 -30.544100
O -28.950400 -21.920100 -33.735200
N -28.946900 -14.645300 -27.165200
O -28.662000 -16.402300 -28.698600
O -28.421500 -13.791900 -26.455900
C -28.384600 -20.132200 -32.173200
C -28.079300 -15.591200 -27.778200
C -27.934200 -18.162300 -30.173100
H -27.849100 -20.671600 -31.574400
H -27.784000 -19.578300 -32.721400
C -27.629600 -17.168500 -29.182200
H -27.155300 -18.671500 -30.535000
C -26.755400 -15.809600 -27.643600
C -26.456800 -16.842900 -28.563200
H -26.176600 -15.363200 -27.059600
H -25.619500 -17.253500 -28.716500
