23
Fragment
H -26.442100 -11.144200 -25.137100
H -25.885000 -13.034500 -26.794000
C -25.604800 -11.554800 -25.290400
C -25.306200 -12.588100 -26.210000
H -24.906300 -9.726200 -23.318600
C -24.432000 -11.229200 -24.671400
H -24.277600 -8.819400 -21.132200
H -24.212500 -7.726100 -22.279200
C -24.127400 -10.235400 -23.680500
C -23.982300 -12.806500 -26.075400
C -23.677000 -8.265500 -21.680400
O -23.640100 -14.605800 -27.397700
O -23.399600 -11.995400 -25.155000
N -23.114700 -13.752400 -26.688400
O -23.111200 -6.477600 -20.118400
N -22.912000 -10.055200 -23.309500
C -22.778900 -7.409000 -20.810600
N -22.699000 -9.077000 -22.386600
O -21.902100 -13.670600 -26.470300
N -21.495700 -7.871300 -20.992700
C -21.423300 -8.862300 -21.952200
H -20.785600 -7.553800 -20.615200
O -20.414900 -9.417000 -22.351400
23
Fragment
H -19.934400 -11.144200 -19.740900
H -19.377300 -13.034500 -18.084000
C -19.097100 -11.554800 -19.587600
C -18.798500 -12.588100 -18.668000
H -18.398600 -9.726200 -21.559400
C -17.924300 -11.229200 -20.206600
H -17.769900 -8.819400 -23.745800
H -17.704800 -7.726100 -22.598800
C -17.619700 -10.235400 -21.197500
C -17.474600 -12.806500 -18.802600
C -17.169300 -8.265500 -23.197600
O -17.132400 -14.605800 -17.480300
O -16.891900 -11.995400 -19.723000
N -16.607000 -13.752400 -18.189600
O -16.603500 -6.477600 -24.759600
N -16.404300 -10.055200 -21.568500
C -16.271200 -7.409000 -24.067400
N -16.191300 -9.077000 -22.491400
O -15.394400 -13.670600 -18.407700
N -14.988000 -7.871300 -23.885300
C -14.915600 -8.862300 -22.925800
H -14.277900 -7.553800 -24.262800
O -13.907200 -9.417000 -22.526600
46
Fragment
H -26.442100 -11.144200 -25.137100
H -25.885000 -13.034500 -26.794000
C -25.604800 -11.554800 -25.290400
C -25.306200 -12.588100 -26.210000
H -24.906300 -9.726200 -23.318600
C -24.432000 -11.229200 -24.671400
H -24.277600 -8.819400 -21.132200
H -24.212500 -7.726100 -22.279200
C -24.127400 -10.235400 -23.680500
C -23.982300 -12.806500 -26.075400
C -23.677000 -8.265500 -21.680400
O -23.640100 -14.605800 -27.397700
O -23.399600 -11.995400 -25.155000
N -23.114700 -13.752400 -26.688400
O -23.111200 -6.477600 -20.118400
N -22.912000 -10.055200 -23.309500
C -22.778900 -7.409000 -20.810600
N -22.699000 -9.077000 -22.386600
O -21.902100 -13.670600 -26.470300
N -21.495700 -7.871300 -20.992700
C -21.423300 -8.862300 -21.952200
H -20.785600 -7.553800 -20.615200
O -20.414900 -9.417000 -22.351400
H -19.934400 -11.144200 -19.740900
H -19.377300 -13.034500 -18.084000
C -19.097100 -11.554800 -19.587600
C -18.798500 -12.588100 -18.668000
H -18.398600 -9.726200 -21.559400
C -17.924300 -11.229200 -20.206600
H -17.769900 -8.819400 -23.745800
H -17.704800 -7.726100 -22.598800
C -17.619700 -10.235400 -21.197500
C -17.474600 -12.806500 -18.802600
C -17.169300 -8.265500 -23.197600
O -17.132400 -14.605800 -17.480300
O -16.891900 -11.995400 -19.723000
N -16.607000 -13.752400 -18.189600
O -16.603500 -6.477600 -24.759600
N -16.404300 -10.055200 -21.568500
C -16.271200 -7.409000 -24.067400
N -16.191300 -9.077000 -22.491400
O -15.394400 -13.670600 -18.407700
N -14.988000 -7.871300 -23.885300
C -14.915600 -8.862300 -22.925800
H -14.277900 -7.553800 -24.262800
O -13.907200 -9.417000 -22.526600
