24
Fragment
H -7.435500 -15.165300 -39.801100
H -7.316200 -16.757200 -39.904000
C -6.812500 -15.916600 -39.886800
O -6.785600 -17.840900 -41.825400
H -6.716400 -18.469700 -44.877900
H -6.197900 -15.920900 -39.124400
C -6.109900 -16.817500 -42.060800
N -6.053500 -15.778900 -41.121900
C -5.770200 -18.590200 -44.652200
H -5.690600 -19.199400 -43.887200
C -5.360500 -16.544100 -43.216200
C -5.310400 -14.614300 -41.240500
O -5.303200 -13.801200 -40.319300
H -5.296900 -18.969100 -45.423400
N -5.199100 -17.330900 -44.316700
C -4.632900 -15.390300 -43.394200
N -4.602100 -14.432200 -42.401300
C -4.379700 -16.539800 -45.113800
H -4.124300 -12.692000 -43.292800
H -4.112100 -16.806700 -45.984300
N -3.973500 -15.319300 -44.547000
C -3.766400 -13.244100 -42.566500
H -3.764400 -12.727500 -41.733500
H -2.851000 -13.516400 -42.783400
24
Fragment
H -12.272600 -18.773200 -34.410400
H -11.359200 -19.562100 -35.460300
C -11.357200 -19.045500 -34.627300
N -11.150100 -16.970300 -32.646800
H -11.011500 -15.482900 -31.209400
H -10.999400 -19.597600 -33.900900
C -10.744000 -15.749800 -32.079900
N -10.521500 -17.857400 -34.792500
C -10.490700 -16.899300 -33.799600
N -9.924500 -14.958700 -32.877100
H -9.826700 -13.320500 -31.770400
O -9.820500 -18.488400 -36.874400
C -9.813300 -17.675300 -35.953300
C -9.763100 -15.745500 -33.977600
H -9.433000 -13.090200 -33.306500
C -9.353500 -13.699400 -32.541600
N -9.070100 -16.510700 -36.071900
C -9.013700 -15.472100 -35.132900
H -8.925700 -16.368700 -38.069400
H -8.407300 -13.819900 -32.315900
O -8.338000 -14.448700 -35.368400
C -8.311100 -16.373000 -37.307000
H -7.807400 -15.532400 -37.289700
H -7.688200 -17.124300 -37.392700
48
Fragment
H -7.435500 -15.165300 -39.801100
H -7.316200 -16.757200 -39.904000
C -6.812500 -15.916600 -39.886800
O -6.785600 -17.840900 -41.825400
H -6.716400 -18.469700 -44.877900
H -6.197900 -15.920900 -39.124400
C -6.109900 -16.817500 -42.060800
N -6.053500 -15.778900 -41.121900
C -5.770200 -18.590200 -44.652200
H -5.690600 -19.199400 -43.887200
C -5.360500 -16.544100 -43.216200
C -5.310400 -14.614300 -41.240500
O -5.303200 -13.801200 -40.319300
H -5.296900 -18.969100 -45.423400
N -5.199100 -17.330900 -44.316700
C -4.632900 -15.390300 -43.394200
N -4.602100 -14.432200 -42.401300
C -4.379700 -16.539800 -45.113800
H -4.124300 -12.692000 -43.292800
H -4.112100 -16.806700 -45.984300
N -3.973500 -15.319300 -44.547000
C -3.766400 -13.244100 -42.566500
H -3.764400 -12.727500 -41.733500
H -2.851000 -13.516400 -42.783400
H -12.272600 -18.773200 -34.410400
H -11.359200 -19.562100 -35.460300
C -11.357200 -19.045500 -34.627300
N -11.150100 -16.970300 -32.646800
H -11.011500 -15.482900 -31.209400
H -10.999400 -19.597600 -33.900900
C -10.744000 -15.749800 -32.079900
N -10.521500 -17.857400 -34.792500
C -10.490700 -16.899300 -33.799600
N -9.924500 -14.958700 -32.877100
H -9.826700 -13.320500 -31.770400
O -9.820500 -18.488400 -36.874400
C -9.813300 -17.675300 -35.953300
C -9.763100 -15.745500 -33.977600
H -9.433000 -13.090200 -33.306500
C -9.353500 -13.699400 -32.541600
N -9.070100 -16.510700 -36.071900
C -9.013700 -15.472100 -35.132900
H -8.925700 -16.368700 -38.069400
H -8.407300 -13.819900 -32.315900
O -8.338000 -14.448700 -35.368400
C -8.311100 -16.373000 -37.307000
H -7.807400 -15.532400 -37.289700
H -7.688200 -17.124300 -37.392700
