24
Fragment
H -7.435500 -15.165300 -39.801100
H -7.316200 -16.757200 -39.904000
C -6.812500 -15.916600 -39.886800
O -6.785600 -17.840900 -41.825400
H -6.716400 -18.469700 -44.877900
H -6.197900 -15.920900 -39.124400
C -6.109900 -16.817500 -42.060800
N -6.053500 -15.778900 -41.121900
C -5.770200 -18.590200 -44.652200
H -5.690600 -19.199400 -43.887200
C -5.360500 -16.544100 -43.216200
C -5.310400 -14.614300 -41.240500
O -5.303200 -13.801200 -40.319300
H -5.296900 -18.969100 -45.423400
N -5.199100 -17.330900 -44.316700
C -4.632900 -15.390300 -43.394200
N -4.602100 -14.432200 -42.401300
C -4.379700 -16.539800 -45.113800
H -4.124300 -12.692000 -43.292800
H -4.112100 -16.806700 -45.984300
N -3.973500 -15.319300 -44.547000
C -3.766400 -13.244100 -42.566500
H -3.764400 -12.727500 -41.733500
H -2.851000 -13.516400 -42.783400
29
Fragment
Cl -8.068500 -9.904200 -34.759600
H -7.561800 -12.313100 -36.108700
C -7.109000 -10.320800 -36.158600
C -7.085100 -11.642600 -36.582600
H -6.433200 -8.445900 -36.502400
C -6.411000 -9.339200 -36.825600
C -6.351900 -11.961100 -37.712000
H -6.325900 -12.860900 -38.012800
C -5.668800 -9.641700 -37.971900
C -5.653400 -10.982800 -38.412700
H -5.079500 -12.097800 -39.754800
O -5.011400 -7.364300 -38.141700
C -4.981500 -8.486800 -38.634700
O -4.952300 -11.304600 -39.536900
H -4.455900 -9.493100 -40.053300
N -4.349100 -8.760200 -39.822000
Cl -3.618800 -9.978700 -42.370600
C -3.599200 -7.904500 -40.623500
H -3.478000 -6.257700 -39.407400
C -3.202900 -6.608600 -40.246000
C -3.169700 -8.378100 -41.877600
C -2.413200 -5.839000 -41.088200
C -2.380300 -7.635400 -42.723700
H -2.147000 -4.964000 -40.830400
H -2.094400 -7.980900 -43.560500
C -2.017300 -6.362100 -42.308400
N -1.176200 -5.550600 -43.194600
O -0.880000 -5.998200 -44.296600
O -0.800500 -4.451600 -42.780500
53
Fragment
H -7.435500 -15.165300 -39.801100
H -7.316200 -16.757200 -39.904000
C -6.812500 -15.916600 -39.886800
O -6.785600 -17.840900 -41.825400
H -6.716400 -18.469700 -44.877900
H -6.197900 -15.920900 -39.124400
C -6.109900 -16.817500 -42.060800
N -6.053500 -15.778900 -41.121900
C -5.770200 -18.590200 -44.652200
H -5.690600 -19.199400 -43.887200
C -5.360500 -16.544100 -43.216200
C -5.310400 -14.614300 -41.240500
O -5.303200 -13.801200 -40.319300
H -5.296900 -18.969100 -45.423400
N -5.199100 -17.330900 -44.316700
C -4.632900 -15.390300 -43.394200
N -4.602100 -14.432200 -42.401300
C -4.379700 -16.539800 -45.113800
H -4.124300 -12.692000 -43.292800
H -4.112100 -16.806700 -45.984300
N -3.973500 -15.319300 -44.547000
C -3.766400 -13.244100 -42.566500
H -3.764400 -12.727500 -41.733500
H -2.851000 -13.516400 -42.783400
Cl -8.068500 -9.904200 -34.759600
H -7.561800 -12.313100 -36.108700
C -7.109000 -10.320800 -36.158600
C -7.085100 -11.642600 -36.582600
H -6.433200 -8.445900 -36.502400
C -6.411000 -9.339200 -36.825600
C -6.351900 -11.961100 -37.712000
H -6.325900 -12.860900 -38.012800
C -5.668800 -9.641700 -37.971900
C -5.653400 -10.982800 -38.412700
H -5.079500 -12.097800 -39.754800
O -5.011400 -7.364300 -38.141700
C -4.981500 -8.486800 -38.634700
O -4.952300 -11.304600 -39.536900
H -4.455900 -9.493100 -40.053300
N -4.349100 -8.760200 -39.822000
Cl -3.618800 -9.978700 -42.370600
C -3.599200 -7.904500 -40.623500
H -3.478000 -6.257700 -39.407400
C -3.202900 -6.608600 -40.246000
C -3.169700 -8.378100 -41.877600
C -2.413200 -5.839000 -41.088200
C -2.380300 -7.635400 -42.723700
H -2.147000 -4.964000 -40.830400
H -2.094400 -7.980900 -43.560500
C -2.017300 -6.362100 -42.308400
N -1.176200 -5.550600 -43.194600
O -0.880000 -5.998200 -44.296600
O -0.800500 -4.451600 -42.780500
