24
Fragment
H -7.435500 -15.165300 -39.801100
H -7.316200 -16.757200 -39.904000
C -6.812500 -15.916600 -39.886800
O -6.785600 -17.840900 -41.825400
H -6.716400 -18.469700 -44.877900
H -6.197900 -15.920900 -39.124400
C -6.109900 -16.817500 -42.060800
N -6.053500 -15.778900 -41.121900
C -5.770200 -18.590200 -44.652200
H -5.690600 -19.199400 -43.887200
C -5.360500 -16.544100 -43.216200
C -5.310400 -14.614300 -41.240500
O -5.303200 -13.801200 -40.319300
H -5.296900 -18.969100 -45.423400
N -5.199100 -17.330900 -44.316700
C -4.632900 -15.390300 -43.394200
N -4.602100 -14.432200 -42.401300
C -4.379700 -16.539800 -45.113800
H -4.124300 -12.692000 -43.292800
H -4.112100 -16.806700 -45.984300
N -3.973500 -15.319300 -44.547000
C -3.766400 -13.244100 -42.566500
H -3.764400 -12.727500 -41.733500
H -2.851000 -13.516400 -42.783400
29
Fragment
Cl -8.068500 -20.667400 -34.759600
H -7.561800 -23.076300 -36.108700
C -7.109000 -21.084000 -36.158600
C -7.085100 -22.405800 -36.582600
H -6.433200 -19.209100 -36.502400
C -6.411000 -20.102400 -36.825600
C -6.351900 -22.724300 -37.712000
H -6.325900 -23.624100 -38.012800
C -5.668800 -20.404900 -37.971900
C -5.653400 -21.746000 -38.412700
H -5.079500 -22.861000 -39.754800
O -5.011400 -18.127500 -38.141700
C -4.981500 -19.250000 -38.634700
O -4.952300 -22.067800 -39.536900
H -4.455900 -20.256300 -40.053300
N -4.349100 -19.523400 -39.822000
Cl -3.618800 -20.741900 -42.370600
C -3.599200 -18.667700 -40.623500
H -3.478000 -17.020900 -39.407400
C -3.202900 -17.371800 -40.246000
C -3.169700 -19.141300 -41.877600
C -2.413200 -16.602200 -41.088200
C -2.380300 -18.398600 -42.723700
H -2.147000 -15.727200 -40.830400
H -2.094400 -18.744100 -43.560500
C -2.017300 -17.125300 -42.308400
N -1.176200 -16.313800 -43.194600
O -0.880000 -16.761400 -44.296600
O -0.800500 -15.214800 -42.780500
53
Fragment
H -7.435500 -15.165300 -39.801100
H -7.316200 -16.757200 -39.904000
C -6.812500 -15.916600 -39.886800
O -6.785600 -17.840900 -41.825400
H -6.716400 -18.469700 -44.877900
H -6.197900 -15.920900 -39.124400
C -6.109900 -16.817500 -42.060800
N -6.053500 -15.778900 -41.121900
C -5.770200 -18.590200 -44.652200
H -5.690600 -19.199400 -43.887200
C -5.360500 -16.544100 -43.216200
C -5.310400 -14.614300 -41.240500
O -5.303200 -13.801200 -40.319300
H -5.296900 -18.969100 -45.423400
N -5.199100 -17.330900 -44.316700
C -4.632900 -15.390300 -43.394200
N -4.602100 -14.432200 -42.401300
C -4.379700 -16.539800 -45.113800
H -4.124300 -12.692000 -43.292800
H -4.112100 -16.806700 -45.984300
N -3.973500 -15.319300 -44.547000
C -3.766400 -13.244100 -42.566500
H -3.764400 -12.727500 -41.733500
H -2.851000 -13.516400 -42.783400
Cl -8.068500 -20.667400 -34.759600
H -7.561800 -23.076300 -36.108700
C -7.109000 -21.084000 -36.158600
C -7.085100 -22.405800 -36.582600
H -6.433200 -19.209100 -36.502400
C -6.411000 -20.102400 -36.825600
C -6.351900 -22.724300 -37.712000
H -6.325900 -23.624100 -38.012800
C -5.668800 -20.404900 -37.971900
C -5.653400 -21.746000 -38.412700
H -5.079500 -22.861000 -39.754800
O -5.011400 -18.127500 -38.141700
C -4.981500 -19.250000 -38.634700
O -4.952300 -22.067800 -39.536900
H -4.455900 -20.256300 -40.053300
N -4.349100 -19.523400 -39.822000
Cl -3.618800 -20.741900 -42.370600
C -3.599200 -18.667700 -40.623500
H -3.478000 -17.020900 -39.407400
C -3.202900 -17.371800 -40.246000
C -3.169700 -19.141300 -41.877600
C -2.413200 -16.602200 -41.088200
C -2.380300 -18.398600 -42.723700
H -2.147000 -15.727200 -40.830400
H -2.094400 -18.744100 -43.560500
C -2.017300 -17.125300 -42.308400
N -1.176200 -16.313800 -43.194600
O -0.880000 -16.761400 -44.296600
O -0.800500 -15.214800 -42.780500
