24
Fragment
H -7.435500 -15.165300 -39.801100
H -7.316200 -16.757200 -39.904000
C -6.812500 -15.916600 -39.886800
O -6.785600 -17.840900 -41.825400
H -6.716400 -18.469700 -44.877900
H -6.197900 -15.920900 -39.124400
C -6.109900 -16.817500 -42.060800
N -6.053500 -15.778900 -41.121900
C -5.770200 -18.590200 -44.652200
H -5.690600 -19.199400 -43.887200
C -5.360500 -16.544100 -43.216200
C -5.310400 -14.614300 -41.240500
O -5.303200 -13.801200 -40.319300
H -5.296900 -18.969100 -45.423400
N -5.199100 -17.330900 -44.316700
C -4.632900 -15.390300 -43.394200
N -4.602100 -14.432200 -42.401300
C -4.379700 -16.539800 -45.113800
H -4.124300 -12.692000 -43.292800
H -4.112100 -16.806700 -45.984300
N -3.973500 -15.319300 -44.547000
C -3.766400 -13.244100 -42.566500
H -3.764400 -12.727500 -41.733500
H -2.851000 -13.516400 -42.783400
29
Fragment
Cl -6.651300 -17.003800 -47.625200
H -6.144600 -14.594900 -48.974300
C -5.691800 -16.587200 -49.024200
C -5.667900 -15.265400 -49.448300
H -5.016000 -18.462100 -49.368000
C -4.993800 -17.568800 -49.691200
C -4.934700 -14.946900 -50.577600
H -4.908700 -14.047100 -50.878400
C -4.251600 -17.266300 -50.837500
C -4.236200 -15.925200 -51.278300
H -3.662300 -14.810200 -52.620400
O -3.594200 -19.543700 -51.007300
C -3.564300 -18.421200 -51.500300
O -3.535100 -15.603400 -52.402500
H -3.038700 -17.414900 -52.918900
N -2.931900 -18.147800 -52.687600
Cl -2.201600 -16.929300 -55.236300
C -2.182000 -19.003500 -53.489100
H -2.060800 -20.650300 -52.273100
C -1.785700 -20.299400 -53.111600
C -1.752500 -18.529900 -54.743300
C -0.996000 -21.069000 -53.953800
C -0.963100 -19.272600 -55.589300
H -0.729800 -21.944000 -53.696000
H -0.677200 -18.927100 -56.426100
C -0.600100 -20.545900 -55.174000
N 0.241000 -21.357400 -56.060200
O 0.537200 -20.909800 -57.162300
O 0.616700 -22.456400 -55.646200
53
Fragment
H -7.435500 -15.165300 -39.801100
H -7.316200 -16.757200 -39.904000
C -6.812500 -15.916600 -39.886800
O -6.785600 -17.840900 -41.825400
H -6.716400 -18.469700 -44.877900
H -6.197900 -15.920900 -39.124400
C -6.109900 -16.817500 -42.060800
N -6.053500 -15.778900 -41.121900
C -5.770200 -18.590200 -44.652200
H -5.690600 -19.199400 -43.887200
C -5.360500 -16.544100 -43.216200
C -5.310400 -14.614300 -41.240500
O -5.303200 -13.801200 -40.319300
H -5.296900 -18.969100 -45.423400
N -5.199100 -17.330900 -44.316700
C -4.632900 -15.390300 -43.394200
N -4.602100 -14.432200 -42.401300
C -4.379700 -16.539800 -45.113800
H -4.124300 -12.692000 -43.292800
H -4.112100 -16.806700 -45.984300
N -3.973500 -15.319300 -44.547000
C -3.766400 -13.244100 -42.566500
H -3.764400 -12.727500 -41.733500
H -2.851000 -13.516400 -42.783400
Cl -6.651300 -17.003800 -47.625200
H -6.144600 -14.594900 -48.974300
C -5.691800 -16.587200 -49.024200
C -5.667900 -15.265400 -49.448300
H -5.016000 -18.462100 -49.368000
C -4.993800 -17.568800 -49.691200
C -4.934700 -14.946900 -50.577600
H -4.908700 -14.047100 -50.878400
C -4.251600 -17.266300 -50.837500
C -4.236200 -15.925200 -51.278300
H -3.662300 -14.810200 -52.620400
O -3.594200 -19.543700 -51.007300
C -3.564300 -18.421200 -51.500300
O -3.535100 -15.603400 -52.402500
H -3.038700 -17.414900 -52.918900
N -2.931900 -18.147800 -52.687600
Cl -2.201600 -16.929300 -55.236300
C -2.182000 -19.003500 -53.489100
H -2.060800 -20.650300 -52.273100
C -1.785700 -20.299400 -53.111600
C -1.752500 -18.529900 -54.743300
C -0.996000 -21.069000 -53.953800
C -0.963100 -19.272600 -55.589300
H -0.729800 -21.944000 -53.696000
H -0.677200 -18.927100 -56.426100
C -0.600100 -20.545900 -55.174000
N 0.241000 -21.357400 -56.060200
O 0.537200 -20.909800 -57.162300
O 0.616700 -22.456400 -55.646200
