24
Fragment
H -7.435500 -15.165300 -39.801100
H -7.316200 -16.757200 -39.904000
C -6.812500 -15.916600 -39.886800
O -6.785600 -17.840900 -41.825400
H -6.716400 -18.469700 -44.877900
H -6.197900 -15.920900 -39.124400
C -6.109900 -16.817500 -42.060800
N -6.053500 -15.778900 -41.121900
C -5.770200 -18.590200 -44.652200
H -5.690600 -19.199400 -43.887200
C -5.360500 -16.544100 -43.216200
C -5.310400 -14.614300 -41.240500
O -5.303200 -13.801200 -40.319300
H -5.296900 -18.969100 -45.423400
N -5.199100 -17.330900 -44.316700
C -4.632900 -15.390300 -43.394200
N -4.602100 -14.432200 -42.401300
C -4.379700 -16.539800 -45.113800
H -4.124300 -12.692000 -43.292800
H -4.112100 -16.806700 -45.984300
N -3.973500 -15.319300 -44.547000
C -3.766400 -13.244100 -42.566500
H -3.764400 -12.727500 -41.733500
H -2.851000 -13.516400 -42.783400
29
Fragment
O -6.447500 -17.074800 -34.413200
O -6.368000 -15.528200 -32.897200
N -6.071800 -15.975800 -33.999200
C -5.230700 -15.164300 -34.885400
H -5.153600 -13.545500 -33.633300
H -5.101000 -16.562400 -36.363400
C -4.867700 -13.891000 -34.470100
C -4.834800 -15.687400 -36.105600
C -4.078300 -13.148300 -35.316200
C -4.045100 -14.917800 -36.947800
H -3.770000 -15.268700 -37.786400
C -3.648800 -13.621900 -36.570300
Cl -3.629200 -11.547700 -34.823100
N -2.898900 -12.766200 -37.371800
H -2.792100 -12.033300 -37.140500
O -2.295800 -10.221800 -37.656900
C -2.266500 -13.039600 -38.559100
O -2.236600 -14.162100 -39.052100
H -2.168600 -9.428600 -37.439000
C -1.594600 -10.543600 -38.781100
C -1.579200 -11.884700 -39.221900
H -0.922100 -8.665500 -39.181000
C -0.896100 -9.565300 -39.481800
C -0.837000 -12.187200 -40.368200
H -0.814800 -13.080500 -40.691400
C -0.162900 -9.883800 -40.611100
C -0.139000 -11.205600 -41.035200
H 0.313800 -9.213300 -41.085100
Cl 0.820400 -11.622200 -42.434200
53
Fragment
H -7.435500 -15.165300 -39.801100
H -7.316200 -16.757200 -39.904000
C -6.812500 -15.916600 -39.886800
O -6.785600 -17.840900 -41.825400
H -6.716400 -18.469700 -44.877900
H -6.197900 -15.920900 -39.124400
C -6.109900 -16.817500 -42.060800
N -6.053500 -15.778900 -41.121900
C -5.770200 -18.590200 -44.652200
H -5.690600 -19.199400 -43.887200
C -5.360500 -16.544100 -43.216200
C -5.310400 -14.614300 -41.240500
O -5.303200 -13.801200 -40.319300
H -5.296900 -18.969100 -45.423400
N -5.199100 -17.330900 -44.316700
C -4.632900 -15.390300 -43.394200
N -4.602100 -14.432200 -42.401300
C -4.379700 -16.539800 -45.113800
H -4.124300 -12.692000 -43.292800
H -4.112100 -16.806700 -45.984300
N -3.973500 -15.319300 -44.547000
C -3.766400 -13.244100 -42.566500
H -3.764400 -12.727500 -41.733500
H -2.851000 -13.516400 -42.783400
O -6.447500 -17.074800 -34.413200
O -6.368000 -15.528200 -32.897200
N -6.071800 -15.975800 -33.999200
C -5.230700 -15.164300 -34.885400
H -5.153600 -13.545500 -33.633300
H -5.101000 -16.562400 -36.363400
C -4.867700 -13.891000 -34.470100
C -4.834800 -15.687400 -36.105600
C -4.078300 -13.148300 -35.316200
C -4.045100 -14.917800 -36.947800
H -3.770000 -15.268700 -37.786400
C -3.648800 -13.621900 -36.570300
Cl -3.629200 -11.547700 -34.823100
N -2.898900 -12.766200 -37.371800
H -2.792100 -12.033300 -37.140500
O -2.295800 -10.221800 -37.656900
C -2.266500 -13.039600 -38.559100
O -2.236600 -14.162100 -39.052100
H -2.168600 -9.428600 -37.439000
C -1.594600 -10.543600 -38.781100
C -1.579200 -11.884700 -39.221900
H -0.922100 -8.665500 -39.181000
C -0.896100 -9.565300 -39.481800
C -0.837000 -12.187200 -40.368200
H -0.814800 -13.080500 -40.691400
C -0.162900 -9.883800 -40.611100
C -0.139000 -11.205600 -41.035200
H 0.313800 -9.213300 -41.085100
Cl 0.820400 -11.622200 -42.434200
