24
Fragment
H -7.435500 -15.165300 -39.801100
H -7.316200 -16.757200 -39.904000
C -6.812500 -15.916600 -39.886800
O -6.785600 -17.840900 -41.825400
H -6.716400 -18.469700 -44.877900
H -6.197900 -15.920900 -39.124400
C -6.109900 -16.817500 -42.060800
N -6.053500 -15.778900 -41.121900
C -5.770200 -18.590200 -44.652200
H -5.690600 -19.199400 -43.887200
C -5.360500 -16.544100 -43.216200
C -5.310400 -14.614300 -41.240500
O -5.303200 -13.801200 -40.319300
H -5.296900 -18.969100 -45.423400
N -5.199100 -17.330900 -44.316700
C -4.632900 -15.390300 -43.394200
N -4.602100 -14.432200 -42.401300
C -4.379700 -16.539800 -45.113800
H -4.124300 -12.692000 -43.292800
H -4.112100 -16.806700 -45.984300
N -3.973500 -15.319300 -44.547000
C -3.766400 -13.244100 -42.566500
H -3.764400 -12.727500 -41.733500
H -2.851000 -13.516400 -42.783400
29
Fragment
O -5.030300 -9.833200 -47.278900
O -4.950800 -11.379800 -45.762800
N -4.654600 -10.932200 -46.864900
C -3.813500 -11.743700 -47.751000
H -3.736400 -13.362500 -46.499000
H -3.683800 -10.345600 -49.229000
C -3.450500 -13.017000 -47.335700
C -3.417600 -11.220600 -48.971200
C -2.661100 -13.759700 -48.181800
C -2.627900 -11.990200 -49.813400
H -2.352800 -11.639300 -50.652000
C -2.231600 -13.286100 -49.435900
Cl -2.212000 -15.360300 -47.688800
N -1.481700 -14.141800 -50.237500
H -1.374900 -14.874700 -50.006100
O -0.878600 -16.686200 -50.522600
C -0.849300 -13.868400 -51.424700
O -0.819400 -12.745900 -51.917700
H -0.751400 -17.479400 -50.304600
C -0.177500 -16.364400 -51.646800
C -0.162000 -15.023300 -52.087500
H 0.495100 -18.242500 -52.046600
C 0.521100 -17.342700 -52.347400
C 0.580200 -14.720800 -53.233900
H 0.602400 -13.827500 -53.557000
C 1.254300 -17.024200 -53.476800
C 1.278200 -15.702400 -53.900800
H 1.731000 -17.694700 -53.950700
Cl 2.237600 -15.285800 -55.299800
53
Fragment
H -7.435500 -15.165300 -39.801100
H -7.316200 -16.757200 -39.904000
C -6.812500 -15.916600 -39.886800
O -6.785600 -17.840900 -41.825400
H -6.716400 -18.469700 -44.877900
H -6.197900 -15.920900 -39.124400
C -6.109900 -16.817500 -42.060800
N -6.053500 -15.778900 -41.121900
C -5.770200 -18.590200 -44.652200
H -5.690600 -19.199400 -43.887200
C -5.360500 -16.544100 -43.216200
C -5.310400 -14.614300 -41.240500
O -5.303200 -13.801200 -40.319300
H -5.296900 -18.969100 -45.423400
N -5.199100 -17.330900 -44.316700
C -4.632900 -15.390300 -43.394200
N -4.602100 -14.432200 -42.401300
C -4.379700 -16.539800 -45.113800
H -4.124300 -12.692000 -43.292800
H -4.112100 -16.806700 -45.984300
N -3.973500 -15.319300 -44.547000
C -3.766400 -13.244100 -42.566500
H -3.764400 -12.727500 -41.733500
H -2.851000 -13.516400 -42.783400
O -5.030300 -9.833200 -47.278900
O -4.950800 -11.379800 -45.762800
N -4.654600 -10.932200 -46.864900
C -3.813500 -11.743700 -47.751000
H -3.736400 -13.362500 -46.499000
H -3.683800 -10.345600 -49.229000
C -3.450500 -13.017000 -47.335700
C -3.417600 -11.220600 -48.971200
C -2.661100 -13.759700 -48.181800
C -2.627900 -11.990200 -49.813400
H -2.352800 -11.639300 -50.652000
C -2.231600 -13.286100 -49.435900
Cl -2.212000 -15.360300 -47.688800
N -1.481700 -14.141800 -50.237500
H -1.374900 -14.874700 -50.006100
O -0.878600 -16.686200 -50.522600
C -0.849300 -13.868400 -51.424700
O -0.819400 -12.745900 -51.917700
H -0.751400 -17.479400 -50.304600
C -0.177500 -16.364400 -51.646800
C -0.162000 -15.023300 -52.087500
H 0.495100 -18.242500 -52.046600
C 0.521100 -17.342700 -52.347400
C 0.580200 -14.720800 -53.233900
H 0.602400 -13.827500 -53.557000
C 1.254300 -17.024200 -53.476800
C 1.278200 -15.702400 -53.900800
H 1.731000 -17.694700 -53.950700
Cl 2.237600 -15.285800 -55.299800
