21
Fragment
H -11.849500 -16.506300 -31.759800
O -11.284100 -15.558600 -34.563400
N -10.977800 -16.186400 -31.556200
H -10.657100 -16.536800 -29.623600
C -10.311700 -15.305100 -33.859500
C -10.307800 -16.179900 -30.408900
C -10.145900 -15.577100 -32.477600
H -10.050500 -14.498800 -36.198100
N -9.166400 -14.681600 -34.404900
C -9.162100 -14.396500 -35.850000
N -9.095900 -15.620600 -30.468200
C -9.019900 -15.253900 -31.779500
H -8.861000 -13.497800 -35.999000
H -8.571600 -15.009100 -36.295400
C -8.009600 -14.335600 -33.710500
N -7.947000 -14.619600 -32.376400
O -7.069500 -13.789400 -34.289400
H -6.900500 -14.447700 -30.680700
C -6.763000 -14.236600 -31.607500
H -6.612500 -13.293200 -31.700100
H -5.999500 -14.716400 -31.934500
21
Fragment
H -18.941800 -17.926300 -34.406800
H -18.328800 -19.349500 -34.641300
C -18.178300 -18.406100 -34.733900
H -18.040800 -18.195000 -35.660700
O -17.871800 -18.853300 -32.051900
N -16.994400 -18.023100 -33.965000
C -16.931700 -18.307100 -32.630900
H -16.369800 -17.633600 -30.046000
H -16.080400 -19.144900 -30.342300
C -15.921400 -17.388800 -34.561900
N -15.845500 -17.022100 -35.873200
C -15.779300 -18.246200 -30.491400
N -15.774900 -17.961100 -31.936500
H -14.890800 -18.143900 -30.143300
C -14.795400 -17.065600 -33.863700
C -14.633600 -16.462800 -35.932500
C -14.629700 -17.337600 -32.481800
H -14.284200 -16.105900 -36.717700
N -13.963500 -16.456300 -34.785200
O -13.657300 -17.084100 -31.778000
H -13.091900 -16.136400 -34.581500
42
Fragment
H -11.849500 -16.506300 -31.759800
O -11.284100 -15.558600 -34.563400
N -10.977800 -16.186400 -31.556200
H -10.657100 -16.536800 -29.623600
C -10.311700 -15.305100 -33.859500
C -10.307800 -16.179900 -30.408900
C -10.145900 -15.577100 -32.477600
H -10.050500 -14.498800 -36.198100
N -9.166400 -14.681600 -34.404900
C -9.162100 -14.396500 -35.850000
N -9.095900 -15.620600 -30.468200
C -9.019900 -15.253900 -31.779500
H -8.861000 -13.497800 -35.999000
H -8.571600 -15.009100 -36.295400
C -8.009600 -14.335600 -33.710500
N -7.947000 -14.619600 -32.376400
O -7.069500 -13.789400 -34.289400
H -6.900500 -14.447700 -30.680700
C -6.763000 -14.236600 -31.607500
H -6.612500 -13.293200 -31.700100
H -5.999500 -14.716400 -31.934500
H -18.941800 -17.926300 -34.406800
H -18.328800 -19.349500 -34.641300
C -18.178300 -18.406100 -34.733900
H -18.040800 -18.195000 -35.660700
O -17.871800 -18.853300 -32.051900
N -16.994400 -18.023100 -33.965000
C -16.931700 -18.307100 -32.630900
H -16.369800 -17.633600 -30.046000
H -16.080400 -19.144900 -30.342300
C -15.921400 -17.388800 -34.561900
N -15.845500 -17.022100 -35.873200
C -15.779300 -18.246200 -30.491400
N -15.774900 -17.961100 -31.936500
H -14.890800 -18.143900 -30.143300
C -14.795400 -17.065600 -33.863700
C -14.633600 -16.462800 -35.932500
C -14.629700 -17.337600 -32.481800
H -14.284200 -16.105900 -36.717700
N -13.963500 -16.456300 -34.785200
O -13.657300 -17.084100 -31.778000
H -13.091900 -16.136400 -34.581500
