21
Fragment
H -11.849500 -16.506300 -31.759800
O -11.284100 -15.558600 -34.563400
N -10.977800 -16.186400 -31.556200
H -10.657100 -16.536800 -29.623600
C -10.311700 -15.305100 -33.859500
C -10.307800 -16.179900 -30.408900
C -10.145900 -15.577100 -32.477600
H -10.050500 -14.498800 -36.198100
N -9.166400 -14.681600 -34.404900
C -9.162100 -14.396500 -35.850000
N -9.095900 -15.620600 -30.468200
C -9.019900 -15.253900 -31.779500
H -8.861000 -13.497800 -35.999000
H -8.571600 -15.009100 -36.295400
C -8.009600 -14.335600 -33.710500
N -7.947000 -14.619600 -32.376400
O -7.069500 -13.789400 -34.289400
H -6.900500 -14.447700 -30.680700
C -6.763000 -14.236600 -31.607500
H -6.612500 -13.293200 -31.700100
H -5.999500 -14.716400 -31.934500
29
Fragment
H -14.785500 -13.255100 -36.490000
H -14.478600 -13.296500 -34.227700
H -14.036600 -12.550000 -38.551000
C -13.955800 -12.841600 -36.563400
O -13.635400 -13.052700 -34.206100
C -13.513100 -12.422700 -37.792900
C -13.177000 -12.655600 -35.426500
Cl -12.786400 -13.374800 -30.871700
C -12.272900 -11.805800 -37.889100
H -12.153100 -12.578300 -33.053500
C -11.920200 -12.038600 -35.522900
Cl -11.723500 -11.235400 -39.441700
C -11.493400 -11.617500 -36.782500
N -11.360400 -12.195300 -33.139700
C -11.207800 -12.666500 -30.789700
C -10.974900 -11.772000 -34.392700
H -10.928000 -13.049500 -28.843000
H -10.665700 -11.203000 -36.870300
C -10.640000 -12.109400 -31.951300
C -10.546500 -12.665400 -29.597800
O -9.897800 -11.225800 -34.590400
C -9.385800 -11.513100 -31.845400
C -9.297100 -12.080000 -29.537200
O -9.062000 -12.680600 -27.319600
H -8.996800 -11.125700 -32.595700
C -8.714300 -11.488100 -30.643700
N -8.570600 -12.093000 -28.268700
H -7.881700 -11.078900 -30.576700
O -7.484200 -11.561000 -28.211400
50
Fragment
H -11.849500 -16.506300 -31.759800
O -11.284100 -15.558600 -34.563400
N -10.977800 -16.186400 -31.556200
H -10.657100 -16.536800 -29.623600
C -10.311700 -15.305100 -33.859500
C -10.307800 -16.179900 -30.408900
C -10.145900 -15.577100 -32.477600
H -10.050500 -14.498800 -36.198100
N -9.166400 -14.681600 -34.404900
C -9.162100 -14.396500 -35.850000
N -9.095900 -15.620600 -30.468200
C -9.019900 -15.253900 -31.779500
H -8.861000 -13.497800 -35.999000
H -8.571600 -15.009100 -36.295400
C -8.009600 -14.335600 -33.710500
N -7.947000 -14.619600 -32.376400
O -7.069500 -13.789400 -34.289400
H -6.900500 -14.447700 -30.680700
C -6.763000 -14.236600 -31.607500
H -6.612500 -13.293200 -31.700100
H -5.999500 -14.716400 -31.934500
H -14.785500 -13.255100 -36.490000
H -14.478600 -13.296500 -34.227700
H -14.036600 -12.550000 -38.551000
C -13.955800 -12.841600 -36.563400
O -13.635400 -13.052700 -34.206100
C -13.513100 -12.422700 -37.792900
C -13.177000 -12.655600 -35.426500
Cl -12.786400 -13.374800 -30.871700
C -12.272900 -11.805800 -37.889100
H -12.153100 -12.578300 -33.053500
C -11.920200 -12.038600 -35.522900
Cl -11.723500 -11.235400 -39.441700
C -11.493400 -11.617500 -36.782500
N -11.360400 -12.195300 -33.139700
C -11.207800 -12.666500 -30.789700
C -10.974900 -11.772000 -34.392700
H -10.928000 -13.049500 -28.843000
H -10.665700 -11.203000 -36.870300
C -10.640000 -12.109400 -31.951300
C -10.546500 -12.665400 -29.597800
O -9.897800 -11.225800 -34.590400
C -9.385800 -11.513100 -31.845400
C -9.297100 -12.080000 -29.537200
O -9.062000 -12.680600 -27.319600
H -8.996800 -11.125700 -32.595700
C -8.714300 -11.488100 -30.643700
N -8.570600 -12.093000 -28.268700
H -7.881700 -11.078900 -30.576700
O -7.484200 -11.561000 -28.211400
