21
Fragment
H -11.849500 -16.506300 -31.759800
O -11.284100 -15.558600 -34.563400
N -10.977800 -16.186400 -31.556200
H -10.657100 -16.536800 -29.623600
C -10.311700 -15.305100 -33.859500
C -10.307800 -16.179900 -30.408900
C -10.145900 -15.577100 -32.477600
H -10.050500 -14.498800 -36.198100
N -9.166400 -14.681600 -34.404900
C -9.162100 -14.396500 -35.850000
N -9.095900 -15.620600 -30.468200
C -9.019900 -15.253900 -31.779500
H -8.861000 -13.497800 -35.999000
H -8.571600 -15.009100 -36.295400
C -8.009600 -14.335600 -33.710500
N -7.947000 -14.619600 -32.376400
O -7.069500 -13.789400 -34.289400
H -6.900500 -14.447700 -30.680700
C -6.763000 -14.236600 -31.607500
H -6.612500 -13.293200 -31.700100
H -5.999500 -14.716400 -31.934500
21
Fragment
H -9.804700 -17.926300 -34.406800
H -9.191700 -19.349500 -34.641300
C -9.041200 -18.406100 -34.733900
H -8.903700 -18.195000 -35.660700
O -8.734700 -18.853300 -32.051900
N -7.857300 -18.023100 -33.965000
C -7.794600 -18.307100 -32.630900
H -7.232700 -17.633600 -30.046000
H -6.943300 -19.144900 -30.342300
C -6.784300 -17.388800 -34.561900
N -6.708400 -17.022100 -35.873200
C -6.642200 -18.246200 -30.491400
N -6.637800 -17.961100 -31.936500
H -5.753700 -18.143900 -30.143300
C -5.658300 -17.065600 -33.863700
C -5.496500 -16.462800 -35.932500
C -5.492600 -17.337600 -32.481800
H -5.147100 -16.105900 -36.717700
N -4.826400 -16.456300 -34.785200
O -4.520200 -17.084100 -31.778000
H -3.954800 -16.136400 -34.581500
42
Fragment
H -11.849500 -16.506300 -31.759800
O -11.284100 -15.558600 -34.563400
N -10.977800 -16.186400 -31.556200
H -10.657100 -16.536800 -29.623600
C -10.311700 -15.305100 -33.859500
C -10.307800 -16.179900 -30.408900
C -10.145900 -15.577100 -32.477600
H -10.050500 -14.498800 -36.198100
N -9.166400 -14.681600 -34.404900
C -9.162100 -14.396500 -35.850000
N -9.095900 -15.620600 -30.468200
C -9.019900 -15.253900 -31.779500
H -8.861000 -13.497800 -35.999000
H -8.571600 -15.009100 -36.295400
C -8.009600 -14.335600 -33.710500
N -7.947000 -14.619600 -32.376400
O -7.069500 -13.789400 -34.289400
H -6.900500 -14.447700 -30.680700
C -6.763000 -14.236600 -31.607500
H -6.612500 -13.293200 -31.700100
H -5.999500 -14.716400 -31.934500
H -9.804700 -17.926300 -34.406800
H -9.191700 -19.349500 -34.641300
C -9.041200 -18.406100 -34.733900
H -8.903700 -18.195000 -35.660700
O -8.734700 -18.853300 -32.051900
N -7.857300 -18.023100 -33.965000
C -7.794600 -18.307100 -32.630900
H -7.232700 -17.633600 -30.046000
H -6.943300 -19.144900 -30.342300
C -6.784300 -17.388800 -34.561900
N -6.708400 -17.022100 -35.873200
C -6.642200 -18.246200 -30.491400
N -6.637800 -17.961100 -31.936500
H -5.753700 -18.143900 -30.143300
C -5.658300 -17.065600 -33.863700
C -5.496500 -16.462800 -35.932500
C -5.492600 -17.337600 -32.481800
H -5.147100 -16.105900 -36.717700
N -4.826400 -16.456300 -34.785200
O -4.520200 -17.084100 -31.778000
H -3.954800 -16.136400 -34.581500
