29
Fragment
O -21.248100 -25.661600 -7.174500
O -20.936800 -23.519600 -7.205700
N -20.619100 -24.663500 -7.515400
H -19.690000 -26.864700 -8.549600
C -19.422400 -24.862800 -8.335000
C -19.126200 -26.134300 -8.775500
H -18.829200 -22.906200 -8.310900
C -18.614800 -23.774100 -8.630700
C -17.998800 -26.335800 -9.549800
H -17.790800 -27.211800 -9.853600
C -17.491200 -23.988800 -9.403500
C -17.157700 -25.266300 -9.893000
Cl -16.469600 -22.630200 -9.761200
O -16.198900 -27.589200 -11.312400
N -16.007900 -25.408300 -10.670400
C -15.584100 -26.530300 -11.330600
H -15.544400 -24.751700 -10.772600
H -14.396500 -28.386800 -12.649900
C -14.299200 -26.418400 -12.094200
O -13.909900 -24.114600 -11.627600
C -13.881600 -27.593600 -12.734500
C -13.515500 -25.257800 -12.237900
H -13.406200 -23.509000 -11.765200
C -12.728600 -27.602300 -13.484800
C -12.347700 -25.302800 -13.004900
Cl -12.245800 -29.070000 -14.302900
C -11.949100 -26.465700 -13.623900
H -11.821200 -24.518100 -13.100800
H -11.151300 -26.488900 -14.138700
29
Fragment
O -21.000600 -33.597600 -11.452800
O -20.689200 -35.739600 -11.483900
N -20.371500 -34.595700 -11.793700
H -19.442400 -32.394500 -12.827900
C -19.174900 -34.396400 -12.613200
C -18.878600 -33.124900 -13.053800
H -18.581600 -36.353000 -12.589200
C -18.367300 -35.485100 -12.908900
C -17.751300 -32.923400 -13.828000
H -17.543200 -32.047400 -14.131900
C -17.243700 -35.270400 -13.681700
C -16.910100 -33.992900 -14.171200
Cl -16.222100 -36.629000 -14.039400
O -15.951400 -31.670000 -15.590700
N -15.760300 -33.850900 -14.948600
C -15.336500 -32.728900 -15.608800
H -15.296800 -34.507500 -15.050900
H -14.148900 -30.872400 -16.928100
C -14.051700 -32.840800 -16.372500
O -13.662300 -35.144600 -15.905800
C -13.634100 -31.665600 -17.012800
C -13.267900 -34.001400 -16.516200
H -13.158600 -35.750200 -16.043400
C -12.481000 -31.656900 -17.763100
C -12.100100 -33.956400 -17.283200
Cl -11.998200 -30.189200 -18.581200
C -11.701500 -32.793500 -17.902100
H -11.573600 -34.741100 -17.379100
H -10.903700 -32.770300 -18.417000
58
Fragment
O -21.248100 -25.661600 -7.174500
O -20.936800 -23.519600 -7.205700
N -20.619100 -24.663500 -7.515400
H -19.690000 -26.864700 -8.549600
C -19.422400 -24.862800 -8.335000
C -19.126200 -26.134300 -8.775500
H -18.829200 -22.906200 -8.310900
C -18.614800 -23.774100 -8.630700
C -17.998800 -26.335800 -9.549800
H -17.790800 -27.211800 -9.853600
C -17.491200 -23.988800 -9.403500
C -17.157700 -25.266300 -9.893000
Cl -16.469600 -22.630200 -9.761200
O -16.198900 -27.589200 -11.312400
N -16.007900 -25.408300 -10.670400
C -15.584100 -26.530300 -11.330600
H -15.544400 -24.751700 -10.772600
H -14.396500 -28.386800 -12.649900
C -14.299200 -26.418400 -12.094200
O -13.909900 -24.114600 -11.627600
C -13.881600 -27.593600 -12.734500
C -13.515500 -25.257800 -12.237900
H -13.406200 -23.509000 -11.765200
C -12.728600 -27.602300 -13.484800
C -12.347700 -25.302800 -13.004900
Cl -12.245800 -29.070000 -14.302900
C -11.949100 -26.465700 -13.623900
H -11.821200 -24.518100 -13.100800
H -11.151300 -26.488900 -14.138700
O -21.000600 -33.597600 -11.452800
O -20.689200 -35.739600 -11.483900
N -20.371500 -34.595700 -11.793700
H -19.442400 -32.394500 -12.827900
C -19.174900 -34.396400 -12.613200
C -18.878600 -33.124900 -13.053800
H -18.581600 -36.353000 -12.589200
C -18.367300 -35.485100 -12.908900
C -17.751300 -32.923400 -13.828000
H -17.543200 -32.047400 -14.131900
C -17.243700 -35.270400 -13.681700
C -16.910100 -33.992900 -14.171200
Cl -16.222100 -36.629000 -14.039400
O -15.951400 -31.670000 -15.590700
N -15.760300 -33.850900 -14.948600
C -15.336500 -32.728900 -15.608800
H -15.296800 -34.507500 -15.050900
H -14.148900 -30.872400 -16.928100
C -14.051700 -32.840800 -16.372500
O -13.662300 -35.144600 -15.905800
C -13.634100 -31.665600 -17.012800
C -13.267900 -34.001400 -16.516200
H -13.158600 -35.750200 -16.043400
C -12.481000 -31.656900 -17.763100
C -12.100100 -33.956400 -17.283200
Cl -11.998200 -30.189200 -18.581200
C -11.701500 -32.793500 -17.902100
H -11.573600 -34.741100 -17.379100
H -10.903700 -32.770300 -18.417000
