29
Fragment
O -21.248100 -25.661600 -7.174500
O -20.936800 -23.519600 -7.205700
N -20.619100 -24.663500 -7.515400
H -19.690000 -26.864700 -8.549600
C -19.422400 -24.862800 -8.335000
C -19.126200 -26.134300 -8.775500
H -18.829200 -22.906200 -8.310900
C -18.614800 -23.774100 -8.630700
C -17.998800 -26.335800 -9.549800
H -17.790800 -27.211800 -9.853600
C -17.491200 -23.988800 -9.403500
C -17.157700 -25.266300 -9.893000
Cl -16.469600 -22.630200 -9.761200
O -16.198900 -27.589200 -11.312400
N -16.007900 -25.408300 -10.670400
C -15.584100 -26.530300 -11.330600
H -15.544400 -24.751700 -10.772600
H -14.396500 -28.386800 -12.649900
C -14.299200 -26.418400 -12.094200
O -13.909900 -24.114600 -11.627600
C -13.881600 -27.593600 -12.734500
C -13.515500 -25.257800 -12.237900
H -13.406200 -23.509000 -11.765200
C -12.728600 -27.602300 -13.484800
C -12.347700 -25.302800 -13.004900
Cl -12.245800 -29.070000 -14.302900
C -11.949100 -26.465700 -13.623900
H -11.821200 -24.518100 -13.100800
H -11.151300 -26.488900 -14.138700
29
Fragment
H -20.992400 -34.954500 -7.252500
H -20.322500 -32.983700 -8.290400
C -20.194600 -34.931300 -7.767300
Cl -19.897900 -37.535600 -7.088300
C -19.796000 -33.768400 -8.386300
C -19.415100 -36.067900 -7.906400
H -18.737500 -31.974600 -9.626000
C -18.628200 -33.723400 -9.153300
C -18.262100 -36.059200 -8.656700
O -18.233800 -32.580200 -9.763600
C -17.844500 -34.884000 -9.297000
H -17.747200 -36.852400 -8.741300
H -16.599300 -33.217300 -10.618600
C -16.559600 -34.995900 -10.060600
N -16.135800 -33.873900 -10.720800
O -15.944800 -36.054800 -10.078800
Cl -15.674100 -31.095800 -11.630100
C -14.986000 -33.731900 -11.498200
C -14.652500 -32.454400 -11.987700
H -14.352900 -35.677400 -11.537600
C -14.144900 -34.801400 -11.841400
C -13.528800 -32.239700 -12.760500
H -13.314500 -31.371800 -13.080300
C -13.017500 -34.599900 -12.615700
C -12.721300 -33.328400 -13.056300
H -12.453700 -35.330300 -12.841600
N -11.524600 -33.129100 -13.875800
O -11.206900 -31.985200 -14.185500
O -10.895600 -34.127200 -14.216700
58
Fragment
O -21.248100 -25.661600 -7.174500
O -20.936800 -23.519600 -7.205700
N -20.619100 -24.663500 -7.515400
H -19.690000 -26.864700 -8.549600
C -19.422400 -24.862800 -8.335000
C -19.126200 -26.134300 -8.775500
H -18.829200 -22.906200 -8.310900
C -18.614800 -23.774100 -8.630700
C -17.998800 -26.335800 -9.549800
H -17.790800 -27.211800 -9.853600
C -17.491200 -23.988800 -9.403500
C -17.157700 -25.266300 -9.893000
Cl -16.469600 -22.630200 -9.761200
O -16.198900 -27.589200 -11.312400
N -16.007900 -25.408300 -10.670400
C -15.584100 -26.530300 -11.330600
H -15.544400 -24.751700 -10.772600
H -14.396500 -28.386800 -12.649900
C -14.299200 -26.418400 -12.094200
O -13.909900 -24.114600 -11.627600
C -13.881600 -27.593600 -12.734500
C -13.515500 -25.257800 -12.237900
H -13.406200 -23.509000 -11.765200
C -12.728600 -27.602300 -13.484800
C -12.347700 -25.302800 -13.004900
Cl -12.245800 -29.070000 -14.302900
C -11.949100 -26.465700 -13.623900
H -11.821200 -24.518100 -13.100800
H -11.151300 -26.488900 -14.138700
H -20.992400 -34.954500 -7.252500
H -20.322500 -32.983700 -8.290400
C -20.194600 -34.931300 -7.767300
Cl -19.897900 -37.535600 -7.088300
C -19.796000 -33.768400 -8.386300
C -19.415100 -36.067900 -7.906400
H -18.737500 -31.974600 -9.626000
C -18.628200 -33.723400 -9.153300
C -18.262100 -36.059200 -8.656700
O -18.233800 -32.580200 -9.763600
C -17.844500 -34.884000 -9.297000
H -17.747200 -36.852400 -8.741300
H -16.599300 -33.217300 -10.618600
C -16.559600 -34.995900 -10.060600
N -16.135800 -33.873900 -10.720800
O -15.944800 -36.054800 -10.078800
Cl -15.674100 -31.095800 -11.630100
C -14.986000 -33.731900 -11.498200
C -14.652500 -32.454400 -11.987700
H -14.352900 -35.677400 -11.537600
C -14.144900 -34.801400 -11.841400
C -13.528800 -32.239700 -12.760500
H -13.314500 -31.371800 -13.080300
C -13.017500 -34.599900 -12.615700
C -12.721300 -33.328400 -13.056300
H -12.453700 -35.330300 -12.841600
N -11.524600 -33.129100 -13.875800
O -11.206900 -31.985200 -14.185500
O -10.895600 -34.127200 -14.216700
