21
Fragment
H -11.849500 -16.506300 -31.759800
O -11.284100 -15.558600 -34.563400
N -10.977800 -16.186400 -31.556200
H -10.657100 -16.536800 -29.623600
C -10.311700 -15.305100 -33.859500
C -10.307800 -16.179900 -30.408900
C -10.145900 -15.577100 -32.477600
H -10.050500 -14.498800 -36.198100
N -9.166400 -14.681600 -34.404900
C -9.162100 -14.396500 -35.850000
N -9.095900 -15.620600 -30.468200
C -9.019900 -15.253900 -31.779500
H -8.861000 -13.497800 -35.999000
H -8.571600 -15.009100 -36.295400
C -8.009600 -14.335600 -33.710500
N -7.947000 -14.619600 -32.376400
O -7.069500 -13.789400 -34.289400
H -6.900500 -14.447700 -30.680700
C -6.763000 -14.236600 -31.607500
H -6.612500 -13.293200 -31.700100
H -5.999500 -14.716400 -31.934500
29
Fragment
O -10.254600 -17.001400 -27.073000
H -9.857000 -16.519400 -24.707700
N -9.168100 -17.533500 -27.015800
C -9.024500 -16.928500 -24.640700
H -8.741900 -16.566200 -22.688700
O -8.676800 -18.121100 -27.964900
C -8.441600 -17.520400 -25.747300
C -8.353000 -16.953500 -23.439100
O -7.840900 -16.666300 -20.694100
C -7.192200 -18.105800 -25.686700
C -7.098700 -17.549800 -23.333100
H -7.073000 -16.643400 -18.414200
H -6.810700 -18.489900 -26.441500
C -6.763800 -17.212500 -20.891800
C -6.530900 -18.106900 -24.494800
N -6.378300 -17.635800 -22.144700
C -6.245400 -17.058000 -18.501900
Cl -6.015200 -16.675800 -15.842800
C -5.818500 -17.479100 -19.761500
H -5.585600 -18.018800 -22.231000
C -5.465900 -17.246200 -17.395400
Cl -4.952400 -18.815300 -24.412700
C -4.561700 -18.096000 -19.858000
C -4.225600 -17.863200 -17.491600
O -4.103300 -18.493200 -21.078400
C -3.783000 -18.282100 -18.721100
H -3.702200 -17.990500 -16.733500
H -3.260100 -18.736900 -21.056800
H -2.953300 -18.695600 -18.794500
50
Fragment
H -11.849500 -16.506300 -31.759800
O -11.284100 -15.558600 -34.563400
N -10.977800 -16.186400 -31.556200
H -10.657100 -16.536800 -29.623600
C -10.311700 -15.305100 -33.859500
C -10.307800 -16.179900 -30.408900
C -10.145900 -15.577100 -32.477600
H -10.050500 -14.498800 -36.198100
N -9.166400 -14.681600 -34.404900
C -9.162100 -14.396500 -35.850000
N -9.095900 -15.620600 -30.468200
C -9.019900 -15.253900 -31.779500
H -8.861000 -13.497800 -35.999000
H -8.571600 -15.009100 -36.295400
C -8.009600 -14.335600 -33.710500
N -7.947000 -14.619600 -32.376400
O -7.069500 -13.789400 -34.289400
H -6.900500 -14.447700 -30.680700
C -6.763000 -14.236600 -31.607500
H -6.612500 -13.293200 -31.700100
H -5.999500 -14.716400 -31.934500
O -10.254600 -17.001400 -27.073000
H -9.857000 -16.519400 -24.707700
N -9.168100 -17.533500 -27.015800
C -9.024500 -16.928500 -24.640700
H -8.741900 -16.566200 -22.688700
O -8.676800 -18.121100 -27.964900
C -8.441600 -17.520400 -25.747300
C -8.353000 -16.953500 -23.439100
O -7.840900 -16.666300 -20.694100
C -7.192200 -18.105800 -25.686700
C -7.098700 -17.549800 -23.333100
H -7.073000 -16.643400 -18.414200
H -6.810700 -18.489900 -26.441500
C -6.763800 -17.212500 -20.891800
C -6.530900 -18.106900 -24.494800
N -6.378300 -17.635800 -22.144700
C -6.245400 -17.058000 -18.501900
Cl -6.015200 -16.675800 -15.842800
C -5.818500 -17.479100 -19.761500
H -5.585600 -18.018800 -22.231000
C -5.465900 -17.246200 -17.395400
Cl -4.952400 -18.815300 -24.412700
C -4.561700 -18.096000 -19.858000
C -4.225600 -17.863200 -17.491600
O -4.103300 -18.493200 -21.078400
C -3.783000 -18.282100 -18.721100
H -3.702200 -17.990500 -16.733500
H -3.260100 -18.736900 -21.056800
H -2.953300 -18.695600 -18.794500
