29
Fragment
O -21.248100 -25.661600 -7.174500
O -20.936800 -23.519600 -7.205700
N -20.619100 -24.663500 -7.515400
H -19.690000 -26.864700 -8.549600
C -19.422400 -24.862800 -8.335000
C -19.126200 -26.134300 -8.775500
H -18.829200 -22.906200 -8.310900
C -18.614800 -23.774100 -8.630700
C -17.998800 -26.335800 -9.549800
H -17.790800 -27.211800 -9.853600
C -17.491200 -23.988800 -9.403500
C -17.157700 -25.266300 -9.893000
Cl -16.469600 -22.630200 -9.761200
O -16.198900 -27.589200 -11.312400
N -16.007900 -25.408300 -10.670400
C -15.584100 -26.530300 -11.330600
H -15.544400 -24.751700 -10.772600
H -14.396500 -28.386800 -12.649900
C -14.299200 -26.418400 -12.094200
O -13.909900 -24.114600 -11.627600
C -13.881600 -27.593600 -12.734500
C -13.515500 -25.257800 -12.237900
H -13.406200 -23.509000 -11.765200
C -12.728600 -27.602300 -13.484800
C -12.347700 -25.302800 -13.004900
Cl -12.245800 -29.070000 -14.302900
C -11.949100 -26.465700 -13.623900
H -11.821200 -24.518100 -13.100800
H -11.151300 -26.488900 -14.138700
29
Fragment
H -21.240000 -24.304700 -2.974200
H -20.570100 -26.275500 -4.012100
C -20.442200 -24.327900 -3.489100
Cl -20.145500 -21.723600 -2.810000
C -20.043600 -25.490800 -4.108100
C -19.662700 -23.191300 -3.628100
H -18.985100 -27.284600 -5.347800
C -18.875800 -25.535800 -4.875100
C -18.509600 -23.200000 -4.378400
O -18.481400 -26.679000 -5.485400
C -18.092000 -24.375200 -5.018700
H -17.994800 -22.406800 -4.463100
H -16.846900 -26.041900 -6.340400
C -16.807200 -24.263300 -5.782400
N -16.383400 -25.385300 -6.442600
O -16.192300 -23.204400 -5.800500
Cl -15.921600 -28.163400 -7.351800
C -15.233600 -25.527300 -7.220000
C -14.900000 -26.804800 -7.709500
H -14.600500 -23.581800 -7.259300
C -14.392400 -24.457800 -7.563200
C -13.776400 -27.019500 -8.482300
H -13.562100 -27.887400 -8.802100
C -13.265100 -24.659300 -8.337400
C -12.968800 -25.930800 -8.778000
H -12.701300 -23.928900 -8.563300
N -11.772200 -26.130100 -9.597600
O -11.454500 -27.274000 -9.907300
O -11.143100 -25.132000 -9.938400
58
Fragment
O -21.248100 -25.661600 -7.174500
O -20.936800 -23.519600 -7.205700
N -20.619100 -24.663500 -7.515400
H -19.690000 -26.864700 -8.549600
C -19.422400 -24.862800 -8.335000
C -19.126200 -26.134300 -8.775500
H -18.829200 -22.906200 -8.310900
C -18.614800 -23.774100 -8.630700
C -17.998800 -26.335800 -9.549800
H -17.790800 -27.211800 -9.853600
C -17.491200 -23.988800 -9.403500
C -17.157700 -25.266300 -9.893000
Cl -16.469600 -22.630200 -9.761200
O -16.198900 -27.589200 -11.312400
N -16.007900 -25.408300 -10.670400
C -15.584100 -26.530300 -11.330600
H -15.544400 -24.751700 -10.772600
H -14.396500 -28.386800 -12.649900
C -14.299200 -26.418400 -12.094200
O -13.909900 -24.114600 -11.627600
C -13.881600 -27.593600 -12.734500
C -13.515500 -25.257800 -12.237900
H -13.406200 -23.509000 -11.765200
C -12.728600 -27.602300 -13.484800
C -12.347700 -25.302800 -13.004900
Cl -12.245800 -29.070000 -14.302900
C -11.949100 -26.465700 -13.623900
H -11.821200 -24.518100 -13.100800
H -11.151300 -26.488900 -14.138700
H -21.240000 -24.304700 -2.974200
H -20.570100 -26.275500 -4.012100
C -20.442200 -24.327900 -3.489100
Cl -20.145500 -21.723600 -2.810000
C -20.043600 -25.490800 -4.108100
C -19.662700 -23.191300 -3.628100
H -18.985100 -27.284600 -5.347800
C -18.875800 -25.535800 -4.875100
C -18.509600 -23.200000 -4.378400
O -18.481400 -26.679000 -5.485400
C -18.092000 -24.375200 -5.018700
H -17.994800 -22.406800 -4.463100
H -16.846900 -26.041900 -6.340400
C -16.807200 -24.263300 -5.782400
N -16.383400 -25.385300 -6.442600
O -16.192300 -23.204400 -5.800500
Cl -15.921600 -28.163400 -7.351800
C -15.233600 -25.527300 -7.220000
C -14.900000 -26.804800 -7.709500
H -14.600500 -23.581800 -7.259300
C -14.392400 -24.457800 -7.563200
C -13.776400 -27.019500 -8.482300
H -13.562100 -27.887400 -8.802100
C -13.265100 -24.659300 -8.337400
C -12.968800 -25.930800 -8.778000
H -12.701300 -23.928900 -8.563300
N -11.772200 -26.130100 -9.597600
O -11.454500 -27.274000 -9.907300
O -11.143100 -25.132000 -9.938400
