29
Fragment
O -21.248100 -25.661600 -7.174500
O -20.936800 -23.519600 -7.205700
N -20.619100 -24.663500 -7.515400
H -19.690000 -26.864700 -8.549600
C -19.422400 -24.862800 -8.335000
C -19.126200 -26.134300 -8.775500
H -18.829200 -22.906200 -8.310900
C -18.614800 -23.774100 -8.630700
C -17.998800 -26.335800 -9.549800
H -17.790800 -27.211800 -9.853600
C -17.491200 -23.988800 -9.403500
C -17.157700 -25.266300 -9.893000
Cl -16.469600 -22.630200 -9.761200
O -16.198900 -27.589200 -11.312400
N -16.007900 -25.408300 -10.670400
C -15.584100 -26.530300 -11.330600
H -15.544400 -24.751700 -10.772600
H -14.396500 -28.386800 -12.649900
C -14.299200 -26.418400 -12.094200
O -13.909900 -24.114600 -11.627600
C -13.881600 -27.593600 -12.734500
C -13.515500 -25.257800 -12.237900
H -13.406200 -23.509000 -11.765200
C -12.728600 -27.602300 -13.484800
C -12.347700 -25.302800 -13.004900
Cl -12.245800 -29.070000 -14.302900
C -11.949100 -26.465700 -13.623900
H -11.821200 -24.518100 -13.100800
H -11.151300 -26.488900 -14.138700
29
Fragment
O -32.870500 -25.661600 1.382000
O -32.559100 -23.519600 1.350800
N -32.241400 -24.663500 1.041100
H -31.312300 -26.864700 0.006800
C -31.044800 -24.862800 0.221500
C -30.748600 -26.134300 -0.219000
H -30.451600 -22.906200 0.245600
C -30.237200 -23.774100 -0.074200
C -29.621200 -26.335800 -0.993300
H -29.413100 -27.211800 -1.297200
C -29.113600 -23.988800 -0.847000
C -28.780000 -25.266300 -1.336500
Cl -28.092000 -22.630200 -1.204700
O -27.821300 -27.589200 -2.756000
N -27.630200 -25.408300 -2.113900
C -27.206500 -26.530300 -2.774100
H -27.166800 -24.751700 -2.216100
H -26.018900 -28.386800 -4.093400
C -25.921600 -26.418400 -3.537800
O -25.532200 -24.114600 -3.071100
C -25.504000 -27.593600 -4.178000
C -25.137800 -25.257800 -3.681400
H -25.028500 -23.509000 -3.208700
C -24.351000 -27.602300 -4.928400
C -23.970000 -25.302800 -4.448400
Cl -23.868100 -29.070000 -5.746400
C -23.571500 -26.465700 -5.067400
H -23.443500 -24.518100 -4.544300
H -22.773700 -26.488900 -5.582300
58
Fragment
O -21.248100 -25.661600 -7.174500
O -20.936800 -23.519600 -7.205700
N -20.619100 -24.663500 -7.515400
H -19.690000 -26.864700 -8.549600
C -19.422400 -24.862800 -8.335000
C -19.126200 -26.134300 -8.775500
H -18.829200 -22.906200 -8.310900
C -18.614800 -23.774100 -8.630700
C -17.998800 -26.335800 -9.549800
H -17.790800 -27.211800 -9.853600
C -17.491200 -23.988800 -9.403500
C -17.157700 -25.266300 -9.893000
Cl -16.469600 -22.630200 -9.761200
O -16.198900 -27.589200 -11.312400
N -16.007900 -25.408300 -10.670400
C -15.584100 -26.530300 -11.330600
H -15.544400 -24.751700 -10.772600
H -14.396500 -28.386800 -12.649900
C -14.299200 -26.418400 -12.094200
O -13.909900 -24.114600 -11.627600
C -13.881600 -27.593600 -12.734500
C -13.515500 -25.257800 -12.237900
H -13.406200 -23.509000 -11.765200
C -12.728600 -27.602300 -13.484800
C -12.347700 -25.302800 -13.004900
Cl -12.245800 -29.070000 -14.302900
C -11.949100 -26.465700 -13.623900
H -11.821200 -24.518100 -13.100800
H -11.151300 -26.488900 -14.138700
O -32.870500 -25.661600 1.382000
O -32.559100 -23.519600 1.350800
N -32.241400 -24.663500 1.041100
H -31.312300 -26.864700 0.006800
C -31.044800 -24.862800 0.221500
C -30.748600 -26.134300 -0.219000
H -30.451600 -22.906200 0.245600
C -30.237200 -23.774100 -0.074200
C -29.621200 -26.335800 -0.993300
H -29.413100 -27.211800 -1.297200
C -29.113600 -23.988800 -0.847000
C -28.780000 -25.266300 -1.336500
Cl -28.092000 -22.630200 -1.204700
O -27.821300 -27.589200 -2.756000
N -27.630200 -25.408300 -2.113900
C -27.206500 -26.530300 -2.774100
H -27.166800 -24.751700 -2.216100
H -26.018900 -28.386800 -4.093400
C -25.921600 -26.418400 -3.537800
O -25.532200 -24.114600 -3.071100
C -25.504000 -27.593600 -4.178000
C -25.137800 -25.257800 -3.681400
H -25.028500 -23.509000 -3.208700
C -24.351000 -27.602300 -4.928400
C -23.970000 -25.302800 -4.448400
Cl -23.868100 -29.070000 -5.746400
C -23.571500 -26.465700 -5.067400
H -23.443500 -24.518100 -4.544300
H -22.773700 -26.488900 -5.582300
