29
Fragment
O -21.248100 -25.661600 -7.174500
O -20.936800 -23.519600 -7.205700
N -20.619100 -24.663500 -7.515400
H -19.690000 -26.864700 -8.549600
C -19.422400 -24.862800 -8.335000
C -19.126200 -26.134300 -8.775500
H -18.829200 -22.906200 -8.310900
C -18.614800 -23.774100 -8.630700
C -17.998800 -26.335800 -9.549800
H -17.790800 -27.211800 -9.853600
C -17.491200 -23.988800 -9.403500
C -17.157700 -25.266300 -9.893000
Cl -16.469600 -22.630200 -9.761200
O -16.198900 -27.589200 -11.312400
N -16.007900 -25.408300 -10.670400
C -15.584100 -26.530300 -11.330600
H -15.544400 -24.751700 -10.772600
H -14.396500 -28.386800 -12.649900
C -14.299200 -26.418400 -12.094200
O -13.909900 -24.114600 -11.627600
C -13.881600 -27.593600 -12.734500
C -13.515500 -25.257800 -12.237900
H -13.406200 -23.509000 -11.765200
C -12.728600 -27.602300 -13.484800
C -12.347700 -25.302800 -13.004900
Cl -12.245800 -29.070000 -14.302900
C -11.949100 -26.465700 -13.623900
H -11.821200 -24.518100 -13.100800
H -11.151300 -26.488900 -14.138700
29
Fragment
H -20.744800 -24.304700 -11.530700
H -20.075000 -26.275500 -12.568600
C -19.947000 -24.327900 -12.045600
Cl -19.650400 -21.723600 -11.366500
C -19.548400 -25.490800 -12.664500
C -19.167500 -23.191300 -12.184600
H -18.489900 -27.284600 -13.904300
C -18.380600 -25.535800 -13.431500
C -18.014500 -23.200000 -12.934900
O -17.986200 -26.679000 -14.041900
C -17.596900 -24.375200 -13.575200
H -17.499600 -22.406800 -13.019500
H -16.351700 -26.041900 -14.896800
C -16.312000 -24.263300 -14.338900
N -15.888200 -25.385300 -14.999100
O -15.697200 -23.204400 -14.357000
Cl -15.426500 -28.163400 -15.908300
C -14.738400 -25.527300 -15.776400
C -14.404900 -26.804800 -16.266000
H -14.105400 -23.581800 -15.815800
C -13.897300 -24.457800 -16.119600
C -13.281300 -27.019500 -17.038800
H -13.066900 -27.887400 -17.358500
C -12.769900 -24.659300 -16.893900
C -12.473700 -25.930800 -17.334500
H -12.206100 -23.928900 -17.119800
N -11.277000 -26.130100 -18.154000
O -10.959300 -27.274000 -18.463800
O -10.648000 -25.132000 -18.494900
58
Fragment
O -21.248100 -25.661600 -7.174500
O -20.936800 -23.519600 -7.205700
N -20.619100 -24.663500 -7.515400
H -19.690000 -26.864700 -8.549600
C -19.422400 -24.862800 -8.335000
C -19.126200 -26.134300 -8.775500
H -18.829200 -22.906200 -8.310900
C -18.614800 -23.774100 -8.630700
C -17.998800 -26.335800 -9.549800
H -17.790800 -27.211800 -9.853600
C -17.491200 -23.988800 -9.403500
C -17.157700 -25.266300 -9.893000
Cl -16.469600 -22.630200 -9.761200
O -16.198900 -27.589200 -11.312400
N -16.007900 -25.408300 -10.670400
C -15.584100 -26.530300 -11.330600
H -15.544400 -24.751700 -10.772600
H -14.396500 -28.386800 -12.649900
C -14.299200 -26.418400 -12.094200
O -13.909900 -24.114600 -11.627600
C -13.881600 -27.593600 -12.734500
C -13.515500 -25.257800 -12.237900
H -13.406200 -23.509000 -11.765200
C -12.728600 -27.602300 -13.484800
C -12.347700 -25.302800 -13.004900
Cl -12.245800 -29.070000 -14.302900
C -11.949100 -26.465700 -13.623900
H -11.821200 -24.518100 -13.100800
H -11.151300 -26.488900 -14.138700
H -20.744800 -24.304700 -11.530700
H -20.075000 -26.275500 -12.568600
C -19.947000 -24.327900 -12.045600
Cl -19.650400 -21.723600 -11.366500
C -19.548400 -25.490800 -12.664500
C -19.167500 -23.191300 -12.184600
H -18.489900 -27.284600 -13.904300
C -18.380600 -25.535800 -13.431500
C -18.014500 -23.200000 -12.934900
O -17.986200 -26.679000 -14.041900
C -17.596900 -24.375200 -13.575200
H -17.499600 -22.406800 -13.019500
H -16.351700 -26.041900 -14.896800
C -16.312000 -24.263300 -14.338900
N -15.888200 -25.385300 -14.999100
O -15.697200 -23.204400 -14.357000
Cl -15.426500 -28.163400 -15.908300
C -14.738400 -25.527300 -15.776400
C -14.404900 -26.804800 -16.266000
H -14.105400 -23.581800 -15.815800
C -13.897300 -24.457800 -16.119600
C -13.281300 -27.019500 -17.038800
H -13.066900 -27.887400 -17.358500
C -12.769900 -24.659300 -16.893900
C -12.473700 -25.930800 -17.334500
H -12.206100 -23.928900 -17.119800
N -11.277000 -26.130100 -18.154000
O -10.959300 -27.274000 -18.463800
O -10.648000 -25.132000 -18.494900
