21
Fragment
H -11.849500 -16.506300 -31.759800
O -11.284100 -15.558600 -34.563400
N -10.977800 -16.186400 -31.556200
H -10.657100 -16.536800 -29.623600
C -10.311700 -15.305100 -33.859500
C -10.307800 -16.179900 -30.408900
C -10.145900 -15.577100 -32.477600
H -10.050500 -14.498800 -36.198100
N -9.166400 -14.681600 -34.404900
C -9.162100 -14.396500 -35.850000
N -9.095900 -15.620600 -30.468200
C -9.019900 -15.253900 -31.779500
H -8.861000 -13.497800 -35.999000
H -8.571600 -15.009100 -36.295400
C -8.009600 -14.335600 -33.710500
N -7.947000 -14.619600 -32.376400
O -7.069500 -13.789400 -34.289400
H -6.900500 -14.447700 -30.680700
C -6.763000 -14.236600 -31.607500
H -6.612500 -13.293200 -31.700100
H -5.999500 -14.716400 -31.934500
29
Fragment
O -15.522600 -17.001400 -49.186800
H -15.125100 -16.519400 -46.821500
N -14.436200 -17.533500 -49.129500
C -14.292500 -16.928500 -46.754500
H -14.010000 -16.566200 -44.802500
O -13.944900 -18.121100 -50.078700
C -13.709700 -17.520400 -47.861100
C -13.621100 -16.953500 -45.552900
O -13.109000 -16.666300 -42.807900
C -12.460300 -18.105800 -47.800500
C -12.366800 -17.549800 -45.446900
H -12.341100 -16.643400 -40.527900
H -12.078800 -18.489900 -48.555200
C -12.031900 -17.212500 -43.005600
C -11.799000 -18.106900 -46.608600
N -11.646400 -17.635800 -44.258500
C -11.513500 -17.058000 -40.615700
Cl -11.283300 -16.675800 -37.956600
C -11.086600 -17.479100 -41.875300
H -10.853700 -18.018800 -44.344800
C -10.734000 -17.246200 -39.509200
Cl -10.220500 -18.815300 -46.526500
C -9.829800 -18.096000 -41.971800
C -9.493700 -17.863200 -39.605400
O -9.371400 -18.493200 -43.192200
C -9.051100 -18.282100 -40.834900
H -8.970300 -17.990500 -38.847300
H -8.528200 -18.736900 -43.170500
H -8.221400 -18.695600 -40.908300
50
Fragment
H -11.849500 -16.506300 -31.759800
O -11.284100 -15.558600 -34.563400
N -10.977800 -16.186400 -31.556200
H -10.657100 -16.536800 -29.623600
C -10.311700 -15.305100 -33.859500
C -10.307800 -16.179900 -30.408900
C -10.145900 -15.577100 -32.477600
H -10.050500 -14.498800 -36.198100
N -9.166400 -14.681600 -34.404900
C -9.162100 -14.396500 -35.850000
N -9.095900 -15.620600 -30.468200
C -9.019900 -15.253900 -31.779500
H -8.861000 -13.497800 -35.999000
H -8.571600 -15.009100 -36.295400
C -8.009600 -14.335600 -33.710500
N -7.947000 -14.619600 -32.376400
O -7.069500 -13.789400 -34.289400
H -6.900500 -14.447700 -30.680700
C -6.763000 -14.236600 -31.607500
H -6.612500 -13.293200 -31.700100
H -5.999500 -14.716400 -31.934500
O -15.522600 -17.001400 -49.186800
H -15.125100 -16.519400 -46.821500
N -14.436200 -17.533500 -49.129500
C -14.292500 -16.928500 -46.754500
H -14.010000 -16.566200 -44.802500
O -13.944900 -18.121100 -50.078700
C -13.709700 -17.520400 -47.861100
C -13.621100 -16.953500 -45.552900
O -13.109000 -16.666300 -42.807900
C -12.460300 -18.105800 -47.800500
C -12.366800 -17.549800 -45.446900
H -12.341100 -16.643400 -40.527900
H -12.078800 -18.489900 -48.555200
C -12.031900 -17.212500 -43.005600
C -11.799000 -18.106900 -46.608600
N -11.646400 -17.635800 -44.258500
C -11.513500 -17.058000 -40.615700
Cl -11.283300 -16.675800 -37.956600
C -11.086600 -17.479100 -41.875300
H -10.853700 -18.018800 -44.344800
C -10.734000 -17.246200 -39.509200
Cl -10.220500 -18.815300 -46.526500
C -9.829800 -18.096000 -41.971800
C -9.493700 -17.863200 -39.605400
O -9.371400 -18.493200 -43.192200
C -9.051100 -18.282100 -40.834900
H -8.970300 -17.990500 -38.847300
H -8.528200 -18.736900 -43.170500
H -8.221400 -18.695600 -40.908300
