22
Fragment
H -8.822600 -37.732500 -17.033100
H -8.650700 -38.613600 -14.827700
N -8.612900 -39.682400 -16.545900
H -8.609600 -38.684100 -18.302300
H -8.330700 -40.163900 -14.599600
C -8.313000 -38.510000 -17.374600
C -8.143200 -39.385400 -15.182300
H -8.136300 -41.003200 -17.999100
H -8.041300 -41.620200 -16.524400
C -7.848400 -40.816800 -17.070100
H -6.915800 -37.136400 -15.624100
N -6.874600 -38.183500 -17.378200
N -6.709800 -39.081800 -15.129800
C -6.438200 -37.928600 -15.978700
H -6.410100 -39.552200 -18.820600
N -6.398100 -40.555300 -17.053400
H -6.149000 -41.021500 -15.083200
C -6.134300 -39.366800 -17.888000
C -5.982900 -40.236100 -15.662300
H -5.467800 -37.732500 -15.966800
H -5.163200 -39.173100 -17.888000
H -5.011200 -40.046300 -15.646800
22
Fragment
H -10.884400 -40.702500 -23.003300
H -10.712500 -39.821400 -20.797900
N -10.674700 -38.752600 -22.516100
H -10.671500 -39.750900 -24.272600
H -10.392500 -38.271100 -20.569800
C -10.374800 -39.925000 -23.344800
C -10.205000 -39.049600 -21.152500
H -10.198100 -37.431800 -23.969300
H -10.103100 -36.814800 -22.494600
C -9.910200 -37.618200 -23.040300
H -8.977700 -41.298600 -21.594300
N -8.936400 -40.251500 -23.348400
N -8.771600 -39.353200 -21.100000
C -8.500000 -40.506400 -21.949000
H -8.471900 -38.882800 -24.790800
N -8.459900 -37.879700 -23.023600
H -8.210900 -37.413500 -21.053400
C -8.196200 -39.068200 -23.858200
C -8.044700 -38.198900 -21.632500
H -7.529600 -40.702500 -21.937000
H -7.225000 -39.261900 -23.858200
H -7.073100 -38.388700 -21.617000
44
Fragment
H -8.822600 -37.732500 -17.033100
H -8.650700 -38.613600 -14.827700
N -8.612900 -39.682400 -16.545900
H -8.609600 -38.684100 -18.302300
H -8.330700 -40.163900 -14.599600
C -8.313000 -38.510000 -17.374600
C -8.143200 -39.385400 -15.182300
H -8.136300 -41.003200 -17.999100
H -8.041300 -41.620200 -16.524400
C -7.848400 -40.816800 -17.070100
H -6.915800 -37.136400 -15.624100
N -6.874600 -38.183500 -17.378200
N -6.709800 -39.081800 -15.129800
C -6.438200 -37.928600 -15.978700
H -6.410100 -39.552200 -18.820600
N -6.398100 -40.555300 -17.053400
H -6.149000 -41.021500 -15.083200
C -6.134300 -39.366800 -17.888000
C -5.982900 -40.236100 -15.662300
H -5.467800 -37.732500 -15.966800
H -5.163200 -39.173100 -17.888000
H -5.011200 -40.046300 -15.646800
H -10.884400 -40.702500 -23.003300
H -10.712500 -39.821400 -20.797900
N -10.674700 -38.752600 -22.516100
H -10.671500 -39.750900 -24.272600
H -10.392500 -38.271100 -20.569800
C -10.374800 -39.925000 -23.344800
C -10.205000 -39.049600 -21.152500
H -10.198100 -37.431800 -23.969300
H -10.103100 -36.814800 -22.494600
C -9.910200 -37.618200 -23.040300
H -8.977700 -41.298600 -21.594300
N -8.936400 -40.251500 -23.348400
N -8.771600 -39.353200 -21.100000
C -8.500000 -40.506400 -21.949000
H -8.471900 -38.882800 -24.790800
N -8.459900 -37.879700 -23.023600
H -8.210900 -37.413500 -21.053400
C -8.196200 -39.068200 -23.858200
C -8.044700 -38.198900 -21.632500
H -7.529600 -40.702500 -21.937000
H -7.225000 -39.261900 -23.858200
H -7.073100 -38.388700 -21.617000
