22
Fragment
H -8.822600 -37.732500 -17.033100
H -8.650700 -38.613600 -14.827700
N -8.612900 -39.682400 -16.545900
H -8.609600 -38.684100 -18.302300
H -8.330700 -40.163900 -14.599600
C -8.313000 -38.510000 -17.374600
C -8.143200 -39.385400 -15.182300
H -8.136300 -41.003200 -17.999100
H -8.041300 -41.620200 -16.524400
C -7.848400 -40.816800 -17.070100
H -6.915800 -37.136400 -15.624100
N -6.874600 -38.183500 -17.378200
N -6.709800 -39.081800 -15.129800
C -6.438200 -37.928600 -15.978700
H -6.410100 -39.552200 -18.820600
N -6.398100 -40.555300 -17.053400
H -6.149000 -41.021500 -15.083200
C -6.134300 -39.366800 -17.888000
C -5.982900 -40.236100 -15.662300
H -5.467800 -37.732500 -15.966800
H -5.163200 -39.173100 -17.888000
H -5.011200 -40.046300 -15.646800
15
Fragment
O -10.468400 -36.558000 -13.953600
H -9.957800 -35.251300 -16.045600
C -9.452600 -36.000100 -13.589400
H -9.446700 -36.655300 -11.988200
C -9.087500 -34.960600 -15.799600
O -9.002400 -36.046900 -12.354800
H -8.612700 -34.121800 -17.593100
C -8.606100 -35.205800 -14.525600
C -8.290900 -34.286800 -16.714300
C -7.339100 -34.760300 -14.150600
C -7.030900 -33.855400 -16.348900
H -7.017100 -34.908800 -13.269400
C -6.553600 -34.092000 -15.086800
H -6.491700 -33.389800 -16.977000
H -5.681900 -33.797600 -14.849200
37
Fragment
H -8.822600 -37.732500 -17.033100
H -8.650700 -38.613600 -14.827700
N -8.612900 -39.682400 -16.545900
H -8.609600 -38.684100 -18.302300
H -8.330700 -40.163900 -14.599600
C -8.313000 -38.510000 -17.374600
C -8.143200 -39.385400 -15.182300
H -8.136300 -41.003200 -17.999100
H -8.041300 -41.620200 -16.524400
C -7.848400 -40.816800 -17.070100
H -6.915800 -37.136400 -15.624100
N -6.874600 -38.183500 -17.378200
N -6.709800 -39.081800 -15.129800
C -6.438200 -37.928600 -15.978700
H -6.410100 -39.552200 -18.820600
N -6.398100 -40.555300 -17.053400
H -6.149000 -41.021500 -15.083200
C -6.134300 -39.366800 -17.888000
C -5.982900 -40.236100 -15.662300
H -5.467800 -37.732500 -15.966800
H -5.163200 -39.173100 -17.888000
H -5.011200 -40.046300 -15.646800
O -10.468400 -36.558000 -13.953600
H -9.957800 -35.251300 -16.045600
C -9.452600 -36.000100 -13.589400
H -9.446700 -36.655300 -11.988200
C -9.087500 -34.960600 -15.799600
O -9.002400 -36.046900 -12.354800
H -8.612700 -34.121800 -17.593100
C -8.606100 -35.205800 -14.525600
C -8.290900 -34.286800 -16.714300
C -7.339100 -34.760300 -14.150600
C -7.030900 -33.855400 -16.348900
H -7.017100 -34.908800 -13.269400
C -6.553600 -34.092000 -15.086800
H -6.491700 -33.389800 -16.977000
H -5.681900 -33.797600 -14.849200
