22
Fragment
H -8.822600 -37.732500 -17.033100
H -8.650700 -38.613600 -14.827700
N -8.612900 -39.682400 -16.545900
H -8.609600 -38.684100 -18.302300
H -8.330700 -40.163900 -14.599600
C -8.313000 -38.510000 -17.374600
C -8.143200 -39.385400 -15.182300
H -8.136300 -41.003200 -17.999100
H -8.041300 -41.620200 -16.524400
C -7.848400 -40.816800 -17.070100
H -6.915800 -37.136400 -15.624100
N -6.874600 -38.183500 -17.378200
N -6.709800 -39.081800 -15.129800
C -6.438200 -37.928600 -15.978700
H -6.410100 -39.552200 -18.820600
N -6.398100 -40.555300 -17.053400
H -6.149000 -41.021500 -15.083200
C -6.134300 -39.366800 -17.888000
C -5.982900 -40.236100 -15.662300
H -5.467800 -37.732500 -15.966800
H -5.163200 -39.173100 -17.888000
H -5.011200 -40.046300 -15.646800
22
Fragment
H -6.760800 -40.702500 -11.062800
H -6.588900 -39.821400 -8.857400
N -6.551100 -38.752600 -10.575700
H -6.547800 -39.750900 -12.332100
H -6.268900 -38.271100 -8.629400
C -6.251200 -39.925000 -11.404300
C -6.081400 -39.049600 -9.212100
H -6.074500 -37.431800 -12.028800
H -5.979500 -36.814800 -10.554200
C -5.786600 -37.618200 -11.099900
H -4.854000 -41.298600 -9.653900
N -4.812800 -40.251500 -11.407900
N -4.648000 -39.353200 -9.159500
C -4.376400 -40.506400 -10.008500
H -4.348300 -38.882800 -12.850300
N -4.336300 -37.879700 -11.083100
H -4.087200 -37.413500 -9.113000
C -4.072500 -39.068200 -11.917800
C -3.921100 -38.198900 -9.692100
H -3.406000 -40.702500 -9.996600
H -3.101400 -39.261900 -11.917800
H -2.949400 -38.388700 -9.676600
44
Fragment
H -8.822600 -37.732500 -17.033100
H -8.650700 -38.613600 -14.827700
N -8.612900 -39.682400 -16.545900
H -8.609600 -38.684100 -18.302300
H -8.330700 -40.163900 -14.599600
C -8.313000 -38.510000 -17.374600
C -8.143200 -39.385400 -15.182300
H -8.136300 -41.003200 -17.999100
H -8.041300 -41.620200 -16.524400
C -7.848400 -40.816800 -17.070100
H -6.915800 -37.136400 -15.624100
N -6.874600 -38.183500 -17.378200
N -6.709800 -39.081800 -15.129800
C -6.438200 -37.928600 -15.978700
H -6.410100 -39.552200 -18.820600
N -6.398100 -40.555300 -17.053400
H -6.149000 -41.021500 -15.083200
C -6.134300 -39.366800 -17.888000
C -5.982900 -40.236100 -15.662300
H -5.467800 -37.732500 -15.966800
H -5.163200 -39.173100 -17.888000
H -5.011200 -40.046300 -15.646800
H -6.760800 -40.702500 -11.062800
H -6.588900 -39.821400 -8.857400
N -6.551100 -38.752600 -10.575700
H -6.547800 -39.750900 -12.332100
H -6.268900 -38.271100 -8.629400
C -6.251200 -39.925000 -11.404300
C -6.081400 -39.049600 -9.212100
H -6.074500 -37.431800 -12.028800
H -5.979500 -36.814800 -10.554200
C -5.786600 -37.618200 -11.099900
H -4.854000 -41.298600 -9.653900
N -4.812800 -40.251500 -11.407900
N -4.648000 -39.353200 -9.159500
C -4.376400 -40.506400 -10.008500
H -4.348300 -38.882800 -12.850300
N -4.336300 -37.879700 -11.083100
H -4.087200 -37.413500 -9.113000
C -4.072500 -39.068200 -11.917800
C -3.921100 -38.198900 -9.692100
H -3.406000 -40.702500 -9.996600
H -3.101400 -39.261900 -11.917800
H -2.949400 -38.388700 -9.676600
