22
Fragment
H -8.822600 -37.732500 -17.033100
H -8.650700 -38.613600 -14.827700
N -8.612900 -39.682400 -16.545900
H -8.609600 -38.684100 -18.302300
H -8.330700 -40.163900 -14.599600
C -8.313000 -38.510000 -17.374600
C -8.143200 -39.385400 -15.182300
H -8.136300 -41.003200 -17.999100
H -8.041300 -41.620200 -16.524400
C -7.848400 -40.816800 -17.070100
H -6.915800 -37.136400 -15.624100
N -6.874600 -38.183500 -17.378200
N -6.709800 -39.081800 -15.129800
C -6.438200 -37.928600 -15.978700
H -6.410100 -39.552200 -18.820600
N -6.398100 -40.555300 -17.053400
H -6.149000 -41.021500 -15.083200
C -6.134300 -39.366800 -17.888000
C -5.982900 -40.236100 -15.662300
H -5.467800 -37.732500 -15.966800
H -5.163200 -39.173100 -17.888000
H -5.011200 -40.046300 -15.646800
22
Fragment
H -2.730100 -37.732500 -17.033100
H -2.558200 -38.613600 -14.827700
N -2.520400 -39.682400 -16.545900
H -2.517100 -38.684100 -18.302300
H -2.238200 -40.163900 -14.599600
C -2.220500 -38.510000 -17.374600
C -2.050700 -39.385400 -15.182300
H -2.043800 -41.003200 -17.999100
H -1.948800 -41.620200 -16.524400
C -1.755900 -40.816800 -17.070100
H -0.823300 -37.136400 -15.624100
N -0.782100 -38.183500 -17.378200
N -0.617300 -39.081800 -15.129800
C -0.345700 -37.928600 -15.978700
H -0.317600 -39.552200 -18.820600
N -0.305600 -40.555300 -17.053400
H -0.056500 -41.021500 -15.083200
C -0.041800 -39.366800 -17.888000
C 0.109600 -40.236100 -15.662300
H 0.624700 -37.732500 -15.966800
H 0.929300 -39.173100 -17.888000
H 1.081300 -40.046300 -15.646800
44
Fragment
H -8.822600 -37.732500 -17.033100
H -8.650700 -38.613600 -14.827700
N -8.612900 -39.682400 -16.545900
H -8.609600 -38.684100 -18.302300
H -8.330700 -40.163900 -14.599600
C -8.313000 -38.510000 -17.374600
C -8.143200 -39.385400 -15.182300
H -8.136300 -41.003200 -17.999100
H -8.041300 -41.620200 -16.524400
C -7.848400 -40.816800 -17.070100
H -6.915800 -37.136400 -15.624100
N -6.874600 -38.183500 -17.378200
N -6.709800 -39.081800 -15.129800
C -6.438200 -37.928600 -15.978700
H -6.410100 -39.552200 -18.820600
N -6.398100 -40.555300 -17.053400
H -6.149000 -41.021500 -15.083200
C -6.134300 -39.366800 -17.888000
C -5.982900 -40.236100 -15.662300
H -5.467800 -37.732500 -15.966800
H -5.163200 -39.173100 -17.888000
H -5.011200 -40.046300 -15.646800
H -2.730100 -37.732500 -17.033100
H -2.558200 -38.613600 -14.827700
N -2.520400 -39.682400 -16.545900
H -2.517100 -38.684100 -18.302300
H -2.238200 -40.163900 -14.599600
C -2.220500 -38.510000 -17.374600
C -2.050700 -39.385400 -15.182300
H -2.043800 -41.003200 -17.999100
H -1.948800 -41.620200 -16.524400
C -1.755900 -40.816800 -17.070100
H -0.823300 -37.136400 -15.624100
N -0.782100 -38.183500 -17.378200
N -0.617300 -39.081800 -15.129800
C -0.345700 -37.928600 -15.978700
H -0.317600 -39.552200 -18.820600
N -0.305600 -40.555300 -17.053400
H -0.056500 -41.021500 -15.083200
C -0.041800 -39.366800 -17.888000
C 0.109600 -40.236100 -15.662300
H 0.624700 -37.732500 -15.966800
H 0.929300 -39.173100 -17.888000
H 1.081300 -40.046300 -15.646800
