22
Fragment
H -8.822600 -37.732500 -17.033100
H -8.650700 -38.613600 -14.827700
N -8.612900 -39.682400 -16.545900
H -8.609600 -38.684100 -18.302300
H -8.330700 -40.163900 -14.599600
C -8.313000 -38.510000 -17.374600
C -8.143200 -39.385400 -15.182300
H -8.136300 -41.003200 -17.999100
H -8.041300 -41.620200 -16.524400
C -7.848400 -40.816800 -17.070100
H -6.915800 -37.136400 -15.624100
N -6.874600 -38.183500 -17.378200
N -6.709800 -39.081800 -15.129800
C -6.438200 -37.928600 -15.978700
H -6.410100 -39.552200 -18.820600
N -6.398100 -40.555300 -17.053400
H -6.149000 -41.021500 -15.083200
C -6.134300 -39.366800 -17.888000
C -5.982900 -40.236100 -15.662300
H -5.467800 -37.732500 -15.966800
H -5.163200 -39.173100 -17.888000
H -5.011200 -40.046300 -15.646800
22
Fragment
H -12.853300 -40.702500 -11.062800
H -12.681400 -39.821400 -8.857400
N -12.643600 -38.752600 -10.575700
H -12.640300 -39.750900 -12.332100
H -12.361400 -38.271100 -8.629400
C -12.343700 -39.925000 -11.404300
C -12.173900 -39.049600 -9.212100
H -12.167000 -37.431800 -12.028800
H -12.072000 -36.814800 -10.554200
C -11.879100 -37.618200 -11.099900
H -10.946500 -41.298600 -9.653900
N -10.905300 -40.251500 -11.407900
N -10.740500 -39.353200 -9.159500
C -10.468900 -40.506400 -10.008500
H -10.440800 -38.882800 -12.850300
N -10.428800 -37.879700 -11.083100
H -10.179700 -37.413500 -9.113000
C -10.165000 -39.068200 -11.917800
C -10.013600 -38.198900 -9.692100
H -9.498500 -40.702500 -9.996600
H -9.193900 -39.261900 -11.917800
H -9.041900 -38.388700 -9.676600
44
Fragment
H -8.822600 -37.732500 -17.033100
H -8.650700 -38.613600 -14.827700
N -8.612900 -39.682400 -16.545900
H -8.609600 -38.684100 -18.302300
H -8.330700 -40.163900 -14.599600
C -8.313000 -38.510000 -17.374600
C -8.143200 -39.385400 -15.182300
H -8.136300 -41.003200 -17.999100
H -8.041300 -41.620200 -16.524400
C -7.848400 -40.816800 -17.070100
H -6.915800 -37.136400 -15.624100
N -6.874600 -38.183500 -17.378200
N -6.709800 -39.081800 -15.129800
C -6.438200 -37.928600 -15.978700
H -6.410100 -39.552200 -18.820600
N -6.398100 -40.555300 -17.053400
H -6.149000 -41.021500 -15.083200
C -6.134300 -39.366800 -17.888000
C -5.982900 -40.236100 -15.662300
H -5.467800 -37.732500 -15.966800
H -5.163200 -39.173100 -17.888000
H -5.011200 -40.046300 -15.646800
H -12.853300 -40.702500 -11.062800
H -12.681400 -39.821400 -8.857400
N -12.643600 -38.752600 -10.575700
H -12.640300 -39.750900 -12.332100
H -12.361400 -38.271100 -8.629400
C -12.343700 -39.925000 -11.404300
C -12.173900 -39.049600 -9.212100
H -12.167000 -37.431800 -12.028800
H -12.072000 -36.814800 -10.554200
C -11.879100 -37.618200 -11.099900
H -10.946500 -41.298600 -9.653900
N -10.905300 -40.251500 -11.407900
N -10.740500 -39.353200 -9.159500
C -10.468900 -40.506400 -10.008500
H -10.440800 -38.882800 -12.850300
N -10.428800 -37.879700 -11.083100
H -10.179700 -37.413500 -9.113000
C -10.165000 -39.068200 -11.917800
C -10.013600 -38.198900 -9.692100
H -9.498500 -40.702500 -9.996600
H -9.193900 -39.261900 -11.917800
H -9.041900 -38.388700 -9.676600
