35
Fragment
H -33.408000 -14.163700 -17.014400
N -32.592200 -14.072200 -17.272600
H -32.407200 -14.054700 -18.111700
N -31.941700 -13.990400 -15.068200
C -31.619000 -13.958600 -16.374000
H -31.216200 -13.901100 -13.275900
C -30.948700 -13.851900 -14.165000
C -30.254600 -13.774800 -16.720600
H -29.811500 -13.692300 -18.763300
N -29.661400 -13.656700 -14.346500
C -29.503500 -13.648400 -17.886300
C -29.319600 -13.623400 -15.671900
H -28.900400 -14.215200 -21.252800
H -28.383900 -12.988500 -23.122000
N -28.241700 -13.450100 -17.475700
N -28.077900 -13.424400 -16.130400
O -28.052500 -12.845500 -22.385700
C -28.026100 -14.049400 -21.636600
H -27.804900 -14.792600 -22.219300
H -27.699400 -15.581100 -19.506000
O -27.418000 -12.930100 -19.601200
C -27.029600 -13.297300 -18.296300
C -27.001100 -13.942000 -20.538800
C -26.820400 -15.192100 -19.695200
H -26.457200 -12.600300 -17.912900
H -26.438400 -16.254600 -20.941100
H -26.384200 -15.197400 -17.636800
C -26.244000 -14.610200 -18.408800
H -26.138900 -13.687000 -20.926500
O -25.997200 -16.174300 -20.270300
O -24.880500 -14.345300 -18.643700
H -24.518100 -13.383500 -16.972500
H -24.141500 -14.904600 -16.915000
C -24.130700 -14.114500 -17.459700
H -23.223800 -13.898900 -17.692200
35
Fragment
H -24.776500 -17.947400 -17.014400
N -23.960700 -17.855800 -17.272600
H -23.775700 -17.838400 -18.111700
N -23.310200 -17.774100 -15.068200
C -22.987500 -17.742300 -16.374000
H -22.584700 -17.684800 -13.275900
C -22.317200 -17.635600 -14.165000
C -21.623100 -17.558400 -16.720600
H -21.180000 -17.475900 -18.763300
N -21.029900 -17.440400 -14.346500
C -20.872000 -17.432000 -17.886300
C -20.688100 -17.407100 -15.671900
H -20.268900 -17.998800 -21.252800
H -19.752400 -16.772200 -23.122000
N -19.610200 -17.233800 -17.475700
N -19.446400 -17.208000 -16.130400
O -19.421000 -16.629100 -22.385700
C -19.394600 -17.833100 -21.636600
H -19.173400 -18.576200 -22.219300
H -19.067900 -19.364700 -19.506000
O -18.786500 -16.713700 -19.601200
C -18.398100 -17.080900 -18.296300
C -18.369600 -17.725600 -20.538800
C -18.188900 -18.975800 -19.695200
H -17.825700 -16.384000 -17.912900
H -17.806900 -20.038200 -20.941100
H -17.752700 -18.981100 -17.636800
C -17.612500 -18.393800 -18.408800
H -17.507400 -17.470600 -20.926500
O -17.365700 -19.958000 -20.270300
O -16.249000 -18.129000 -18.643700
H -15.886600 -17.167200 -16.972500
H -15.510000 -18.688200 -16.915000
C -15.499200 -17.898200 -17.459700
H -14.592300 -17.682500 -17.692200
70
Fragment
H -33.408000 -14.163700 -17.014400
N -32.592200 -14.072200 -17.272600
H -32.407200 -14.054700 -18.111700
N -31.941700 -13.990400 -15.068200
C -31.619000 -13.958600 -16.374000
H -31.216200 -13.901100 -13.275900
C -30.948700 -13.851900 -14.165000
C -30.254600 -13.774800 -16.720600
H -29.811500 -13.692300 -18.763300
N -29.661400 -13.656700 -14.346500
C -29.503500 -13.648400 -17.886300
C -29.319600 -13.623400 -15.671900
H -28.900400 -14.215200 -21.252800
H -28.383900 -12.988500 -23.122000
N -28.241700 -13.450100 -17.475700
N -28.077900 -13.424400 -16.130400
O -28.052500 -12.845500 -22.385700
C -28.026100 -14.049400 -21.636600
H -27.804900 -14.792600 -22.219300
H -27.699400 -15.581100 -19.506000
O -27.418000 -12.930100 -19.601200
C -27.029600 -13.297300 -18.296300
C -27.001100 -13.942000 -20.538800
C -26.820400 -15.192100 -19.695200
H -26.457200 -12.600300 -17.912900
H -26.438400 -16.254600 -20.941100
H -26.384200 -15.197400 -17.636800
C -26.244000 -14.610200 -18.408800
H -26.138900 -13.687000 -20.926500
O -25.997200 -16.174300 -20.270300
O -24.880500 -14.345300 -18.643700
H -24.518100 -13.383500 -16.972500
H -24.141500 -14.904600 -16.915000
C -24.130700 -14.114500 -17.459700
H -23.223800 -13.898900 -17.692200
H -24.776500 -17.947400 -17.014400
N -23.960700 -17.855800 -17.272600
H -23.775700 -17.838400 -18.111700
N -23.310200 -17.774100 -15.068200
C -22.987500 -17.742300 -16.374000
H -22.584700 -17.684800 -13.275900
C -22.317200 -17.635600 -14.165000
C -21.623100 -17.558400 -16.720600
H -21.180000 -17.475900 -18.763300
N -21.029900 -17.440400 -14.346500
C -20.872000 -17.432000 -17.886300
C -20.688100 -17.407100 -15.671900
H -20.268900 -17.998800 -21.252800
H -19.752400 -16.772200 -23.122000
N -19.610200 -17.233800 -17.475700
N -19.446400 -17.208000 -16.130400
O -19.421000 -16.629100 -22.385700
C -19.394600 -17.833100 -21.636600
H -19.173400 -18.576200 -22.219300
H -19.067900 -19.364700 -19.506000
O -18.786500 -16.713700 -19.601200
C -18.398100 -17.080900 -18.296300
C -18.369600 -17.725600 -20.538800
C -18.188900 -18.975800 -19.695200
H -17.825700 -16.384000 -17.912900
H -17.806900 -20.038200 -20.941100
H -17.752700 -18.981100 -17.636800
C -17.612500 -18.393800 -18.408800
H -17.507400 -17.470600 -20.926500
O -17.365700 -19.958000 -20.270300
O -16.249000 -18.129000 -18.643700
H -15.886600 -17.167200 -16.972500
H -15.510000 -18.688200 -16.915000
C -15.499200 -17.898200 -17.459700
H -14.592300 -17.682500 -17.692200
