35
Fragment
H -33.408000 -14.163700 -17.014400
N -32.592200 -14.072200 -17.272600
H -32.407200 -14.054700 -18.111700
N -31.941700 -13.990400 -15.068200
C -31.619000 -13.958600 -16.374000
H -31.216200 -13.901100 -13.275900
C -30.948700 -13.851900 -14.165000
C -30.254600 -13.774800 -16.720600
H -29.811500 -13.692300 -18.763300
N -29.661400 -13.656700 -14.346500
C -29.503500 -13.648400 -17.886300
C -29.319600 -13.623400 -15.671900
H -28.900400 -14.215200 -21.252800
H -28.383900 -12.988500 -23.122000
N -28.241700 -13.450100 -17.475700
N -28.077900 -13.424400 -16.130400
O -28.052500 -12.845500 -22.385700
C -28.026100 -14.049400 -21.636600
H -27.804900 -14.792600 -22.219300
H -27.699400 -15.581100 -19.506000
O -27.418000 -12.930100 -19.601200
C -27.029600 -13.297300 -18.296300
C -27.001100 -13.942000 -20.538800
C -26.820400 -15.192100 -19.695200
H -26.457200 -12.600300 -17.912900
H -26.438400 -16.254600 -20.941100
H -26.384200 -15.197400 -17.636800
C -26.244000 -14.610200 -18.408800
H -26.138900 -13.687000 -20.926500
O -25.997200 -16.174300 -20.270300
O -24.880500 -14.345300 -18.643700
H -24.518100 -13.383500 -16.972500
H -24.141500 -14.904600 -16.915000
C -24.130700 -14.114500 -17.459700
H -23.223800 -13.898900 -17.692200
35
Fragment
H -26.850300 -13.898900 -13.688100
C -25.943400 -14.114500 -13.920600
H -25.932600 -14.904600 -14.465300
H -25.556000 -13.383500 -14.407700
O -25.193600 -14.345300 -12.736600
O -24.076900 -16.174300 -11.110000
H -23.935300 -13.687000 -10.453800
C -23.830100 -14.610200 -12.971500
H -23.689900 -15.197400 -13.743500
H -23.635700 -16.254600 -10.439200
H -23.616900 -12.600300 -13.467400
C -23.253800 -15.192100 -11.685100
C -23.073000 -13.942000 -10.841500
C -23.044600 -13.297300 -13.084000
O -22.656200 -12.930100 -11.779100
H -22.374800 -15.581100 -11.874300
H -22.269300 -14.792600 -9.160900
C -22.048000 -14.049400 -9.743700
O -22.021700 -12.845500 -8.994500
N -21.996200 -13.424400 -15.249900
N -21.832400 -13.450100 -13.904600
H -21.690200 -12.988500 -8.258200
H -21.173800 -14.215200 -10.127500
C -20.754500 -13.623400 -15.708300
C -20.570600 -13.648400 -13.493900
N -20.412800 -13.656700 -17.033700
H -20.262600 -13.692300 -12.617000
C -19.819500 -13.774800 -14.659700
C -19.125400 -13.851900 -17.215300
H -18.857900 -13.901100 -18.104300
C -18.455100 -13.958600 -15.006300
N -18.132400 -13.990400 -16.312100
H -17.666900 -14.054700 -13.268600
N -17.481900 -14.072200 -14.107600
H -16.666100 -14.163700 -14.365900
70
Fragment
H -33.408000 -14.163700 -17.014400
N -32.592200 -14.072200 -17.272600
H -32.407200 -14.054700 -18.111700
N -31.941700 -13.990400 -15.068200
C -31.619000 -13.958600 -16.374000
H -31.216200 -13.901100 -13.275900
C -30.948700 -13.851900 -14.165000
C -30.254600 -13.774800 -16.720600
H -29.811500 -13.692300 -18.763300
N -29.661400 -13.656700 -14.346500
C -29.503500 -13.648400 -17.886300
C -29.319600 -13.623400 -15.671900
H -28.900400 -14.215200 -21.252800
H -28.383900 -12.988500 -23.122000
N -28.241700 -13.450100 -17.475700
N -28.077900 -13.424400 -16.130400
O -28.052500 -12.845500 -22.385700
C -28.026100 -14.049400 -21.636600
H -27.804900 -14.792600 -22.219300
H -27.699400 -15.581100 -19.506000
O -27.418000 -12.930100 -19.601200
C -27.029600 -13.297300 -18.296300
C -27.001100 -13.942000 -20.538800
C -26.820400 -15.192100 -19.695200
H -26.457200 -12.600300 -17.912900
H -26.438400 -16.254600 -20.941100
H -26.384200 -15.197400 -17.636800
C -26.244000 -14.610200 -18.408800
H -26.138900 -13.687000 -20.926500
O -25.997200 -16.174300 -20.270300
O -24.880500 -14.345300 -18.643700
H -24.518100 -13.383500 -16.972500
H -24.141500 -14.904600 -16.915000
C -24.130700 -14.114500 -17.459700
H -23.223800 -13.898900 -17.692200
H -26.850300 -13.898900 -13.688100
C -25.943400 -14.114500 -13.920600
H -25.932600 -14.904600 -14.465300
H -25.556000 -13.383500 -14.407700
O -25.193600 -14.345300 -12.736600
O -24.076900 -16.174300 -11.110000
H -23.935300 -13.687000 -10.453800
C -23.830100 -14.610200 -12.971500
H -23.689900 -15.197400 -13.743500
H -23.635700 -16.254600 -10.439200
H -23.616900 -12.600300 -13.467400
C -23.253800 -15.192100 -11.685100
C -23.073000 -13.942000 -10.841500
C -23.044600 -13.297300 -13.084000
O -22.656200 -12.930100 -11.779100
H -22.374800 -15.581100 -11.874300
H -22.269300 -14.792600 -9.160900
C -22.048000 -14.049400 -9.743700
O -22.021700 -12.845500 -8.994500
N -21.996200 -13.424400 -15.249900
N -21.832400 -13.450100 -13.904600
H -21.690200 -12.988500 -8.258200
H -21.173800 -14.215200 -10.127500
C -20.754500 -13.623400 -15.708300
C -20.570600 -13.648400 -13.493900
N -20.412800 -13.656700 -17.033700
H -20.262600 -13.692300 -12.617000
C -19.819500 -13.774800 -14.659700
C -19.125400 -13.851900 -17.215300
H -18.857900 -13.901100 -18.104300
C -18.455100 -13.958600 -15.006300
N -18.132400 -13.990400 -16.312100
H -17.666900 -14.054700 -13.268600
N -17.481900 -14.072200 -14.107600
H -16.666100 -14.163700 -14.365900
