35
Fragment
H -33.408000 -14.163700 -17.014400
N -32.592200 -14.072200 -17.272600
H -32.407200 -14.054700 -18.111700
N -31.941700 -13.990400 -15.068200
C -31.619000 -13.958600 -16.374000
H -31.216200 -13.901100 -13.275900
C -30.948700 -13.851900 -14.165000
C -30.254600 -13.774800 -16.720600
H -29.811500 -13.692300 -18.763300
N -29.661400 -13.656700 -14.346500
C -29.503500 -13.648400 -17.886300
C -29.319600 -13.623400 -15.671900
H -28.900400 -14.215200 -21.252800
H -28.383900 -12.988500 -23.122000
N -28.241700 -13.450100 -17.475700
N -28.077900 -13.424400 -16.130400
O -28.052500 -12.845500 -22.385700
C -28.026100 -14.049400 -21.636600
H -27.804900 -14.792600 -22.219300
H -27.699400 -15.581100 -19.506000
O -27.418000 -12.930100 -19.601200
C -27.029600 -13.297300 -18.296300
C -27.001100 -13.942000 -20.538800
C -26.820400 -15.192100 -19.695200
H -26.457200 -12.600300 -17.912900
H -26.438400 -16.254600 -20.941100
H -26.384200 -15.197400 -17.636800
C -26.244000 -14.610200 -18.408800
H -26.138900 -13.687000 -20.926500
O -25.997200 -16.174300 -20.270300
O -24.880500 -14.345300 -18.643700
H -24.518100 -13.383500 -16.972500
H -24.141500 -14.904600 -16.915000
C -24.130700 -14.114500 -17.459700
H -23.223800 -13.898900 -17.692200
35
Fragment
H -42.039500 -10.380100 -17.014400
N -41.223700 -10.288500 -17.272600
H -41.038700 -10.271100 -18.111700
N -40.573200 -10.206800 -15.068200
C -40.250500 -10.175000 -16.374000
H -39.847700 -10.117500 -13.275900
C -39.580200 -10.068300 -14.165000
C -38.886100 -9.991100 -16.720600
H -38.443000 -9.908600 -18.763300
N -38.292900 -9.873100 -14.346500
C -38.135000 -9.864700 -17.886300
C -37.951100 -9.839800 -15.671900
H -37.531900 -10.431500 -21.252800
H -37.015400 -9.204900 -23.122000
N -36.873200 -9.666500 -17.475700
N -36.709400 -9.640700 -16.130400
O -36.684000 -9.061800 -22.385700
C -36.657600 -10.265800 -21.636600
H -36.436400 -11.008900 -22.219300
H -36.330900 -11.797400 -19.506000
O -36.049500 -9.146400 -19.601200
C -35.661100 -9.513600 -18.296300
C -35.632600 -10.158300 -20.538800
C -35.451900 -11.408500 -19.695200
H -35.088700 -8.816700 -17.912900
H -35.069900 -12.470900 -20.941100
H -35.015700 -11.413800 -17.636800
C -34.875500 -10.826500 -18.408800
H -34.770400 -9.903300 -20.926500
O -34.628700 -12.390700 -20.270300
O -33.512000 -10.561700 -18.643700
H -33.149600 -9.599900 -16.972500
H -32.773000 -11.120900 -16.915000
C -32.762200 -10.330900 -17.459700
H -31.855300 -10.115200 -17.692200
70
Fragment
H -33.408000 -14.163700 -17.014400
N -32.592200 -14.072200 -17.272600
H -32.407200 -14.054700 -18.111700
N -31.941700 -13.990400 -15.068200
C -31.619000 -13.958600 -16.374000
H -31.216200 -13.901100 -13.275900
C -30.948700 -13.851900 -14.165000
C -30.254600 -13.774800 -16.720600
H -29.811500 -13.692300 -18.763300
N -29.661400 -13.656700 -14.346500
C -29.503500 -13.648400 -17.886300
C -29.319600 -13.623400 -15.671900
H -28.900400 -14.215200 -21.252800
H -28.383900 -12.988500 -23.122000
N -28.241700 -13.450100 -17.475700
N -28.077900 -13.424400 -16.130400
O -28.052500 -12.845500 -22.385700
C -28.026100 -14.049400 -21.636600
H -27.804900 -14.792600 -22.219300
H -27.699400 -15.581100 -19.506000
O -27.418000 -12.930100 -19.601200
C -27.029600 -13.297300 -18.296300
C -27.001100 -13.942000 -20.538800
C -26.820400 -15.192100 -19.695200
H -26.457200 -12.600300 -17.912900
H -26.438400 -16.254600 -20.941100
H -26.384200 -15.197400 -17.636800
C -26.244000 -14.610200 -18.408800
H -26.138900 -13.687000 -20.926500
O -25.997200 -16.174300 -20.270300
O -24.880500 -14.345300 -18.643700
H -24.518100 -13.383500 -16.972500
H -24.141500 -14.904600 -16.915000
C -24.130700 -14.114500 -17.459700
H -23.223800 -13.898900 -17.692200
H -42.039500 -10.380100 -17.014400
N -41.223700 -10.288500 -17.272600
H -41.038700 -10.271100 -18.111700
N -40.573200 -10.206800 -15.068200
C -40.250500 -10.175000 -16.374000
H -39.847700 -10.117500 -13.275900
C -39.580200 -10.068300 -14.165000
C -38.886100 -9.991100 -16.720600
H -38.443000 -9.908600 -18.763300
N -38.292900 -9.873100 -14.346500
C -38.135000 -9.864700 -17.886300
C -37.951100 -9.839800 -15.671900
H -37.531900 -10.431500 -21.252800
H -37.015400 -9.204900 -23.122000
N -36.873200 -9.666500 -17.475700
N -36.709400 -9.640700 -16.130400
O -36.684000 -9.061800 -22.385700
C -36.657600 -10.265800 -21.636600
H -36.436400 -11.008900 -22.219300
H -36.330900 -11.797400 -19.506000
O -36.049500 -9.146400 -19.601200
C -35.661100 -9.513600 -18.296300
C -35.632600 -10.158300 -20.538800
C -35.451900 -11.408500 -19.695200
H -35.088700 -8.816700 -17.912900
H -35.069900 -12.470900 -20.941100
H -35.015700 -11.413800 -17.636800
C -34.875500 -10.826500 -18.408800
H -34.770400 -9.903300 -20.926500
O -34.628700 -12.390700 -20.270300
O -33.512000 -10.561700 -18.643700
H -33.149600 -9.599900 -16.972500
H -32.773000 -11.120900 -16.915000
C -32.762200 -10.330900 -17.459700
H -31.855300 -10.115200 -17.692200
