35
Fragment
H -33.408000 -14.163700 -17.014400
N -32.592200 -14.072200 -17.272600
H -32.407200 -14.054700 -18.111700
N -31.941700 -13.990400 -15.068200
C -31.619000 -13.958600 -16.374000
H -31.216200 -13.901100 -13.275900
C -30.948700 -13.851900 -14.165000
C -30.254600 -13.774800 -16.720600
H -29.811500 -13.692300 -18.763300
N -29.661400 -13.656700 -14.346500
C -29.503500 -13.648400 -17.886300
C -29.319600 -13.623400 -15.671900
H -28.900400 -14.215200 -21.252800
H -28.383900 -12.988500 -23.122000
N -28.241700 -13.450100 -17.475700
N -28.077900 -13.424400 -16.130400
O -28.052500 -12.845500 -22.385700
C -28.026100 -14.049400 -21.636600
H -27.804900 -14.792600 -22.219300
H -27.699400 -15.581100 -19.506000
O -27.418000 -12.930100 -19.601200
C -27.029600 -13.297300 -18.296300
C -27.001100 -13.942000 -20.538800
C -26.820400 -15.192100 -19.695200
H -26.457200 -12.600300 -17.912900
H -26.438400 -16.254600 -20.941100
H -26.384200 -15.197400 -17.636800
C -26.244000 -14.610200 -18.408800
H -26.138900 -13.687000 -20.926500
O -25.997200 -16.174300 -20.270300
O -24.880500 -14.345300 -18.643700
H -24.518100 -13.383500 -16.972500
H -24.141500 -14.904600 -16.915000
C -24.130700 -14.114500 -17.459700
H -23.223800 -13.898900 -17.692200
35
Fragment
H -34.910200 -17.682500 -24.148200
C -34.003300 -17.898200 -24.380700
H -33.992500 -18.688200 -24.925400
H -33.615900 -17.167200 -24.867800
O -33.253500 -18.129000 -23.196700
O -32.136800 -19.958000 -21.570100
H -31.995100 -17.470600 -20.913900
C -31.890000 -18.393800 -23.431500
H -31.749800 -18.981100 -24.203600
H -31.695600 -20.038200 -20.899300
H -31.676800 -16.384000 -23.927500
C -31.313600 -18.975800 -22.145200
C -31.132900 -17.725600 -21.301600
C -31.104400 -17.080900 -23.544100
O -30.716000 -16.713700 -22.239200
H -30.434600 -19.364700 -22.334400
H -30.329100 -18.576200 -19.621000
C -30.107900 -17.833100 -20.203800
O -30.081500 -16.629100 -19.454600
N -30.056100 -17.208000 -25.710000
N -29.892300 -17.233800 -24.364700
H -29.750100 -16.772200 -18.718300
H -29.233600 -17.998800 -20.587600
C -28.814400 -17.407100 -26.168400
C -28.630500 -17.432000 -23.954000
N -28.472600 -17.440400 -27.493800
H -28.322500 -17.475900 -23.077100
C -27.879400 -17.558400 -25.119800
C -27.185300 -17.635600 -27.675400
H -26.917800 -17.684800 -28.564400
C -26.515000 -17.742300 -25.466400
N -26.192300 -17.774100 -26.772200
H -25.726800 -17.838400 -23.728700
N -25.541800 -17.855800 -24.567700
H -24.726000 -17.947400 -24.826000
70
Fragment
H -33.408000 -14.163700 -17.014400
N -32.592200 -14.072200 -17.272600
H -32.407200 -14.054700 -18.111700
N -31.941700 -13.990400 -15.068200
C -31.619000 -13.958600 -16.374000
H -31.216200 -13.901100 -13.275900
C -30.948700 -13.851900 -14.165000
C -30.254600 -13.774800 -16.720600
H -29.811500 -13.692300 -18.763300
N -29.661400 -13.656700 -14.346500
C -29.503500 -13.648400 -17.886300
C -29.319600 -13.623400 -15.671900
H -28.900400 -14.215200 -21.252800
H -28.383900 -12.988500 -23.122000
N -28.241700 -13.450100 -17.475700
N -28.077900 -13.424400 -16.130400
O -28.052500 -12.845500 -22.385700
C -28.026100 -14.049400 -21.636600
H -27.804900 -14.792600 -22.219300
H -27.699400 -15.581100 -19.506000
O -27.418000 -12.930100 -19.601200
C -27.029600 -13.297300 -18.296300
C -27.001100 -13.942000 -20.538800
C -26.820400 -15.192100 -19.695200
H -26.457200 -12.600300 -17.912900
H -26.438400 -16.254600 -20.941100
H -26.384200 -15.197400 -17.636800
C -26.244000 -14.610200 -18.408800
H -26.138900 -13.687000 -20.926500
O -25.997200 -16.174300 -20.270300
O -24.880500 -14.345300 -18.643700
H -24.518100 -13.383500 -16.972500
H -24.141500 -14.904600 -16.915000
C -24.130700 -14.114500 -17.459700
H -23.223800 -13.898900 -17.692200
H -34.910200 -17.682500 -24.148200
C -34.003300 -17.898200 -24.380700
H -33.992500 -18.688200 -24.925400
H -33.615900 -17.167200 -24.867800
O -33.253500 -18.129000 -23.196700
O -32.136800 -19.958000 -21.570100
H -31.995100 -17.470600 -20.913900
C -31.890000 -18.393800 -23.431500
H -31.749800 -18.981100 -24.203600
H -31.695600 -20.038200 -20.899300
H -31.676800 -16.384000 -23.927500
C -31.313600 -18.975800 -22.145200
C -31.132900 -17.725600 -21.301600
C -31.104400 -17.080900 -23.544100
O -30.716000 -16.713700 -22.239200
H -30.434600 -19.364700 -22.334400
H -30.329100 -18.576200 -19.621000
C -30.107900 -17.833100 -20.203800
O -30.081500 -16.629100 -19.454600
N -30.056100 -17.208000 -25.710000
N -29.892300 -17.233800 -24.364700
H -29.750100 -16.772200 -18.718300
H -29.233600 -17.998800 -20.587600
C -28.814400 -17.407100 -26.168400
C -28.630500 -17.432000 -23.954000
N -28.472600 -17.440400 -27.493800
H -28.322500 -17.475900 -23.077100
C -27.879400 -17.558400 -25.119800
C -27.185300 -17.635600 -27.675400
H -26.917800 -17.684800 -28.564400
C -26.515000 -17.742300 -25.466400
N -26.192300 -17.774100 -26.772200
H -25.726800 -17.838400 -23.728700
N -25.541800 -17.855800 -24.567700
H -24.726000 -17.947400 -24.826000
