35
Fragment
H -33.408000 -14.163700 -17.014400
N -32.592200 -14.072200 -17.272600
H -32.407200 -14.054700 -18.111700
N -31.941700 -13.990400 -15.068200
C -31.619000 -13.958600 -16.374000
H -31.216200 -13.901100 -13.275900
C -30.948700 -13.851900 -14.165000
C -30.254600 -13.774800 -16.720600
H -29.811500 -13.692300 -18.763300
N -29.661400 -13.656700 -14.346500
C -29.503500 -13.648400 -17.886300
C -29.319600 -13.623400 -15.671900
H -28.900400 -14.215200 -21.252800
H -28.383900 -12.988500 -23.122000
N -28.241700 -13.450100 -17.475700
N -28.077900 -13.424400 -16.130400
O -28.052500 -12.845500 -22.385700
C -28.026100 -14.049400 -21.636600
H -27.804900 -14.792600 -22.219300
H -27.699400 -15.581100 -19.506000
O -27.418000 -12.930100 -19.601200
C -27.029600 -13.297300 -18.296300
C -27.001100 -13.942000 -20.538800
C -26.820400 -15.192100 -19.695200
H -26.457200 -12.600300 -17.912900
H -26.438400 -16.254600 -20.941100
H -26.384200 -15.197400 -17.636800
C -26.244000 -14.610200 -18.408800
H -26.138900 -13.687000 -20.926500
O -25.997200 -16.174300 -20.270300
O -24.880500 -14.345300 -18.643700
H -24.518100 -13.383500 -16.972500
H -24.141500 -14.904600 -16.915000
C -24.130700 -14.114500 -17.459700
H -23.223800 -13.898900 -17.692200
35
Fragment
H -32.836400 -14.163700 -27.474500
N -32.020600 -14.072200 -27.732700
H -31.835600 -14.054700 -28.571700
N -31.370100 -13.990400 -25.528300
C -31.047400 -13.958600 -26.834100
H -30.644600 -13.901100 -23.736000
C -30.377100 -13.851900 -24.625000
C -29.683000 -13.774800 -27.180700
H -29.239900 -13.692300 -29.223400
N -29.089700 -13.656700 -24.806600
C -28.931900 -13.648400 -28.346400
C -28.748000 -13.623400 -26.132000
H -28.328700 -14.215200 -31.712900
H -27.812300 -12.988500 -33.582100
N -27.670100 -13.450100 -27.935800
N -27.506300 -13.424400 -26.590500
O -27.480800 -12.845500 -32.845800
C -27.454500 -14.049400 -32.096700
H -27.233200 -14.792600 -32.679400
H -27.127700 -15.581100 -29.966100
O -26.846300 -12.930100 -30.061300
C -26.457900 -13.297300 -28.756400
C -26.429500 -13.942000 -30.998900
C -26.248700 -15.192100 -30.155300
H -25.885600 -12.600300 -28.373000
H -25.866800 -16.254600 -31.401200
H -25.812600 -15.197400 -28.096900
C -25.672400 -14.610200 -28.868900
H -25.567200 -13.687000 -31.386600
O -25.425600 -16.174300 -30.730400
O -24.308900 -14.345300 -29.103700
H -23.946500 -13.383500 -27.432600
H -23.569900 -14.904600 -27.375100
C -23.559100 -14.114500 -27.919800
H -22.652200 -13.898900 -28.152300
70
Fragment
H -33.408000 -14.163700 -17.014400
N -32.592200 -14.072200 -17.272600
H -32.407200 -14.054700 -18.111700
N -31.941700 -13.990400 -15.068200
C -31.619000 -13.958600 -16.374000
H -31.216200 -13.901100 -13.275900
C -30.948700 -13.851900 -14.165000
C -30.254600 -13.774800 -16.720600
H -29.811500 -13.692300 -18.763300
N -29.661400 -13.656700 -14.346500
C -29.503500 -13.648400 -17.886300
C -29.319600 -13.623400 -15.671900
H -28.900400 -14.215200 -21.252800
H -28.383900 -12.988500 -23.122000
N -28.241700 -13.450100 -17.475700
N -28.077900 -13.424400 -16.130400
O -28.052500 -12.845500 -22.385700
C -28.026100 -14.049400 -21.636600
H -27.804900 -14.792600 -22.219300
H -27.699400 -15.581100 -19.506000
O -27.418000 -12.930100 -19.601200
C -27.029600 -13.297300 -18.296300
C -27.001100 -13.942000 -20.538800
C -26.820400 -15.192100 -19.695200
H -26.457200 -12.600300 -17.912900
H -26.438400 -16.254600 -20.941100
H -26.384200 -15.197400 -17.636800
C -26.244000 -14.610200 -18.408800
H -26.138900 -13.687000 -20.926500
O -25.997200 -16.174300 -20.270300
O -24.880500 -14.345300 -18.643700
H -24.518100 -13.383500 -16.972500
H -24.141500 -14.904600 -16.915000
C -24.130700 -14.114500 -17.459700
H -23.223800 -13.898900 -17.692200
H -32.836400 -14.163700 -27.474500
N -32.020600 -14.072200 -27.732700
H -31.835600 -14.054700 -28.571700
N -31.370100 -13.990400 -25.528300
C -31.047400 -13.958600 -26.834100
H -30.644600 -13.901100 -23.736000
C -30.377100 -13.851900 -24.625000
C -29.683000 -13.774800 -27.180700
H -29.239900 -13.692300 -29.223400
N -29.089700 -13.656700 -24.806600
C -28.931900 -13.648400 -28.346400
C -28.748000 -13.623400 -26.132000
H -28.328700 -14.215200 -31.712900
H -27.812300 -12.988500 -33.582100
N -27.670100 -13.450100 -27.935800
N -27.506300 -13.424400 -26.590500
O -27.480800 -12.845500 -32.845800
C -27.454500 -14.049400 -32.096700
H -27.233200 -14.792600 -32.679400
H -27.127700 -15.581100 -29.966100
O -26.846300 -12.930100 -30.061300
C -26.457900 -13.297300 -28.756400
C -26.429500 -13.942000 -30.998900
C -26.248700 -15.192100 -30.155300
H -25.885600 -12.600300 -28.373000
H -25.866800 -16.254600 -31.401200
H -25.812600 -15.197400 -28.096900
C -25.672400 -14.610200 -28.868900
H -25.567200 -13.687000 -31.386600
O -25.425600 -16.174300 -30.730400
O -24.308900 -14.345300 -29.103700
H -23.946500 -13.383500 -27.432600
H -23.569900 -14.904600 -27.375100
C -23.559100 -14.114500 -27.919800
H -22.652200 -13.898900 -28.152300
