35
Fragment
H -33.408000 -14.163700 -17.014400
N -32.592200 -14.072200 -17.272600
H -32.407200 -14.054700 -18.111700
N -31.941700 -13.990400 -15.068200
C -31.619000 -13.958600 -16.374000
H -31.216200 -13.901100 -13.275900
C -30.948700 -13.851900 -14.165000
C -30.254600 -13.774800 -16.720600
H -29.811500 -13.692300 -18.763300
N -29.661400 -13.656700 -14.346500
C -29.503500 -13.648400 -17.886300
C -29.319600 -13.623400 -15.671900
H -28.900400 -14.215200 -21.252800
H -28.383900 -12.988500 -23.122000
N -28.241700 -13.450100 -17.475700
N -28.077900 -13.424400 -16.130400
O -28.052500 -12.845500 -22.385700
C -28.026100 -14.049400 -21.636600
H -27.804900 -14.792600 -22.219300
H -27.699400 -15.581100 -19.506000
O -27.418000 -12.930100 -19.601200
C -27.029600 -13.297300 -18.296300
C -27.001100 -13.942000 -20.538800
C -26.820400 -15.192100 -19.695200
H -26.457200 -12.600300 -17.912900
H -26.438400 -16.254600 -20.941100
H -26.384200 -15.197400 -17.636800
C -26.244000 -14.610200 -18.408800
H -26.138900 -13.687000 -20.926500
O -25.997200 -16.174300 -20.270300
O -24.880500 -14.345300 -18.643700
H -24.518100 -13.383500 -16.972500
H -24.141500 -14.904600 -16.915000
C -24.130700 -14.114500 -17.459700
H -23.223800 -13.898900 -17.692200
35
Fragment
H -35.481800 -17.682500 -13.688100
C -34.574900 -17.898200 -13.920600
H -34.564100 -18.688200 -14.465300
H -34.187500 -17.167200 -14.407700
O -33.825100 -18.129000 -12.736600
O -32.708400 -19.958000 -11.110000
H -32.566800 -17.470600 -10.453800
C -32.461600 -18.393800 -12.971500
H -32.321400 -18.981100 -13.743500
H -32.267200 -20.038200 -10.439200
H -32.248400 -16.384000 -13.467400
C -31.885300 -18.975800 -11.685100
C -31.704500 -17.725600 -10.841500
C -31.676100 -17.080900 -13.084000
O -31.287700 -16.713700 -11.779100
H -31.006300 -19.364700 -11.874300
H -30.900800 -18.576200 -9.160900
C -30.679500 -17.833100 -9.743700
O -30.653200 -16.629100 -8.994500
N -30.627700 -17.208000 -15.249900
N -30.463900 -17.233800 -13.904600
H -30.321700 -16.772200 -8.258200
H -29.805300 -17.998800 -10.127500
C -29.386000 -17.407100 -15.708300
C -29.202100 -17.432000 -13.493900
N -29.044300 -17.440400 -17.033700
H -28.894100 -17.475900 -12.617000
C -28.451000 -17.558400 -14.659700
C -27.756900 -17.635600 -17.215300
H -27.489400 -17.684800 -18.104300
C -27.086600 -17.742300 -15.006300
N -26.763900 -17.774100 -16.312100
H -26.298400 -17.838400 -13.268600
N -26.113400 -17.855800 -14.107600
H -25.297600 -17.947400 -14.365900
70
Fragment
H -33.408000 -14.163700 -17.014400
N -32.592200 -14.072200 -17.272600
H -32.407200 -14.054700 -18.111700
N -31.941700 -13.990400 -15.068200
C -31.619000 -13.958600 -16.374000
H -31.216200 -13.901100 -13.275900
C -30.948700 -13.851900 -14.165000
C -30.254600 -13.774800 -16.720600
H -29.811500 -13.692300 -18.763300
N -29.661400 -13.656700 -14.346500
C -29.503500 -13.648400 -17.886300
C -29.319600 -13.623400 -15.671900
H -28.900400 -14.215200 -21.252800
H -28.383900 -12.988500 -23.122000
N -28.241700 -13.450100 -17.475700
N -28.077900 -13.424400 -16.130400
O -28.052500 -12.845500 -22.385700
C -28.026100 -14.049400 -21.636600
H -27.804900 -14.792600 -22.219300
H -27.699400 -15.581100 -19.506000
O -27.418000 -12.930100 -19.601200
C -27.029600 -13.297300 -18.296300
C -27.001100 -13.942000 -20.538800
C -26.820400 -15.192100 -19.695200
H -26.457200 -12.600300 -17.912900
H -26.438400 -16.254600 -20.941100
H -26.384200 -15.197400 -17.636800
C -26.244000 -14.610200 -18.408800
H -26.138900 -13.687000 -20.926500
O -25.997200 -16.174300 -20.270300
O -24.880500 -14.345300 -18.643700
H -24.518100 -13.383500 -16.972500
H -24.141500 -14.904600 -16.915000
C -24.130700 -14.114500 -17.459700
H -23.223800 -13.898900 -17.692200
H -35.481800 -17.682500 -13.688100
C -34.574900 -17.898200 -13.920600
H -34.564100 -18.688200 -14.465300
H -34.187500 -17.167200 -14.407700
O -33.825100 -18.129000 -12.736600
O -32.708400 -19.958000 -11.110000
H -32.566800 -17.470600 -10.453800
C -32.461600 -18.393800 -12.971500
H -32.321400 -18.981100 -13.743500
H -32.267200 -20.038200 -10.439200
H -32.248400 -16.384000 -13.467400
C -31.885300 -18.975800 -11.685100
C -31.704500 -17.725600 -10.841500
C -31.676100 -17.080900 -13.084000
O -31.287700 -16.713700 -11.779100
H -31.006300 -19.364700 -11.874300
H -30.900800 -18.576200 -9.160900
C -30.679500 -17.833100 -9.743700
O -30.653200 -16.629100 -8.994500
N -30.627700 -17.208000 -15.249900
N -30.463900 -17.233800 -13.904600
H -30.321700 -16.772200 -8.258200
H -29.805300 -17.998800 -10.127500
C -29.386000 -17.407100 -15.708300
C -29.202100 -17.432000 -13.493900
N -29.044300 -17.440400 -17.033700
H -28.894100 -17.475900 -12.617000
C -28.451000 -17.558400 -14.659700
C -27.756900 -17.635600 -17.215300
H -27.489400 -17.684800 -18.104300
C -27.086600 -17.742300 -15.006300
N -26.763900 -17.774100 -16.312100
H -26.298400 -17.838400 -13.268600
N -26.113400 -17.855800 -14.107600
H -25.297600 -17.947400 -14.365900
