35
Fragment
H -33.408000 -14.163700 -17.014400
N -32.592200 -14.072200 -17.272600
H -32.407200 -14.054700 -18.111700
N -31.941700 -13.990400 -15.068200
C -31.619000 -13.958600 -16.374000
H -31.216200 -13.901100 -13.275900
C -30.948700 -13.851900 -14.165000
C -30.254600 -13.774800 -16.720600
H -29.811500 -13.692300 -18.763300
N -29.661400 -13.656700 -14.346500
C -29.503500 -13.648400 -17.886300
C -29.319600 -13.623400 -15.671900
H -28.900400 -14.215200 -21.252800
H -28.383900 -12.988500 -23.122000
N -28.241700 -13.450100 -17.475700
N -28.077900 -13.424400 -16.130400
O -28.052500 -12.845500 -22.385700
C -28.026100 -14.049400 -21.636600
H -27.804900 -14.792600 -22.219300
H -27.699400 -15.581100 -19.506000
O -27.418000 -12.930100 -19.601200
C -27.029600 -13.297300 -18.296300
C -27.001100 -13.942000 -20.538800
C -26.820400 -15.192100 -19.695200
H -26.457200 -12.600300 -17.912900
H -26.438400 -16.254600 -20.941100
H -26.384200 -15.197400 -17.636800
C -26.244000 -14.610200 -18.408800
H -26.138900 -13.687000 -20.926500
O -25.997200 -16.174300 -20.270300
O -24.880500 -14.345300 -18.643700
H -24.518100 -13.383500 -16.972500
H -24.141500 -14.904600 -16.915000
C -24.130700 -14.114500 -17.459700
H -23.223800 -13.898900 -17.692200
35
Fragment
H -26.278700 -13.898900 -24.148200
C -25.371800 -14.114500 -24.380700
H -25.361000 -14.904600 -24.925400
H -24.984400 -13.383500 -24.867800
O -24.622000 -14.345300 -23.196700
O -23.505300 -16.174300 -21.570100
H -23.363600 -13.687000 -20.913900
C -23.258500 -14.610200 -23.431500
H -23.118300 -15.197400 -24.203600
H -23.064100 -16.254600 -20.899300
H -23.045300 -12.600300 -23.927500
C -22.682100 -15.192100 -22.145200
C -22.501400 -13.942000 -21.301600
C -22.472900 -13.297300 -23.544100
O -22.084500 -12.930100 -22.239200
H -21.803100 -15.581100 -22.334400
H -21.697600 -14.792600 -19.621000
C -21.476400 -14.049400 -20.203800
O -21.450000 -12.845500 -19.454600
N -21.424600 -13.424400 -25.710000
N -21.260800 -13.450100 -24.364700
H -21.118600 -12.988500 -18.718300
H -20.602100 -14.215200 -20.587600
C -20.182900 -13.623400 -26.168400
C -19.999000 -13.648400 -23.954000
N -19.841100 -13.656700 -27.493800
H -19.691000 -13.692300 -23.077100
C -19.247900 -13.774800 -25.119800
C -18.553800 -13.851900 -27.675400
H -18.286300 -13.901100 -28.564400
C -17.883500 -13.958600 -25.466400
N -17.560800 -13.990400 -26.772200
H -17.095300 -14.054700 -23.728700
N -16.910300 -14.072200 -24.567700
H -16.094500 -14.163700 -24.826000
70
Fragment
H -33.408000 -14.163700 -17.014400
N -32.592200 -14.072200 -17.272600
H -32.407200 -14.054700 -18.111700
N -31.941700 -13.990400 -15.068200
C -31.619000 -13.958600 -16.374000
H -31.216200 -13.901100 -13.275900
C -30.948700 -13.851900 -14.165000
C -30.254600 -13.774800 -16.720600
H -29.811500 -13.692300 -18.763300
N -29.661400 -13.656700 -14.346500
C -29.503500 -13.648400 -17.886300
C -29.319600 -13.623400 -15.671900
H -28.900400 -14.215200 -21.252800
H -28.383900 -12.988500 -23.122000
N -28.241700 -13.450100 -17.475700
N -28.077900 -13.424400 -16.130400
O -28.052500 -12.845500 -22.385700
C -28.026100 -14.049400 -21.636600
H -27.804900 -14.792600 -22.219300
H -27.699400 -15.581100 -19.506000
O -27.418000 -12.930100 -19.601200
C -27.029600 -13.297300 -18.296300
C -27.001100 -13.942000 -20.538800
C -26.820400 -15.192100 -19.695200
H -26.457200 -12.600300 -17.912900
H -26.438400 -16.254600 -20.941100
H -26.384200 -15.197400 -17.636800
C -26.244000 -14.610200 -18.408800
H -26.138900 -13.687000 -20.926500
O -25.997200 -16.174300 -20.270300
O -24.880500 -14.345300 -18.643700
H -24.518100 -13.383500 -16.972500
H -24.141500 -14.904600 -16.915000
C -24.130700 -14.114500 -17.459700
H -23.223800 -13.898900 -17.692200
H -26.278700 -13.898900 -24.148200
C -25.371800 -14.114500 -24.380700
H -25.361000 -14.904600 -24.925400
H -24.984400 -13.383500 -24.867800
O -24.622000 -14.345300 -23.196700
O -23.505300 -16.174300 -21.570100
H -23.363600 -13.687000 -20.913900
C -23.258500 -14.610200 -23.431500
H -23.118300 -15.197400 -24.203600
H -23.064100 -16.254600 -20.899300
H -23.045300 -12.600300 -23.927500
C -22.682100 -15.192100 -22.145200
C -22.501400 -13.942000 -21.301600
C -22.472900 -13.297300 -23.544100
O -22.084500 -12.930100 -22.239200
H -21.803100 -15.581100 -22.334400
H -21.697600 -14.792600 -19.621000
C -21.476400 -14.049400 -20.203800
O -21.450000 -12.845500 -19.454600
N -21.424600 -13.424400 -25.710000
N -21.260800 -13.450100 -24.364700
H -21.118600 -12.988500 -18.718300
H -20.602100 -14.215200 -20.587600
C -20.182900 -13.623400 -26.168400
C -19.999000 -13.648400 -23.954000
N -19.841100 -13.656700 -27.493800
H -19.691000 -13.692300 -23.077100
C -19.247900 -13.774800 -25.119800
C -18.553800 -13.851900 -27.675400
H -18.286300 -13.901100 -28.564400
C -17.883500 -13.958600 -25.466400
N -17.560800 -13.990400 -26.772200
H -17.095300 -14.054700 -23.728700
N -16.910300 -14.072200 -24.567700
H -16.094500 -14.163700 -24.826000
