50
Fragment
H -13.472700 -27.258900 -33.992000
H -13.336500 -25.705400 -34.356200
H -12.962600 -26.218400 -32.887300
C -12.948800 -26.443800 -33.841700
H -12.299900 -28.855500 -35.404700
H -11.807900 -28.627700 -36.910200
H -11.720800 -24.234300 -37.076400
C -11.558000 -28.503900 -35.959500
C -11.520900 -26.673000 -34.285800
H -11.469200 -24.530300 -35.519500
N -11.408000 -27.072900 -35.694000
C -11.203000 -26.224900 -36.711700
C -11.142600 -24.717100 -36.435300
H -11.117700 -27.377300 -33.718300
O -11.062500 -26.609200 -37.875600
H -11.003900 -25.839900 -34.146000
H -10.534300 -30.281700 -35.653900
H -10.355000 -29.589200 -38.259300
C -10.296500 -29.320200 -35.670800
H -9.957800 -29.078000 -34.771600
H -9.788100 -31.664800 -37.291500
N -9.767400 -24.262700 -36.571200
H -9.435600 -24.345600 -37.274400
C -9.426100 -29.754100 -37.958200
H -9.327900 -31.616400 -38.821400
O -9.310700 -24.152400 -34.351500
N -9.225400 -29.111000 -36.655300
C -9.176200 -31.242500 -37.929400
C -8.941900 -24.126200 -35.519500
H -8.816900 -29.338100 -38.618600
H -8.250800 -31.413700 -37.655600
C -8.163700 -28.378700 -36.309700
O -8.105200 -27.775800 -35.216900
C -7.459700 -24.021400 -35.891500
H -7.402000 -26.107200 -35.634400
H -7.369300 -23.468300 -36.719600
N -7.059900 -25.402400 -36.189700
C -7.000500 -28.282400 -37.251100
H -6.974600 -22.505000 -34.578600
H -6.675600 -23.959900 -33.984700
C -6.627300 -23.397600 -34.785100
N -6.511900 -29.393300 -37.914500
C -6.291300 -25.726200 -37.235700
C -6.249900 -27.164400 -37.569400
H -5.695000 -23.324800 -35.079600
O -5.645900 -24.907600 -37.896600
C -5.497600 -28.935500 -38.628400
N -5.321000 -27.612900 -38.467800
H -4.957400 -29.478000 -39.190500
H -4.799700 -27.138700 -38.863000
50
Fragment
H -9.164200 -17.589600 -39.329800
H -9.028000 -19.143100 -38.965600
H -8.654100 -18.630100 -40.434500
C -8.640300 -18.404700 -39.480100
H -7.991400 -15.993000 -37.917100
H -7.499400 -16.220800 -36.411600
H -7.412300 -20.614200 -36.245400
C -7.249500 -16.344600 -37.362300
C -7.212400 -18.175500 -39.036000
H -7.160700 -20.318200 -37.802300
N -7.099500 -17.775600 -37.627800
C -6.894500 -18.623600 -36.610100
C -6.834100 -20.131400 -36.886500
H -6.809200 -17.471200 -39.603500
O -6.754000 -18.239300 -35.446200
H -6.695400 -19.008600 -39.175800
H -6.225800 -14.566800 -37.667900
H -6.046500 -15.259300 -35.062500
C -5.988000 -15.528300 -37.651000
H -5.649300 -15.770500 -38.550200
H -5.479600 -13.183700 -36.030300
N -5.458900 -20.585800 -36.750600
H -5.127100 -20.502900 -36.047400
C -5.117600 -15.094400 -35.363600
H -5.019400 -13.232100 -34.500400
O -5.002200 -20.696100 -38.970300
N -4.916900 -15.737500 -36.666500
C -4.867700 -13.606000 -35.392400
C -4.633400 -20.722300 -37.802300
H -4.508400 -15.510400 -34.703200
H -3.942300 -13.434800 -35.666200
C -3.855200 -16.469800 -37.012100
O -3.796700 -17.072700 -38.104900
C -3.151200 -20.827100 -37.430300
H -3.093500 -18.741300 -37.687400
H -3.060800 -21.380200 -36.602200
N -2.751400 -19.446100 -37.132100
C -2.692000 -16.566100 -36.070700
H -2.666100 -22.343500 -38.743200
H -2.367100 -20.888600 -39.337100
C -2.318800 -21.450900 -38.536700
N -2.203400 -15.455200 -35.407300
C -1.982800 -19.122300 -36.086100
C -1.941400 -17.684100 -35.752400
H -1.386500 -21.523700 -38.242200
O -1.337400 -19.940900 -35.425200
C -1.189100 -15.913000 -34.693400
N -1.012500 -17.235600 -34.854000
H -0.648900 -15.370500 -34.131300
H -0.491200 -17.709800 -34.458800
100
Fragment
H -13.472700 -27.258900 -33.992000
H -13.336500 -25.705400 -34.356200
H -12.962600 -26.218400 -32.887300
C -12.948800 -26.443800 -33.841700
H -12.299900 -28.855500 -35.404700
H -11.807900 -28.627700 -36.910200
H -11.720800 -24.234300 -37.076400
C -11.558000 -28.503900 -35.959500
C -11.520900 -26.673000 -34.285800
H -11.469200 -24.530300 -35.519500
N -11.408000 -27.072900 -35.694000
C -11.203000 -26.224900 -36.711700
C -11.142600 -24.717100 -36.435300
H -11.117700 -27.377300 -33.718300
O -11.062500 -26.609200 -37.875600
H -11.003900 -25.839900 -34.146000
H -10.534300 -30.281700 -35.653900
H -10.355000 -29.589200 -38.259300
C -10.296500 -29.320200 -35.670800
H -9.957800 -29.078000 -34.771600
H -9.788100 -31.664800 -37.291500
N -9.767400 -24.262700 -36.571200
H -9.435600 -24.345600 -37.274400
C -9.426100 -29.754100 -37.958200
H -9.327900 -31.616400 -38.821400
O -9.310700 -24.152400 -34.351500
N -9.225400 -29.111000 -36.655300
C -9.176200 -31.242500 -37.929400
C -8.941900 -24.126200 -35.519500
H -8.816900 -29.338100 -38.618600
H -8.250800 -31.413700 -37.655600
C -8.163700 -28.378700 -36.309700
O -8.105200 -27.775800 -35.216900
C -7.459700 -24.021400 -35.891500
H -7.402000 -26.107200 -35.634400
H -7.369300 -23.468300 -36.719600
N -7.059900 -25.402400 -36.189700
C -7.000500 -28.282400 -37.251100
H -6.974600 -22.505000 -34.578600
H -6.675600 -23.959900 -33.984700
C -6.627300 -23.397600 -34.785100
N -6.511900 -29.393300 -37.914500
C -6.291300 -25.726200 -37.235700
C -6.249900 -27.164400 -37.569400
H -5.695000 -23.324800 -35.079600
O -5.645900 -24.907600 -37.896600
C -5.497600 -28.935500 -38.628400
N -5.321000 -27.612900 -38.467800
H -4.957400 -29.478000 -39.190500
H -4.799700 -27.138700 -38.863000
H -9.164200 -17.589600 -39.329800
H -9.028000 -19.143100 -38.965600
H -8.654100 -18.630100 -40.434500
C -8.640300 -18.404700 -39.480100
H -7.991400 -15.993000 -37.917100
H -7.499400 -16.220800 -36.411600
H -7.412300 -20.614200 -36.245400
C -7.249500 -16.344600 -37.362300
C -7.212400 -18.175500 -39.036000
H -7.160700 -20.318200 -37.802300
N -7.099500 -17.775600 -37.627800
C -6.894500 -18.623600 -36.610100
C -6.834100 -20.131400 -36.886500
H -6.809200 -17.471200 -39.603500
O -6.754000 -18.239300 -35.446200
H -6.695400 -19.008600 -39.175800
H -6.225800 -14.566800 -37.667900
H -6.046500 -15.259300 -35.062500
C -5.988000 -15.528300 -37.651000
H -5.649300 -15.770500 -38.550200
H -5.479600 -13.183700 -36.030300
N -5.458900 -20.585800 -36.750600
H -5.127100 -20.502900 -36.047400
C -5.117600 -15.094400 -35.363600
H -5.019400 -13.232100 -34.500400
O -5.002200 -20.696100 -38.970300
N -4.916900 -15.737500 -36.666500
C -4.867700 -13.606000 -35.392400
C -4.633400 -20.722300 -37.802300
H -4.508400 -15.510400 -34.703200
H -3.942300 -13.434800 -35.666200
C -3.855200 -16.469800 -37.012100
O -3.796700 -17.072700 -38.104900
C -3.151200 -20.827100 -37.430300
H -3.093500 -18.741300 -37.687400
H -3.060800 -21.380200 -36.602200
N -2.751400 -19.446100 -37.132100
C -2.692000 -16.566100 -36.070700
H -2.666100 -22.343500 -38.743200
H -2.367100 -20.888600 -39.337100
C -2.318800 -21.450900 -38.536700
N -2.203400 -15.455200 -35.407300
C -1.982800 -19.122300 -36.086100
C -1.941400 -17.684100 -35.752400
H -1.386500 -21.523700 -38.242200
O -1.337400 -19.940900 -35.425200
C -1.189100 -15.913000 -34.693400
N -1.012500 -17.235600 -34.854000
H -0.648900 -15.370500 -34.131300
H -0.491200 -17.709800 -34.458800
