50
Fragment
H -13.472700 -27.258900 -33.992000
H -13.336500 -25.705400 -34.356200
H -12.962600 -26.218400 -32.887300
C -12.948800 -26.443800 -33.841700
H -12.299900 -28.855500 -35.404700
H -11.807900 -28.627700 -36.910200
H -11.720800 -24.234300 -37.076400
C -11.558000 -28.503900 -35.959500
C -11.520900 -26.673000 -34.285800
H -11.469200 -24.530300 -35.519500
N -11.408000 -27.072900 -35.694000
C -11.203000 -26.224900 -36.711700
C -11.142600 -24.717100 -36.435300
H -11.117700 -27.377300 -33.718300
O -11.062500 -26.609200 -37.875600
H -11.003900 -25.839900 -34.146000
H -10.534300 -30.281700 -35.653900
H -10.355000 -29.589200 -38.259300
C -10.296500 -29.320200 -35.670800
H -9.957800 -29.078000 -34.771600
H -9.788100 -31.664800 -37.291500
N -9.767400 -24.262700 -36.571200
H -9.435600 -24.345600 -37.274400
C -9.426100 -29.754100 -37.958200
H -9.327900 -31.616400 -38.821400
O -9.310700 -24.152400 -34.351500
N -9.225400 -29.111000 -36.655300
C -9.176200 -31.242500 -37.929400
C -8.941900 -24.126200 -35.519500
H -8.816900 -29.338100 -38.618600
H -8.250800 -31.413700 -37.655600
C -8.163700 -28.378700 -36.309700
O -8.105200 -27.775800 -35.216900
C -7.459700 -24.021400 -35.891500
H -7.402000 -26.107200 -35.634400
H -7.369300 -23.468300 -36.719600
N -7.059900 -25.402400 -36.189700
C -7.000500 -28.282400 -37.251100
H -6.974600 -22.505000 -34.578600
H -6.675600 -23.959900 -33.984700
C -6.627300 -23.397600 -34.785100
N -6.511900 -29.393300 -37.914500
C -6.291300 -25.726200 -37.235700
C -6.249900 -27.164400 -37.569400
H -5.695000 -23.324800 -35.079600
O -5.645900 -24.907600 -37.896600
C -5.497600 -28.935500 -38.628400
N -5.321000 -27.612900 -38.467800
H -4.957400 -29.478000 -39.190500
H -4.799700 -27.138700 -38.863000
50
Fragment
H -22.089700 -27.258900 -33.992000
H -21.953500 -25.705400 -34.356200
H -21.579600 -26.218400 -32.887300
C -21.565800 -26.443800 -33.841700
H -20.916900 -28.855500 -35.404700
H -20.424900 -28.627700 -36.910200
H -20.337800 -24.234300 -37.076400
C -20.175000 -28.503900 -35.959500
C -20.137900 -26.673000 -34.285800
H -20.086200 -24.530300 -35.519500
N -20.025000 -27.072900 -35.694000
C -19.820000 -26.224900 -36.711700
C -19.759600 -24.717100 -36.435300
H -19.734700 -27.377300 -33.718300
O -19.679500 -26.609200 -37.875600
H -19.620900 -25.839900 -34.146000
H -19.151300 -30.281700 -35.653900
H -18.972000 -29.589200 -38.259300
C -18.913500 -29.320200 -35.670800
H -18.574800 -29.078000 -34.771600
H -18.405100 -31.664800 -37.291500
N -18.384400 -24.262700 -36.571200
H -18.052600 -24.345600 -37.274400
C -18.043100 -29.754100 -37.958200
H -17.944900 -31.616400 -38.821400
O -17.927700 -24.152400 -34.351500
N -17.842400 -29.111000 -36.655300
C -17.793200 -31.242500 -37.929400
C -17.558900 -24.126200 -35.519500
H -17.433900 -29.338100 -38.618600
H -16.867800 -31.413700 -37.655600
C -16.780700 -28.378700 -36.309700
O -16.722200 -27.775800 -35.216900
C -16.076700 -24.021400 -35.891500
H -16.019000 -26.107200 -35.634400
H -15.986300 -23.468300 -36.719600
N -15.676900 -25.402400 -36.189700
C -15.617500 -28.282400 -37.251100
H -15.591600 -22.505000 -34.578600
H -15.292600 -23.959900 -33.984700
C -15.244300 -23.397600 -34.785100
N -15.128900 -29.393300 -37.914500
C -14.908300 -25.726200 -37.235700
C -14.866900 -27.164400 -37.569400
H -14.312000 -23.324800 -35.079600
O -14.262900 -24.907600 -37.896600
C -14.114600 -28.935500 -38.628400
N -13.938000 -27.612900 -38.467800
H -13.574400 -29.478000 -39.190500
H -13.416700 -27.138700 -38.863000
100
Fragment
H -13.472700 -27.258900 -33.992000
H -13.336500 -25.705400 -34.356200
H -12.962600 -26.218400 -32.887300
C -12.948800 -26.443800 -33.841700
H -12.299900 -28.855500 -35.404700
H -11.807900 -28.627700 -36.910200
H -11.720800 -24.234300 -37.076400
C -11.558000 -28.503900 -35.959500
C -11.520900 -26.673000 -34.285800
H -11.469200 -24.530300 -35.519500
N -11.408000 -27.072900 -35.694000
C -11.203000 -26.224900 -36.711700
C -11.142600 -24.717100 -36.435300
H -11.117700 -27.377300 -33.718300
O -11.062500 -26.609200 -37.875600
H -11.003900 -25.839900 -34.146000
H -10.534300 -30.281700 -35.653900
H -10.355000 -29.589200 -38.259300
C -10.296500 -29.320200 -35.670800
H -9.957800 -29.078000 -34.771600
H -9.788100 -31.664800 -37.291500
N -9.767400 -24.262700 -36.571200
H -9.435600 -24.345600 -37.274400
C -9.426100 -29.754100 -37.958200
H -9.327900 -31.616400 -38.821400
O -9.310700 -24.152400 -34.351500
N -9.225400 -29.111000 -36.655300
C -9.176200 -31.242500 -37.929400
C -8.941900 -24.126200 -35.519500
H -8.816900 -29.338100 -38.618600
H -8.250800 -31.413700 -37.655600
C -8.163700 -28.378700 -36.309700
O -8.105200 -27.775800 -35.216900
C -7.459700 -24.021400 -35.891500
H -7.402000 -26.107200 -35.634400
H -7.369300 -23.468300 -36.719600
N -7.059900 -25.402400 -36.189700
C -7.000500 -28.282400 -37.251100
H -6.974600 -22.505000 -34.578600
H -6.675600 -23.959900 -33.984700
C -6.627300 -23.397600 -34.785100
N -6.511900 -29.393300 -37.914500
C -6.291300 -25.726200 -37.235700
C -6.249900 -27.164400 -37.569400
H -5.695000 -23.324800 -35.079600
O -5.645900 -24.907600 -37.896600
C -5.497600 -28.935500 -38.628400
N -5.321000 -27.612900 -38.467800
H -4.957400 -29.478000 -39.190500
H -4.799700 -27.138700 -38.863000
H -22.089700 -27.258900 -33.992000
H -21.953500 -25.705400 -34.356200
H -21.579600 -26.218400 -32.887300
C -21.565800 -26.443800 -33.841700
H -20.916900 -28.855500 -35.404700
H -20.424900 -28.627700 -36.910200
H -20.337800 -24.234300 -37.076400
C -20.175000 -28.503900 -35.959500
C -20.137900 -26.673000 -34.285800
H -20.086200 -24.530300 -35.519500
N -20.025000 -27.072900 -35.694000
C -19.820000 -26.224900 -36.711700
C -19.759600 -24.717100 -36.435300
H -19.734700 -27.377300 -33.718300
O -19.679500 -26.609200 -37.875600
H -19.620900 -25.839900 -34.146000
H -19.151300 -30.281700 -35.653900
H -18.972000 -29.589200 -38.259300
C -18.913500 -29.320200 -35.670800
H -18.574800 -29.078000 -34.771600
H -18.405100 -31.664800 -37.291500
N -18.384400 -24.262700 -36.571200
H -18.052600 -24.345600 -37.274400
C -18.043100 -29.754100 -37.958200
H -17.944900 -31.616400 -38.821400
O -17.927700 -24.152400 -34.351500
N -17.842400 -29.111000 -36.655300
C -17.793200 -31.242500 -37.929400
C -17.558900 -24.126200 -35.519500
H -17.433900 -29.338100 -38.618600
H -16.867800 -31.413700 -37.655600
C -16.780700 -28.378700 -36.309700
O -16.722200 -27.775800 -35.216900
C -16.076700 -24.021400 -35.891500
H -16.019000 -26.107200 -35.634400
H -15.986300 -23.468300 -36.719600
N -15.676900 -25.402400 -36.189700
C -15.617500 -28.282400 -37.251100
H -15.591600 -22.505000 -34.578600
H -15.292600 -23.959900 -33.984700
C -15.244300 -23.397600 -34.785100
N -15.128900 -29.393300 -37.914500
C -14.908300 -25.726200 -37.235700
C -14.866900 -27.164400 -37.569400
H -14.312000 -23.324800 -35.079600
O -14.262900 -24.907600 -37.896600
C -14.114600 -28.935500 -38.628400
N -13.938000 -27.612900 -38.467800
H -13.574400 -29.478000 -39.190500
H -13.416700 -27.138700 -38.863000
