50
Fragment
H -13.472700 -27.258900 -33.992000
H -13.336500 -25.705400 -34.356200
H -12.962600 -26.218400 -32.887300
C -12.948800 -26.443800 -33.841700
H -12.299900 -28.855500 -35.404700
H -11.807900 -28.627700 -36.910200
H -11.720800 -24.234300 -37.076400
C -11.558000 -28.503900 -35.959500
C -11.520900 -26.673000 -34.285800
H -11.469200 -24.530300 -35.519500
N -11.408000 -27.072900 -35.694000
C -11.203000 -26.224900 -36.711700
C -11.142600 -24.717100 -36.435300
H -11.117700 -27.377300 -33.718300
O -11.062500 -26.609200 -37.875600
H -11.003900 -25.839900 -34.146000
H -10.534300 -30.281700 -35.653900
H -10.355000 -29.589200 -38.259300
C -10.296500 -29.320200 -35.670800
H -9.957800 -29.078000 -34.771600
H -9.788100 -31.664800 -37.291500
N -9.767400 -24.262700 -36.571200
H -9.435600 -24.345600 -37.274400
C -9.426100 -29.754100 -37.958200
H -9.327900 -31.616400 -38.821400
O -9.310700 -24.152400 -34.351500
N -9.225400 -29.111000 -36.655300
C -9.176200 -31.242500 -37.929400
C -8.941900 -24.126200 -35.519500
H -8.816900 -29.338100 -38.618600
H -8.250800 -31.413700 -37.655600
C -8.163700 -28.378700 -36.309700
O -8.105200 -27.775800 -35.216900
C -7.459700 -24.021400 -35.891500
H -7.402000 -26.107200 -35.634400
H -7.369300 -23.468300 -36.719600
N -7.059900 -25.402400 -36.189700
C -7.000500 -28.282400 -37.251100
H -6.974600 -22.505000 -34.578600
H -6.675600 -23.959900 -33.984700
C -6.627300 -23.397600 -34.785100
N -6.511900 -29.393300 -37.914500
C -6.291300 -25.726200 -37.235700
C -6.249900 -27.164400 -37.569400
H -5.695000 -23.324800 -35.079600
O -5.645900 -24.907600 -37.896600
C -5.497600 -28.935500 -38.628400
N -5.321000 -27.612900 -38.467800
H -4.957400 -29.478000 -39.190500
H -4.799700 -27.138700 -38.863000
50
Fragment
H -17.781200 -35.529000 -39.329800
H -17.645000 -37.082500 -38.965600
H -17.271100 -36.569500 -40.434500
C -17.257300 -36.344100 -39.480100
H -16.608400 -33.932400 -37.917100
H -16.116400 -34.160200 -36.411600
H -16.029300 -38.553600 -36.245400
C -15.866500 -34.284000 -37.362300
C -15.829400 -36.114900 -39.036000
H -15.777700 -38.257600 -37.802300
N -15.716500 -35.715000 -37.627800
C -15.511500 -36.563000 -36.610100
C -15.451100 -38.070800 -36.886500
H -15.426200 -35.410600 -39.603500
O -15.371000 -36.178700 -35.446200
H -15.312400 -36.948000 -39.175800
H -14.842800 -32.506200 -37.667900
H -14.663500 -33.198700 -35.062500
C -14.605000 -33.467700 -37.651000
H -14.266300 -33.709900 -38.550200
H -14.096600 -31.123100 -36.030300
N -14.075900 -38.525200 -36.750600
H -13.744100 -38.442300 -36.047400
C -13.734600 -33.033800 -35.363600
H -13.636400 -31.171500 -34.500400
O -13.619200 -38.635500 -38.970300
N -13.533900 -33.676900 -36.666500
C -13.484700 -31.545400 -35.392400
C -13.250400 -38.661700 -37.802300
H -13.125400 -33.449800 -34.703200
H -12.559300 -31.374200 -35.666200
C -12.472200 -34.409200 -37.012100
O -12.413700 -35.012100 -38.104900
C -11.768200 -38.766500 -37.430300
H -11.710500 -36.680700 -37.687400
H -11.677800 -39.319600 -36.602200
N -11.368400 -37.385500 -37.132100
C -11.309000 -34.505500 -36.070700
H -11.283100 -40.282900 -38.743200
H -10.984100 -38.828000 -39.337100
C -10.935800 -39.390300 -38.536700
N -10.820400 -33.394600 -35.407300
C -10.599800 -37.061700 -36.086100
C -10.558400 -35.623500 -35.752400
H -10.003500 -39.463100 -38.242200
O -9.954400 -37.880300 -35.425200
C -9.806100 -33.852400 -34.693400
N -9.629500 -35.175000 -34.854000
H -9.265900 -33.309900 -34.131300
H -9.108200 -35.649200 -34.458800
100
Fragment
H -13.472700 -27.258900 -33.992000
H -13.336500 -25.705400 -34.356200
H -12.962600 -26.218400 -32.887300
C -12.948800 -26.443800 -33.841700
H -12.299900 -28.855500 -35.404700
H -11.807900 -28.627700 -36.910200
H -11.720800 -24.234300 -37.076400
C -11.558000 -28.503900 -35.959500
C -11.520900 -26.673000 -34.285800
H -11.469200 -24.530300 -35.519500
N -11.408000 -27.072900 -35.694000
C -11.203000 -26.224900 -36.711700
C -11.142600 -24.717100 -36.435300
H -11.117700 -27.377300 -33.718300
O -11.062500 -26.609200 -37.875600
H -11.003900 -25.839900 -34.146000
H -10.534300 -30.281700 -35.653900
H -10.355000 -29.589200 -38.259300
C -10.296500 -29.320200 -35.670800
H -9.957800 -29.078000 -34.771600
H -9.788100 -31.664800 -37.291500
N -9.767400 -24.262700 -36.571200
H -9.435600 -24.345600 -37.274400
C -9.426100 -29.754100 -37.958200
H -9.327900 -31.616400 -38.821400
O -9.310700 -24.152400 -34.351500
N -9.225400 -29.111000 -36.655300
C -9.176200 -31.242500 -37.929400
C -8.941900 -24.126200 -35.519500
H -8.816900 -29.338100 -38.618600
H -8.250800 -31.413700 -37.655600
C -8.163700 -28.378700 -36.309700
O -8.105200 -27.775800 -35.216900
C -7.459700 -24.021400 -35.891500
H -7.402000 -26.107200 -35.634400
H -7.369300 -23.468300 -36.719600
N -7.059900 -25.402400 -36.189700
C -7.000500 -28.282400 -37.251100
H -6.974600 -22.505000 -34.578600
H -6.675600 -23.959900 -33.984700
C -6.627300 -23.397600 -34.785100
N -6.511900 -29.393300 -37.914500
C -6.291300 -25.726200 -37.235700
C -6.249900 -27.164400 -37.569400
H -5.695000 -23.324800 -35.079600
O -5.645900 -24.907600 -37.896600
C -5.497600 -28.935500 -38.628400
N -5.321000 -27.612900 -38.467800
H -4.957400 -29.478000 -39.190500
H -4.799700 -27.138700 -38.863000
H -17.781200 -35.529000 -39.329800
H -17.645000 -37.082500 -38.965600
H -17.271100 -36.569500 -40.434500
C -17.257300 -36.344100 -39.480100
H -16.608400 -33.932400 -37.917100
H -16.116400 -34.160200 -36.411600
H -16.029300 -38.553600 -36.245400
C -15.866500 -34.284000 -37.362300
C -15.829400 -36.114900 -39.036000
H -15.777700 -38.257600 -37.802300
N -15.716500 -35.715000 -37.627800
C -15.511500 -36.563000 -36.610100
C -15.451100 -38.070800 -36.886500
H -15.426200 -35.410600 -39.603500
O -15.371000 -36.178700 -35.446200
H -15.312400 -36.948000 -39.175800
H -14.842800 -32.506200 -37.667900
H -14.663500 -33.198700 -35.062500
C -14.605000 -33.467700 -37.651000
H -14.266300 -33.709900 -38.550200
H -14.096600 -31.123100 -36.030300
N -14.075900 -38.525200 -36.750600
H -13.744100 -38.442300 -36.047400
C -13.734600 -33.033800 -35.363600
H -13.636400 -31.171500 -34.500400
O -13.619200 -38.635500 -38.970300
N -13.533900 -33.676900 -36.666500
C -13.484700 -31.545400 -35.392400
C -13.250400 -38.661700 -37.802300
H -13.125400 -33.449800 -34.703200
H -12.559300 -31.374200 -35.666200
C -12.472200 -34.409200 -37.012100
O -12.413700 -35.012100 -38.104900
C -11.768200 -38.766500 -37.430300
H -11.710500 -36.680700 -37.687400
H -11.677800 -39.319600 -36.602200
N -11.368400 -37.385500 -37.132100
C -11.309000 -34.505500 -36.070700
H -11.283100 -40.282900 -38.743200
H -10.984100 -38.828000 -39.337100
C -10.935800 -39.390300 -38.536700
N -10.820400 -33.394600 -35.407300
C -10.599800 -37.061700 -36.086100
C -10.558400 -35.623500 -35.752400
H -10.003500 -39.463100 -38.242200
O -9.954400 -37.880300 -35.425200
C -9.806100 -33.852400 -34.693400
N -9.629500 -35.175000 -34.854000
H -9.265900 -33.309900 -34.131300
H -9.108200 -35.649200 -34.458800
