50
Fragment
H -13.472700 -27.258900 -33.992000
H -13.336500 -25.705400 -34.356200
H -12.962600 -26.218400 -32.887300
C -12.948800 -26.443800 -33.841700
H -12.299900 -28.855500 -35.404700
H -11.807900 -28.627700 -36.910200
H -11.720800 -24.234300 -37.076400
C -11.558000 -28.503900 -35.959500
C -11.520900 -26.673000 -34.285800
H -11.469200 -24.530300 -35.519500
N -11.408000 -27.072900 -35.694000
C -11.203000 -26.224900 -36.711700
C -11.142600 -24.717100 -36.435300
H -11.117700 -27.377300 -33.718300
O -11.062500 -26.609200 -37.875600
H -11.003900 -25.839900 -34.146000
H -10.534300 -30.281700 -35.653900
H -10.355000 -29.589200 -38.259300
C -10.296500 -29.320200 -35.670800
H -9.957800 -29.078000 -34.771600
H -9.788100 -31.664800 -37.291500
N -9.767400 -24.262700 -36.571200
H -9.435600 -24.345600 -37.274400
C -9.426100 -29.754100 -37.958200
H -9.327900 -31.616400 -38.821400
O -9.310700 -24.152400 -34.351500
N -9.225400 -29.111000 -36.655300
C -9.176200 -31.242500 -37.929400
C -8.941900 -24.126200 -35.519500
H -8.816900 -29.338100 -38.618600
H -8.250800 -31.413700 -37.655600
C -8.163700 -28.378700 -36.309700
O -8.105200 -27.775800 -35.216900
C -7.459700 -24.021400 -35.891500
H -7.402000 -26.107200 -35.634400
H -7.369300 -23.468300 -36.719600
N -7.059900 -25.402400 -36.189700
C -7.000500 -28.282400 -37.251100
H -6.974600 -22.505000 -34.578600
H -6.675600 -23.959900 -33.984700
C -6.627300 -23.397600 -34.785100
N -6.511900 -29.393300 -37.914500
C -6.291300 -25.726200 -37.235700
C -6.249900 -27.164400 -37.569400
H -5.695000 -23.324800 -35.079600
O -5.645900 -24.907600 -37.896600
C -5.497600 -28.935500 -38.628400
N -5.321000 -27.612900 -38.467800
H -4.957400 -29.478000 -39.190500
H -4.799700 -27.138700 -38.863000
50
Fragment
H -14.646300 -16.238700 -32.589100
H -14.287000 -18.309000 -33.774500
C -13.975100 -16.888000 -32.417000
N -13.850100 -18.028200 -33.110200
N -13.066800 -16.764900 -31.471700
O -12.897100 -20.428900 -34.198800
C -12.804900 -18.725700 -32.559800
H -12.576500 -23.373200 -32.594000
C -12.462800 -20.058900 -33.096000
C -12.318000 -17.914800 -31.561100
H -11.828600 -14.857400 -30.338100
H -11.718300 -23.240500 -31.249800
N -11.697600 -20.816700 -32.310700
C -11.671700 -23.290500 -32.228100
H -11.460600 -20.450900 -31.535700
C -11.159900 -18.145000 -30.644800
H -11.140100 -24.071100 -32.488900
H -11.028900 -22.061900 -33.767100
C -11.022000 -22.034200 -32.767300
O -11.018600 -19.263500 -30.105000
C -10.877200 -14.696700 -30.511200
H -10.777300 -16.052200 -32.058700
H -10.777300 -13.903000 -31.078700
H -10.410200 -14.552400 -29.661100
N -10.318000 -17.128000 -30.420000
C -10.282700 -15.899500 -31.216000
C -9.585600 -21.863500 -32.278000
H -9.487300 -17.986000 -28.786100
H -9.341700 -15.698800 -31.450200
C -9.252100 -17.254500 -29.410800
H -9.203000 -16.414600 -28.888800
H -9.194300 -20.590800 -33.698700
O -9.184900 -22.383700 -31.239000
N -8.851400 -21.020000 -33.017300
O -8.323300 -18.167400 -32.624000
C -7.923300 -19.067100 -31.885700
C -7.875100 -17.543100 -30.019200
H -7.769900 -20.798900 -29.908000
N -7.721700 -18.889100 -30.573000
H -7.707000 -19.720800 -28.727500
H -7.703600 -16.884600 -30.738900
C -7.618300 -20.440200 -32.510600
C -7.351200 -19.949300 -29.622700
H -7.220200 -21.039300 -31.829000
H -7.187400 -17.408400 -29.321400
H -6.967700 -20.336100 -33.249000
C -5.847500 -20.145600 -29.524200
H -5.645000 -20.750500 -28.778800
H -5.513200 -20.533400 -30.360100
H -5.414100 -19.279500 -29.370300
100
Fragment
H -13.472700 -27.258900 -33.992000
H -13.336500 -25.705400 -34.356200
H -12.962600 -26.218400 -32.887300
C -12.948800 -26.443800 -33.841700
H -12.299900 -28.855500 -35.404700
H -11.807900 -28.627700 -36.910200
H -11.720800 -24.234300 -37.076400
C -11.558000 -28.503900 -35.959500
C -11.520900 -26.673000 -34.285800
H -11.469200 -24.530300 -35.519500
N -11.408000 -27.072900 -35.694000
C -11.203000 -26.224900 -36.711700
C -11.142600 -24.717100 -36.435300
H -11.117700 -27.377300 -33.718300
O -11.062500 -26.609200 -37.875600
H -11.003900 -25.839900 -34.146000
H -10.534300 -30.281700 -35.653900
H -10.355000 -29.589200 -38.259300
C -10.296500 -29.320200 -35.670800
H -9.957800 -29.078000 -34.771600
H -9.788100 -31.664800 -37.291500
N -9.767400 -24.262700 -36.571200
H -9.435600 -24.345600 -37.274400
C -9.426100 -29.754100 -37.958200
H -9.327900 -31.616400 -38.821400
O -9.310700 -24.152400 -34.351500
N -9.225400 -29.111000 -36.655300
C -9.176200 -31.242500 -37.929400
C -8.941900 -24.126200 -35.519500
H -8.816900 -29.338100 -38.618600
H -8.250800 -31.413700 -37.655600
C -8.163700 -28.378700 -36.309700
O -8.105200 -27.775800 -35.216900
C -7.459700 -24.021400 -35.891500
H -7.402000 -26.107200 -35.634400
H -7.369300 -23.468300 -36.719600
N -7.059900 -25.402400 -36.189700
C -7.000500 -28.282400 -37.251100
H -6.974600 -22.505000 -34.578600
H -6.675600 -23.959900 -33.984700
C -6.627300 -23.397600 -34.785100
N -6.511900 -29.393300 -37.914500
C -6.291300 -25.726200 -37.235700
C -6.249900 -27.164400 -37.569400
H -5.695000 -23.324800 -35.079600
O -5.645900 -24.907600 -37.896600
C -5.497600 -28.935500 -38.628400
N -5.321000 -27.612900 -38.467800
H -4.957400 -29.478000 -39.190500
H -4.799700 -27.138700 -38.863000
H -14.646300 -16.238700 -32.589100
H -14.287000 -18.309000 -33.774500
C -13.975100 -16.888000 -32.417000
N -13.850100 -18.028200 -33.110200
N -13.066800 -16.764900 -31.471700
O -12.897100 -20.428900 -34.198800
C -12.804900 -18.725700 -32.559800
H -12.576500 -23.373200 -32.594000
C -12.462800 -20.058900 -33.096000
C -12.318000 -17.914800 -31.561100
H -11.828600 -14.857400 -30.338100
H -11.718300 -23.240500 -31.249800
N -11.697600 -20.816700 -32.310700
C -11.671700 -23.290500 -32.228100
H -11.460600 -20.450900 -31.535700
C -11.159900 -18.145000 -30.644800
H -11.140100 -24.071100 -32.488900
H -11.028900 -22.061900 -33.767100
C -11.022000 -22.034200 -32.767300
O -11.018600 -19.263500 -30.105000
C -10.877200 -14.696700 -30.511200
H -10.777300 -16.052200 -32.058700
H -10.777300 -13.903000 -31.078700
H -10.410200 -14.552400 -29.661100
N -10.318000 -17.128000 -30.420000
C -10.282700 -15.899500 -31.216000
C -9.585600 -21.863500 -32.278000
H -9.487300 -17.986000 -28.786100
H -9.341700 -15.698800 -31.450200
C -9.252100 -17.254500 -29.410800
H -9.203000 -16.414600 -28.888800
H -9.194300 -20.590800 -33.698700
O -9.184900 -22.383700 -31.239000
N -8.851400 -21.020000 -33.017300
O -8.323300 -18.167400 -32.624000
C -7.923300 -19.067100 -31.885700
C -7.875100 -17.543100 -30.019200
H -7.769900 -20.798900 -29.908000
N -7.721700 -18.889100 -30.573000
H -7.707000 -19.720800 -28.727500
H -7.703600 -16.884600 -30.738900
C -7.618300 -20.440200 -32.510600
C -7.351200 -19.949300 -29.622700
H -7.220200 -21.039300 -31.829000
H -7.187400 -17.408400 -29.321400
H -6.967700 -20.336100 -33.249000
C -5.847500 -20.145600 -29.524200
H -5.645000 -20.750500 -28.778800
H -5.513200 -20.533400 -30.360100
H -5.414100 -19.279500 -29.370300
