50
Fragment
H -13.472700 -27.258900 -33.992000
H -13.336500 -25.705400 -34.356200
H -12.962600 -26.218400 -32.887300
C -12.948800 -26.443800 -33.841700
H -12.299900 -28.855500 -35.404700
H -11.807900 -28.627700 -36.910200
H -11.720800 -24.234300 -37.076400
C -11.558000 -28.503900 -35.959500
C -11.520900 -26.673000 -34.285800
H -11.469200 -24.530300 -35.519500
N -11.408000 -27.072900 -35.694000
C -11.203000 -26.224900 -36.711700
C -11.142600 -24.717100 -36.435300
H -11.117700 -27.377300 -33.718300
O -11.062500 -26.609200 -37.875600
H -11.003900 -25.839900 -34.146000
H -10.534300 -30.281700 -35.653900
H -10.355000 -29.589200 -38.259300
C -10.296500 -29.320200 -35.670800
H -9.957800 -29.078000 -34.771600
H -9.788100 -31.664800 -37.291500
N -9.767400 -24.262700 -36.571200
H -9.435600 -24.345600 -37.274400
C -9.426100 -29.754100 -37.958200
H -9.327900 -31.616400 -38.821400
O -9.310700 -24.152400 -34.351500
N -9.225400 -29.111000 -36.655300
C -9.176200 -31.242500 -37.929400
C -8.941900 -24.126200 -35.519500
H -8.816900 -29.338100 -38.618600
H -8.250800 -31.413700 -37.655600
C -8.163700 -28.378700 -36.309700
O -8.105200 -27.775800 -35.216900
C -7.459700 -24.021400 -35.891500
H -7.402000 -26.107200 -35.634400
H -7.369300 -23.468300 -36.719600
N -7.059900 -25.402400 -36.189700
C -7.000500 -28.282400 -37.251100
H -6.974600 -22.505000 -34.578600
H -6.675600 -23.959900 -33.984700
C -6.627300 -23.397600 -34.785100
N -6.511900 -29.393300 -37.914500
C -6.291300 -25.726200 -37.235700
C -6.249900 -27.164400 -37.569400
H -5.695000 -23.324800 -35.079600
O -5.645900 -24.907600 -37.896600
C -5.497600 -28.935500 -38.628400
N -5.321000 -27.612900 -38.467800
H -4.957400 -29.478000 -39.190500
H -4.799700 -27.138700 -38.863000
50
Fragment
H -6.029300 -16.238700 -32.589100
H -5.670000 -18.309000 -33.774500
C -5.358100 -16.888000 -32.417000
N -5.233100 -18.028200 -33.110200
N -4.449800 -16.764900 -31.471700
O -4.280100 -20.428900 -34.198800
C -4.187900 -18.725700 -32.559800
H -3.959500 -23.373200 -32.594000
C -3.845800 -20.058900 -33.096000
C -3.701000 -17.914800 -31.561100
H -3.211600 -14.857400 -30.338100
H -3.101300 -23.240500 -31.249800
N -3.080600 -20.816700 -32.310700
C -3.054700 -23.290500 -32.228100
H -2.843600 -20.450900 -31.535700
C -2.542900 -18.145000 -30.644800
H -2.523100 -24.071100 -32.488900
H -2.411900 -22.061900 -33.767100
C -2.405000 -22.034200 -32.767300
O -2.401600 -19.263500 -30.105000
C -2.260200 -14.696700 -30.511200
H -2.160300 -16.052200 -32.058700
H -2.160300 -13.903000 -31.078700
H -1.793200 -14.552400 -29.661100
N -1.701000 -17.128000 -30.420000
C -1.665700 -15.899500 -31.216000
C -0.968600 -21.863500 -32.278000
H -0.870300 -17.986000 -28.786100
H -0.724700 -15.698800 -31.450200
C -0.635100 -17.254500 -29.410800
H -0.586000 -16.414600 -28.888800
H -0.577300 -20.590800 -33.698700
O -0.567900 -22.383700 -31.239000
N -0.234400 -21.020000 -33.017300
O 0.293700 -18.167400 -32.624000
C 0.693700 -19.067100 -31.885700
C 0.741900 -17.543100 -30.019200
H 0.847100 -20.798900 -29.908000
N 0.895300 -18.889100 -30.573000
H 0.910000 -19.720800 -28.727500
H 0.913400 -16.884600 -30.738900
C 0.998700 -20.440200 -32.510600
C 1.265800 -19.949300 -29.622700
H 1.396800 -21.039300 -31.829000
H 1.429600 -17.408400 -29.321400
H 1.649300 -20.336100 -33.249000
C 2.769500 -20.145600 -29.524200
H 2.972000 -20.750500 -28.778800
H 3.103800 -20.533400 -30.360100
H 3.202900 -19.279500 -29.370300
100
Fragment
H -13.472700 -27.258900 -33.992000
H -13.336500 -25.705400 -34.356200
H -12.962600 -26.218400 -32.887300
C -12.948800 -26.443800 -33.841700
H -12.299900 -28.855500 -35.404700
H -11.807900 -28.627700 -36.910200
H -11.720800 -24.234300 -37.076400
C -11.558000 -28.503900 -35.959500
C -11.520900 -26.673000 -34.285800
H -11.469200 -24.530300 -35.519500
N -11.408000 -27.072900 -35.694000
C -11.203000 -26.224900 -36.711700
C -11.142600 -24.717100 -36.435300
H -11.117700 -27.377300 -33.718300
O -11.062500 -26.609200 -37.875600
H -11.003900 -25.839900 -34.146000
H -10.534300 -30.281700 -35.653900
H -10.355000 -29.589200 -38.259300
C -10.296500 -29.320200 -35.670800
H -9.957800 -29.078000 -34.771600
H -9.788100 -31.664800 -37.291500
N -9.767400 -24.262700 -36.571200
H -9.435600 -24.345600 -37.274400
C -9.426100 -29.754100 -37.958200
H -9.327900 -31.616400 -38.821400
O -9.310700 -24.152400 -34.351500
N -9.225400 -29.111000 -36.655300
C -9.176200 -31.242500 -37.929400
C -8.941900 -24.126200 -35.519500
H -8.816900 -29.338100 -38.618600
H -8.250800 -31.413700 -37.655600
C -8.163700 -28.378700 -36.309700
O -8.105200 -27.775800 -35.216900
C -7.459700 -24.021400 -35.891500
H -7.402000 -26.107200 -35.634400
H -7.369300 -23.468300 -36.719600
N -7.059900 -25.402400 -36.189700
C -7.000500 -28.282400 -37.251100
H -6.974600 -22.505000 -34.578600
H -6.675600 -23.959900 -33.984700
C -6.627300 -23.397600 -34.785100
N -6.511900 -29.393300 -37.914500
C -6.291300 -25.726200 -37.235700
C -6.249900 -27.164400 -37.569400
H -5.695000 -23.324800 -35.079600
O -5.645900 -24.907600 -37.896600
C -5.497600 -28.935500 -38.628400
N -5.321000 -27.612900 -38.467800
H -4.957400 -29.478000 -39.190500
H -4.799700 -27.138700 -38.863000
H -6.029300 -16.238700 -32.589100
H -5.670000 -18.309000 -33.774500
C -5.358100 -16.888000 -32.417000
N -5.233100 -18.028200 -33.110200
N -4.449800 -16.764900 -31.471700
O -4.280100 -20.428900 -34.198800
C -4.187900 -18.725700 -32.559800
H -3.959500 -23.373200 -32.594000
C -3.845800 -20.058900 -33.096000
C -3.701000 -17.914800 -31.561100
H -3.211600 -14.857400 -30.338100
H -3.101300 -23.240500 -31.249800
N -3.080600 -20.816700 -32.310700
C -3.054700 -23.290500 -32.228100
H -2.843600 -20.450900 -31.535700
C -2.542900 -18.145000 -30.644800
H -2.523100 -24.071100 -32.488900
H -2.411900 -22.061900 -33.767100
C -2.405000 -22.034200 -32.767300
O -2.401600 -19.263500 -30.105000
C -2.260200 -14.696700 -30.511200
H -2.160300 -16.052200 -32.058700
H -2.160300 -13.903000 -31.078700
H -1.793200 -14.552400 -29.661100
N -1.701000 -17.128000 -30.420000
C -1.665700 -15.899500 -31.216000
C -0.968600 -21.863500 -32.278000
H -0.870300 -17.986000 -28.786100
H -0.724700 -15.698800 -31.450200
C -0.635100 -17.254500 -29.410800
H -0.586000 -16.414600 -28.888800
H -0.577300 -20.590800 -33.698700
O -0.567900 -22.383700 -31.239000
N -0.234400 -21.020000 -33.017300
O 0.293700 -18.167400 -32.624000
C 0.693700 -19.067100 -31.885700
C 0.741900 -17.543100 -30.019200
H 0.847100 -20.798900 -29.908000
N 0.895300 -18.889100 -30.573000
H 0.910000 -19.720800 -28.727500
H 0.913400 -16.884600 -30.738900
C 0.998700 -20.440200 -32.510600
C 1.265800 -19.949300 -29.622700
H 1.396800 -21.039300 -31.829000
H 1.429600 -17.408400 -29.321400
H 1.649300 -20.336100 -33.249000
C 2.769500 -20.145600 -29.524200
H 2.972000 -20.750500 -28.778800
H 3.103800 -20.533400 -30.360100
H 3.202900 -19.279500 -29.370300
