21
Fragment
H -14.193200 -9.199100 -10.759600
H -13.291700 -10.526100 -11.503100
C -13.209900 -9.564500 -11.016700
H -12.621000 -9.666100 -10.112200
O -12.545100 -10.233600 -13.578000
N -12.526800 -8.648100 -11.959600
O -12.511600 -7.113100 -10.339900
H -12.452400 -4.995200 -10.234700
H -12.265300 -5.886000 -8.721400
C -12.226200 -9.097500 -13.247100
C -12.163800 -7.392600 -11.580300
C -12.010000 -5.865400 -9.772500
N -11.564600 -6.505500 -12.317800
C -11.526100 -8.162200 -14.097200
C -11.220300 -6.860000 -13.581900
N -11.216700 -8.638100 -15.324200
H -10.932700 -5.822500 -9.876000
N -10.605300 -5.948300 -14.301100
O -10.605000 -7.866300 -16.119900
H -10.416800 -4.946900 -13.838700
H -10.255600 -6.236100 -15.264600
21
Fragment
H -18.720300 -13.917000 -10.978200
H -18.559100 -15.206200 -12.404100
O -18.370900 -12.286800 -10.122900
N -18.370600 -14.204800 -11.941700
H -18.043200 -14.330500 -16.366800
N -17.759200 -11.514900 -10.918600
C -17.755500 -13.293100 -12.660900
C -17.449800 -11.990900 -12.145600
N -17.411300 -13.647600 -13.925000
C -16.965900 -14.287700 -16.470300
C -16.812000 -12.760400 -14.662500
C -16.749700 -11.055600 -12.995700
H -16.710600 -14.267000 -17.521500
H -16.523500 -15.157900 -16.008100
O -16.464300 -13.040000 -15.902900
N -16.449100 -11.505000 -14.283300
O -16.430800 -9.919500 -12.664800
H -16.354900 -10.487000 -16.130600
C -15.766000 -10.588600 -15.226100
H -15.684200 -9.626900 -14.739700
H -14.782700 -10.954000 -15.483300
42
Fragment
H -14.193200 -9.199100 -10.759600
H -13.291700 -10.526100 -11.503100
C -13.209900 -9.564500 -11.016700
H -12.621000 -9.666100 -10.112200
O -12.545100 -10.233600 -13.578000
N -12.526800 -8.648100 -11.959600
O -12.511600 -7.113100 -10.339900
H -12.452400 -4.995200 -10.234700
H -12.265300 -5.886000 -8.721400
C -12.226200 -9.097500 -13.247100
C -12.163800 -7.392600 -11.580300
C -12.010000 -5.865400 -9.772500
N -11.564600 -6.505500 -12.317800
C -11.526100 -8.162200 -14.097200
C -11.220300 -6.860000 -13.581900
N -11.216700 -8.638100 -15.324200
H -10.932700 -5.822500 -9.876000
N -10.605300 -5.948300 -14.301100
O -10.605000 -7.866300 -16.119900
H -10.416800 -4.946900 -13.838700
H -10.255600 -6.236100 -15.264600
H -18.720300 -13.917000 -10.978200
H -18.559100 -15.206200 -12.404100
O -18.370900 -12.286800 -10.122900
N -18.370600 -14.204800 -11.941700
H -18.043200 -14.330500 -16.366800
N -17.759200 -11.514900 -10.918600
C -17.755500 -13.293100 -12.660900
C -17.449800 -11.990900 -12.145600
N -17.411300 -13.647600 -13.925000
C -16.965900 -14.287700 -16.470300
C -16.812000 -12.760400 -14.662500
C -16.749700 -11.055600 -12.995700
H -16.710600 -14.267000 -17.521500
H -16.523500 -15.157900 -16.008100
O -16.464300 -13.040000 -15.902900
N -16.449100 -11.505000 -14.283300
O -16.430800 -9.919500 -12.664800
H -16.354900 -10.487000 -16.130600
C -15.766000 -10.588600 -15.226100
H -15.684200 -9.626900 -14.739700
H -14.782700 -10.954000 -15.483300
