21
Fragment
H -14.193200 -9.199100 -10.759600
H -13.291700 -10.526100 -11.503100
C -13.209900 -9.564500 -11.016700
H -12.621000 -9.666100 -10.112200
O -12.545100 -10.233600 -13.578000
N -12.526800 -8.648100 -11.959600
O -12.511600 -7.113100 -10.339900
H -12.452400 -4.995200 -10.234700
H -12.265300 -5.886000 -8.721400
C -12.226200 -9.097500 -13.247100
C -12.163800 -7.392600 -11.580300
C -12.010000 -5.865400 -9.772500
N -11.564600 -6.505500 -12.317800
C -11.526100 -8.162200 -14.097200
C -11.220300 -6.860000 -13.581900
N -11.216700 -8.638100 -15.324200
H -10.932700 -5.822500 -9.876000
N -10.605300 -5.948300 -14.301100
O -10.605000 -7.866300 -16.119900
H -10.416800 -4.946900 -13.838700
H -10.255600 -6.236100 -15.264600
21
Fragment
H -11.559800 -2.263200 -10.759600
H -10.658400 -3.590200 -11.503100
C -10.576500 -2.628500 -11.016700
H -9.987700 -2.730200 -10.112200
O -9.911700 -3.297600 -13.578000
N -9.893500 -1.712100 -11.959600
O -9.878300 -0.177100 -10.339900
H -9.819000 1.940800 -10.234700
H -9.632000 1.049900 -8.721400
C -9.592900 -2.161600 -13.247100
C -9.530500 -0.456700 -11.580300
C -9.376700 1.070600 -9.772500
N -8.931200 0.430400 -12.317800
C -8.892800 -1.226200 -14.097200
C -8.587000 0.076000 -13.581900
N -8.583300 -1.702200 -15.324200
H -8.299400 1.113400 -9.876000
N -7.972000 0.987700 -14.301100
O -7.971600 -0.930400 -16.119900
H -7.783500 1.989100 -13.838700
H -7.622300 0.699900 -15.264600
42
Fragment
H -14.193200 -9.199100 -10.759600
H -13.291700 -10.526100 -11.503100
C -13.209900 -9.564500 -11.016700
H -12.621000 -9.666100 -10.112200
O -12.545100 -10.233600 -13.578000
N -12.526800 -8.648100 -11.959600
O -12.511600 -7.113100 -10.339900
H -12.452400 -4.995200 -10.234700
H -12.265300 -5.886000 -8.721400
C -12.226200 -9.097500 -13.247100
C -12.163800 -7.392600 -11.580300
C -12.010000 -5.865400 -9.772500
N -11.564600 -6.505500 -12.317800
C -11.526100 -8.162200 -14.097200
C -11.220300 -6.860000 -13.581900
N -11.216700 -8.638100 -15.324200
H -10.932700 -5.822500 -9.876000
N -10.605300 -5.948300 -14.301100
O -10.605000 -7.866300 -16.119900
H -10.416800 -4.946900 -13.838700
H -10.255600 -6.236100 -15.264600
H -11.559800 -2.263200 -10.759600
H -10.658400 -3.590200 -11.503100
C -10.576500 -2.628500 -11.016700
H -9.987700 -2.730200 -10.112200
O -9.911700 -3.297600 -13.578000
N -9.893500 -1.712100 -11.959600
O -9.878300 -0.177100 -10.339900
H -9.819000 1.940800 -10.234700
H -9.632000 1.049900 -8.721400
C -9.592900 -2.161600 -13.247100
C -9.530500 -0.456700 -11.580300
C -9.376700 1.070600 -9.772500
N -8.931200 0.430400 -12.317800
C -8.892800 -1.226200 -14.097200
C -8.587000 0.076000 -13.581900
N -8.583300 -1.702200 -15.324200
H -8.299400 1.113400 -9.876000
N -7.972000 0.987700 -14.301100
O -7.971600 -0.930400 -16.119900
H -7.783500 1.989100 -13.838700
H -7.622300 0.699900 -15.264600
