21
Fragment
H -14.193200 -9.199100 -10.759600
H -13.291700 -10.526100 -11.503100
C -13.209900 -9.564500 -11.016700
H -12.621000 -9.666100 -10.112200
O -12.545100 -10.233600 -13.578000
N -12.526800 -8.648100 -11.959600
O -12.511600 -7.113100 -10.339900
H -12.452400 -4.995200 -10.234700
H -12.265300 -5.886000 -8.721400
C -12.226200 -9.097500 -13.247100
C -12.163800 -7.392600 -11.580300
C -12.010000 -5.865400 -9.772500
N -11.564600 -6.505500 -12.317800
C -11.526100 -8.162200 -14.097200
C -11.220300 -6.860000 -13.581900
N -11.216700 -8.638100 -15.324200
H -10.932700 -5.822500 -9.876000
N -10.605300 -5.948300 -14.301100
O -10.605000 -7.866300 -16.119900
H -10.416800 -4.946900 -13.838700
H -10.255600 -6.236100 -15.264600
21
Fragment
H -8.671900 -6.981100 -10.978200
H -8.510800 -8.270300 -12.404100
O -8.322600 -5.350900 -10.122900
N -8.322200 -7.268900 -11.941700
H -7.994800 -7.394600 -16.366800
N -7.710900 -4.579000 -10.918600
C -7.707200 -6.357200 -12.660900
C -7.401400 -5.055000 -12.145600
N -7.363000 -6.711600 -13.925000
C -6.917600 -7.351800 -16.470300
C -6.763700 -5.824500 -14.662500
C -6.701400 -4.119600 -12.995700
H -6.662300 -7.331100 -17.521500
H -6.475200 -8.222000 -16.008100
O -6.415900 -6.104100 -15.902900
N -6.400800 -4.569100 -14.283300
O -6.382500 -2.983600 -12.664800
H -6.306600 -3.551000 -16.130600
C -5.717700 -3.652700 -15.226100
H -5.635800 -2.691000 -14.739700
H -4.734400 -4.018000 -15.483300
42
Fragment
H -14.193200 -9.199100 -10.759600
H -13.291700 -10.526100 -11.503100
C -13.209900 -9.564500 -11.016700
H -12.621000 -9.666100 -10.112200
O -12.545100 -10.233600 -13.578000
N -12.526800 -8.648100 -11.959600
O -12.511600 -7.113100 -10.339900
H -12.452400 -4.995200 -10.234700
H -12.265300 -5.886000 -8.721400
C -12.226200 -9.097500 -13.247100
C -12.163800 -7.392600 -11.580300
C -12.010000 -5.865400 -9.772500
N -11.564600 -6.505500 -12.317800
C -11.526100 -8.162200 -14.097200
C -11.220300 -6.860000 -13.581900
N -11.216700 -8.638100 -15.324200
H -10.932700 -5.822500 -9.876000
N -10.605300 -5.948300 -14.301100
O -10.605000 -7.866300 -16.119900
H -10.416800 -4.946900 -13.838700
H -10.255600 -6.236100 -15.264600
H -8.671900 -6.981100 -10.978200
H -8.510800 -8.270300 -12.404100
O -8.322600 -5.350900 -10.122900
N -8.322200 -7.268900 -11.941700
H -7.994800 -7.394600 -16.366800
N -7.710900 -4.579000 -10.918600
C -7.707200 -6.357200 -12.660900
C -7.401400 -5.055000 -12.145600
N -7.363000 -6.711600 -13.925000
C -6.917600 -7.351800 -16.470300
C -6.763700 -5.824500 -14.662500
C -6.701400 -4.119600 -12.995700
H -6.662300 -7.331100 -17.521500
H -6.475200 -8.222000 -16.008100
O -6.415900 -6.104100 -15.902900
N -6.400800 -4.569100 -14.283300
O -6.382500 -2.983600 -12.664800
H -6.306600 -3.551000 -16.130600
C -5.717700 -3.652700 -15.226100
H -5.635800 -2.691000 -14.739700
H -4.734400 -4.018000 -15.483300
