26
Fragment
H -8.876900 -2.331600 -27.247600
O -8.608700 -2.390000 -29.772100
H -8.577100 -2.790900 -30.509100
C -7.930300 -2.395100 -27.529200
H -7.876800 -7.695000 -22.457000
C -7.857200 -3.021100 -28.896900
N -7.762200 -6.286200 -23.797500
N -7.675500 -4.133100 -25.741600
H -7.561100 -1.477500 -27.568900
N -7.348200 -7.183900 -22.858000
O -7.184800 -4.000300 -29.142300
C -7.171100 -3.187200 -26.524200
C -6.628800 -5.665900 -24.096900
C -6.577800 -4.587300 -25.071700
C -6.035500 -7.066000 -22.644500
O -6.021800 -6.252900 -20.026400
N -5.858400 -3.069300 -26.310600
H -5.645500 -8.775700 -21.599800
N -5.531100 -6.120100 -23.427100
N -5.444400 -3.967000 -25.371200
C -5.349400 -7.232100 -20.271700
H -5.329800 -2.558200 -26.711700
C -5.276300 -7.858100 -21.639400
H -4.629500 -7.462300 -18.659500
O -4.597900 -7.863200 -19.396500
H -4.329700 -7.921600 -21.921000
26
Fragment
H -14.548400 -10.484900 -35.442400
O -14.280300 -10.426500 -37.966900
H -14.248700 -10.025600 -38.703900
C -13.601800 -10.421400 -35.724000
H -13.548300 -5.121500 -30.651700
C -13.528800 -9.795400 -37.091700
N -13.433700 -6.530300 -31.992200
N -13.347000 -8.683400 -33.936400
H -13.232700 -11.339000 -35.763600
N -13.019800 -5.632600 -31.052800
O -12.856400 -8.816200 -37.337000
C -12.842700 -9.629300 -34.719000
C -12.300400 -7.150600 -32.291700
C -12.249300 -8.229200 -33.266500
C -11.707000 -5.750500 -30.839200
O -11.693300 -6.563600 -28.221200
N -11.529900 -9.747200 -34.505400
H -11.317000 -4.040800 -29.794600
N -11.202700 -6.696400 -31.621800
N -11.116000 -8.849500 -33.566000
C -11.020900 -5.584400 -28.466500
H -11.001400 -10.258300 -34.906500
C -10.947900 -4.958400 -29.834200
H -10.301000 -5.354200 -26.854300
O -10.269400 -4.953300 -27.591300
H -10.001300 -4.894900 -30.115800
52
Fragment
H -8.876900 -2.331600 -27.247600
O -8.608700 -2.390000 -29.772100
H -8.577100 -2.790900 -30.509100
C -7.930300 -2.395100 -27.529200
H -7.876800 -7.695000 -22.457000
C -7.857200 -3.021100 -28.896900
N -7.762200 -6.286200 -23.797500
N -7.675500 -4.133100 -25.741600
H -7.561100 -1.477500 -27.568900
N -7.348200 -7.183900 -22.858000
O -7.184800 -4.000300 -29.142300
C -7.171100 -3.187200 -26.524200
C -6.628800 -5.665900 -24.096900
C -6.577800 -4.587300 -25.071700
C -6.035500 -7.066000 -22.644500
O -6.021800 -6.252900 -20.026400
N -5.858400 -3.069300 -26.310600
H -5.645500 -8.775700 -21.599800
N -5.531100 -6.120100 -23.427100
N -5.444400 -3.967000 -25.371200
C -5.349400 -7.232100 -20.271700
H -5.329800 -2.558200 -26.711700
C -5.276300 -7.858100 -21.639400
H -4.629500 -7.462300 -18.659500
O -4.597900 -7.863200 -19.396500
H -4.329700 -7.921600 -21.921000
H -14.548400 -10.484900 -35.442400
O -14.280300 -10.426500 -37.966900
H -14.248700 -10.025600 -38.703900
C -13.601800 -10.421400 -35.724000
H -13.548300 -5.121500 -30.651700
C -13.528800 -9.795400 -37.091700
N -13.433700 -6.530300 -31.992200
N -13.347000 -8.683400 -33.936400
H -13.232700 -11.339000 -35.763600
N -13.019800 -5.632600 -31.052800
O -12.856400 -8.816200 -37.337000
C -12.842700 -9.629300 -34.719000
C -12.300400 -7.150600 -32.291700
C -12.249300 -8.229200 -33.266500
C -11.707000 -5.750500 -30.839200
O -11.693300 -6.563600 -28.221200
N -11.529900 -9.747200 -34.505400
H -11.317000 -4.040800 -29.794600
N -11.202700 -6.696400 -31.621800
N -11.116000 -8.849500 -33.566000
C -11.020900 -5.584400 -28.466500
H -11.001400 -10.258300 -34.906500
C -10.947900 -4.958400 -29.834200
H -10.301000 -5.354200 -26.854300
O -10.269400 -4.953300 -27.591300
H -10.001300 -4.894900 -30.115800
