32
Fragment
O -22.419600 -16.508300 -11.883500
O -22.351600 -18.673000 -11.661200
N -21.859800 -17.564000 -11.708400
O -21.125500 -17.438700 -9.213400
C -20.351900 -17.460500 -11.438100
N -20.236600 -17.065100 -9.946300
N -19.970000 -15.278000 -12.547400
O -19.874800 -19.370500 -12.663800
N -19.756000 -18.859800 -11.569800
C -19.589100 -16.524700 -12.309500
O -19.243600 -16.438100 -9.649500
O -19.204400 -19.327800 -10.596000
N -18.944700 -14.806500 -13.280700
H -18.914000 -13.963600 -13.590900
N -18.392900 -16.885000 -12.824300
C -18.025100 -15.762500 -13.440900
C -16.795500 -15.569500 -14.194200
N -16.427600 -14.447000 -14.810700
H -15.906600 -17.368400 -14.044100
N -15.875800 -16.525500 -14.354300
O -15.616100 -12.004200 -17.039100
O -15.576900 -14.893900 -17.985600
C -15.231400 -14.807300 -15.325600
N -15.064500 -12.472200 -16.065200
O -14.945700 -11.961500 -14.971300
N -14.850500 -16.054000 -15.087600
N -14.584000 -14.266900 -17.688800
C -14.468600 -13.871500 -16.196900
O -13.695000 -13.893300 -18.421700
N -12.960700 -13.768000 -15.926600
O -12.468900 -12.659000 -15.973900
O -12.401000 -14.823700 -15.751600
32
Fragment
O -22.595400 -14.823700 -4.974700
O -22.527400 -12.659000 -4.752400
N -22.035600 -13.768000 -4.799700
O -21.301400 -13.893300 -2.304600
C -20.527800 -13.871500 -4.529400
N -20.412400 -14.266900 -3.037500
N -20.145800 -16.054000 -5.638700
O -20.050600 -11.961500 -5.755000
N -19.931900 -12.472200 -4.661100
C -19.764900 -14.807300 -5.400700
O -19.419500 -14.893900 -2.740700
O -19.380200 -12.004200 -3.687200
N -19.120500 -16.525500 -6.372000
H -19.089800 -17.368400 -6.682200
N -18.568800 -14.447000 -5.915600
C -18.200900 -15.569500 -6.532100
C -16.971300 -15.762500 -7.285400
N -16.603500 -16.885000 -7.902000
H -16.082400 -13.963600 -7.135400
N -16.051700 -14.806500 -7.445600
O -15.792000 -19.327800 -10.130300
O -15.752700 -16.438100 -11.076800
C -15.407300 -16.524700 -8.416800
N -15.240300 -18.859800 -9.156500
O -15.121600 -19.370500 -8.062500
N -15.026400 -15.278000 -8.178900
N -14.759800 -17.065100 -10.780000
C -14.644400 -17.460500 -9.288100
O -13.870800 -17.438700 -11.512900
N -13.136600 -17.564000 -9.017900
O -12.644800 -18.673000 -9.065100
O -12.576800 -16.508300 -8.842800
64
Fragment
O -22.419600 -16.508300 -11.883500
O -22.351600 -18.673000 -11.661200
N -21.859800 -17.564000 -11.708400
O -21.125500 -17.438700 -9.213400
C -20.351900 -17.460500 -11.438100
N -20.236600 -17.065100 -9.946300
N -19.970000 -15.278000 -12.547400
O -19.874800 -19.370500 -12.663800
N -19.756000 -18.859800 -11.569800
C -19.589100 -16.524700 -12.309500
O -19.243600 -16.438100 -9.649500
O -19.204400 -19.327800 -10.596000
N -18.944700 -14.806500 -13.280700
H -18.914000 -13.963600 -13.590900
N -18.392900 -16.885000 -12.824300
C -18.025100 -15.762500 -13.440900
C -16.795500 -15.569500 -14.194200
N -16.427600 -14.447000 -14.810700
H -15.906600 -17.368400 -14.044100
N -15.875800 -16.525500 -14.354300
O -15.616100 -12.004200 -17.039100
O -15.576900 -14.893900 -17.985600
C -15.231400 -14.807300 -15.325600
N -15.064500 -12.472200 -16.065200
O -14.945700 -11.961500 -14.971300
N -14.850500 -16.054000 -15.087600
N -14.584000 -14.266900 -17.688800
C -14.468600 -13.871500 -16.196900
O -13.695000 -13.893300 -18.421700
N -12.960700 -13.768000 -15.926600
O -12.468900 -12.659000 -15.973900
O -12.401000 -14.823700 -15.751600
O -22.595400 -14.823700 -4.974700
O -22.527400 -12.659000 -4.752400
N -22.035600 -13.768000 -4.799700
O -21.301400 -13.893300 -2.304600
C -20.527800 -13.871500 -4.529400
N -20.412400 -14.266900 -3.037500
N -20.145800 -16.054000 -5.638700
O -20.050600 -11.961500 -5.755000
N -19.931900 -12.472200 -4.661100
C -19.764900 -14.807300 -5.400700
O -19.419500 -14.893900 -2.740700
O -19.380200 -12.004200 -3.687200
N -19.120500 -16.525500 -6.372000
H -19.089800 -17.368400 -6.682200
N -18.568800 -14.447000 -5.915600
C -18.200900 -15.569500 -6.532100
C -16.971300 -15.762500 -7.285400
N -16.603500 -16.885000 -7.902000
H -16.082400 -13.963600 -7.135400
N -16.051700 -14.806500 -7.445600
O -15.792000 -19.327800 -10.130300
O -15.752700 -16.438100 -11.076800
C -15.407300 -16.524700 -8.416800
N -15.240300 -18.859800 -9.156500
O -15.121600 -19.370500 -8.062500
N -15.026400 -15.278000 -8.178900
N -14.759800 -17.065100 -10.780000
C -14.644400 -17.460500 -9.288100
O -13.870800 -17.438700 -11.512900
N -13.136600 -17.564000 -9.017900
O -12.644800 -18.673000 -9.065100
O -12.576800 -16.508300 -8.842800
