26
Fragment
H -8.876900 -2.331600 -27.247600
O -8.608700 -2.390000 -29.772100
H -8.577100 -2.790900 -30.509100
C -7.930300 -2.395100 -27.529200
H -7.876800 -7.695000 -22.457000
C -7.857200 -3.021100 -28.896900
N -7.762200 -6.286200 -23.797500
N -7.675500 -4.133100 -25.741600
H -7.561100 -1.477500 -27.568900
N -7.348200 -7.183900 -22.858000
O -7.184800 -4.000300 -29.142300
C -7.171100 -3.187200 -26.524200
C -6.628800 -5.665900 -24.096900
C -6.577800 -4.587300 -25.071700
C -6.035500 -7.066000 -22.644500
O -6.021800 -6.252900 -20.026400
N -5.858400 -3.069300 -26.310600
H -5.645500 -8.775700 -21.599800
N -5.531100 -6.120100 -23.427100
N -5.444400 -3.967000 -25.371200
C -5.349400 -7.232100 -20.271700
H -5.329800 -2.558200 -26.711700
C -5.276300 -7.858100 -21.639400
H -4.629500 -7.462300 -18.659500
O -4.597900 -7.863200 -19.396500
H -4.329700 -7.921600 -21.921000
26
Fragment
H -8.876900 -7.458200 -27.247600
O -8.608700 -7.516600 -29.772100
H -8.577100 -7.917500 -30.509100
C -7.930300 -7.521700 -27.529200
H -7.876800 -12.821600 -22.457000
C -7.857200 -8.147700 -28.896900
N -7.762200 -11.412800 -23.797500
N -7.675500 -9.259700 -25.741600
H -7.561100 -6.604100 -27.568900
N -7.348200 -12.310500 -22.858000
O -7.184800 -9.126900 -29.142300
C -7.171100 -8.313800 -26.524200
C -6.628800 -10.792500 -24.096900
C -6.577800 -9.713900 -25.071700
C -6.035500 -12.192600 -22.644500
O -6.021800 -11.379500 -20.026400
N -5.858400 -8.195900 -26.310600
H -5.645500 -13.902300 -21.599800
N -5.531100 -11.246700 -23.427100
N -5.444400 -9.093600 -25.371200
C -5.349400 -12.358700 -20.271700
H -5.329800 -7.684800 -26.711700
C -5.276300 -12.984700 -21.639400
H -4.629500 -12.588900 -18.659500
O -4.597900 -12.989800 -19.396500
H -4.329700 -13.048200 -21.921000
52
Fragment
H -8.876900 -2.331600 -27.247600
O -8.608700 -2.390000 -29.772100
H -8.577100 -2.790900 -30.509100
C -7.930300 -2.395100 -27.529200
H -7.876800 -7.695000 -22.457000
C -7.857200 -3.021100 -28.896900
N -7.762200 -6.286200 -23.797500
N -7.675500 -4.133100 -25.741600
H -7.561100 -1.477500 -27.568900
N -7.348200 -7.183900 -22.858000
O -7.184800 -4.000300 -29.142300
C -7.171100 -3.187200 -26.524200
C -6.628800 -5.665900 -24.096900
C -6.577800 -4.587300 -25.071700
C -6.035500 -7.066000 -22.644500
O -6.021800 -6.252900 -20.026400
N -5.858400 -3.069300 -26.310600
H -5.645500 -8.775700 -21.599800
N -5.531100 -6.120100 -23.427100
N -5.444400 -3.967000 -25.371200
C -5.349400 -7.232100 -20.271700
H -5.329800 -2.558200 -26.711700
C -5.276300 -7.858100 -21.639400
H -4.629500 -7.462300 -18.659500
O -4.597900 -7.863200 -19.396500
H -4.329700 -7.921600 -21.921000
H -8.876900 -7.458200 -27.247600
O -8.608700 -7.516600 -29.772100
H -8.577100 -7.917500 -30.509100
C -7.930300 -7.521700 -27.529200
H -7.876800 -12.821600 -22.457000
C -7.857200 -8.147700 -28.896900
N -7.762200 -11.412800 -23.797500
N -7.675500 -9.259700 -25.741600
H -7.561100 -6.604100 -27.568900
N -7.348200 -12.310500 -22.858000
O -7.184800 -9.126900 -29.142300
C -7.171100 -8.313800 -26.524200
C -6.628800 -10.792500 -24.096900
C -6.577800 -9.713900 -25.071700
C -6.035500 -12.192600 -22.644500
O -6.021800 -11.379500 -20.026400
N -5.858400 -8.195900 -26.310600
H -5.645500 -13.902300 -21.599800
N -5.531100 -11.246700 -23.427100
N -5.444400 -9.093600 -25.371200
C -5.349400 -12.358700 -20.271700
H -5.329800 -7.684800 -26.711700
C -5.276300 -12.984700 -21.639400
H -4.629500 -12.588900 -18.659500
O -4.597900 -12.989800 -19.396500
H -4.329700 -13.048200 -21.921000
