32
Fragment
O -22.419600 -16.508300 -11.883500
O -22.351600 -18.673000 -11.661200
N -21.859800 -17.564000 -11.708400
O -21.125500 -17.438700 -9.213400
C -20.351900 -17.460500 -11.438100
N -20.236600 -17.065100 -9.946300
N -19.970000 -15.278000 -12.547400
O -19.874800 -19.370500 -12.663800
N -19.756000 -18.859800 -11.569800
C -19.589100 -16.524700 -12.309500
O -19.243600 -16.438100 -9.649500
O -19.204400 -19.327800 -10.596000
N -18.944700 -14.806500 -13.280700
H -18.914000 -13.963600 -13.590900
N -18.392900 -16.885000 -12.824300
C -18.025100 -15.762500 -13.440900
C -16.795500 -15.569500 -14.194200
N -16.427600 -14.447000 -14.810700
H -15.906600 -17.368400 -14.044100
N -15.875800 -16.525500 -14.354300
O -15.616100 -12.004200 -17.039100
O -15.576900 -14.893900 -17.985600
C -15.231400 -14.807300 -15.325600
N -15.064500 -12.472200 -16.065200
O -14.945700 -11.961500 -14.971300
N -14.850500 -16.054000 -15.087600
N -14.584000 -14.266900 -17.688800
C -14.468600 -13.871500 -16.196900
O -13.695000 -13.893300 -18.421700
N -12.960700 -13.768000 -15.926600
O -12.468900 -12.659000 -15.973900
O -12.401000 -14.823700 -15.751600
32
Fragment
O -16.323100 -9.601700 -18.792200
O -16.255100 -7.437000 -18.569900
N -15.763300 -8.546000 -18.617200
O -15.029100 -8.671300 -16.122200
C -14.255400 -8.649500 -18.346900
N -14.140100 -9.044900 -16.855000
N -13.873500 -10.832000 -19.456200
O -13.778300 -6.739500 -19.572500
N -13.659500 -7.250200 -18.478600
C -13.492600 -9.585300 -19.218200
O -13.147100 -9.671900 -16.558200
O -13.107900 -6.782200 -17.504700
N -12.848200 -11.303500 -20.189500
H -12.817500 -12.146400 -20.499700
N -12.296400 -9.225000 -19.733100
C -11.928600 -10.347500 -20.349600
C -10.699000 -10.540500 -21.103000
N -10.331100 -11.663000 -21.719500
H -9.810100 -8.741600 -20.952900
N -9.779300 -9.584500 -21.263100
O -9.519600 -14.105800 -23.947800
O -9.480400 -11.216100 -24.894300
C -9.134900 -11.302700 -22.234300
N -8.968000 -13.637800 -22.974000
O -8.849200 -14.148500 -21.880100
N -8.754000 -10.056000 -21.996400
N -8.487500 -11.843100 -24.597500
C -8.372100 -12.238500 -23.105700
O -7.598500 -12.216700 -25.330400
N -6.864200 -12.342000 -22.835400
O -6.372500 -13.451000 -22.882700
O -6.304500 -11.286300 -22.660300
64
Fragment
O -22.419600 -16.508300 -11.883500
O -22.351600 -18.673000 -11.661200
N -21.859800 -17.564000 -11.708400
O -21.125500 -17.438700 -9.213400
C -20.351900 -17.460500 -11.438100
N -20.236600 -17.065100 -9.946300
N -19.970000 -15.278000 -12.547400
O -19.874800 -19.370500 -12.663800
N -19.756000 -18.859800 -11.569800
C -19.589100 -16.524700 -12.309500
O -19.243600 -16.438100 -9.649500
O -19.204400 -19.327800 -10.596000
N -18.944700 -14.806500 -13.280700
H -18.914000 -13.963600 -13.590900
N -18.392900 -16.885000 -12.824300
C -18.025100 -15.762500 -13.440900
C -16.795500 -15.569500 -14.194200
N -16.427600 -14.447000 -14.810700
H -15.906600 -17.368400 -14.044100
N -15.875800 -16.525500 -14.354300
O -15.616100 -12.004200 -17.039100
O -15.576900 -14.893900 -17.985600
C -15.231400 -14.807300 -15.325600
N -15.064500 -12.472200 -16.065200
O -14.945700 -11.961500 -14.971300
N -14.850500 -16.054000 -15.087600
N -14.584000 -14.266900 -17.688800
C -14.468600 -13.871500 -16.196900
O -13.695000 -13.893300 -18.421700
N -12.960700 -13.768000 -15.926600
O -12.468900 -12.659000 -15.973900
O -12.401000 -14.823700 -15.751600
O -16.323100 -9.601700 -18.792200
O -16.255100 -7.437000 -18.569900
N -15.763300 -8.546000 -18.617200
O -15.029100 -8.671300 -16.122200
C -14.255400 -8.649500 -18.346900
N -14.140100 -9.044900 -16.855000
N -13.873500 -10.832000 -19.456200
O -13.778300 -6.739500 -19.572500
N -13.659500 -7.250200 -18.478600
C -13.492600 -9.585300 -19.218200
O -13.147100 -9.671900 -16.558200
O -13.107900 -6.782200 -17.504700
N -12.848200 -11.303500 -20.189500
H -12.817500 -12.146400 -20.499700
N -12.296400 -9.225000 -19.733100
C -11.928600 -10.347500 -20.349600
C -10.699000 -10.540500 -21.103000
N -10.331100 -11.663000 -21.719500
H -9.810100 -8.741600 -20.952900
N -9.779300 -9.584500 -21.263100
O -9.519600 -14.105800 -23.947800
O -9.480400 -11.216100 -24.894300
C -9.134900 -11.302700 -22.234300
N -8.968000 -13.637800 -22.974000
O -8.849200 -14.148500 -21.880100
N -8.754000 -10.056000 -21.996400
N -8.487500 -11.843100 -24.597500
C -8.372100 -12.238500 -23.105700
O -7.598500 -12.216700 -25.330400
N -6.864200 -12.342000 -22.835400
O -6.372500 -13.451000 -22.882700
O -6.304500 -11.286300 -22.660300
