32
Fragment
O -22.419600 -16.508300 -11.883500
O -22.351600 -18.673000 -11.661200
N -21.859800 -17.564000 -11.708400
O -21.125500 -17.438700 -9.213400
C -20.351900 -17.460500 -11.438100
N -20.236600 -17.065100 -9.946300
N -19.970000 -15.278000 -12.547400
O -19.874800 -19.370500 -12.663800
N -19.756000 -18.859800 -11.569800
C -19.589100 -16.524700 -12.309500
O -19.243600 -16.438100 -9.649500
O -19.204400 -19.327800 -10.596000
N -18.944700 -14.806500 -13.280700
H -18.914000 -13.963600 -13.590900
N -18.392900 -16.885000 -12.824300
C -18.025100 -15.762500 -13.440900
C -16.795500 -15.569500 -14.194200
N -16.427600 -14.447000 -14.810700
H -15.906600 -17.368400 -14.044100
N -15.875800 -16.525500 -14.354300
O -15.616100 -12.004200 -17.039100
O -15.576900 -14.893900 -17.985600
C -15.231400 -14.807300 -15.325600
N -15.064500 -12.472200 -16.065200
O -14.945700 -11.961500 -14.971300
N -14.850500 -16.054000 -15.087600
N -14.584000 -14.266900 -17.688800
C -14.468600 -13.871500 -16.196900
O -13.695000 -13.893300 -18.421700
N -12.960700 -13.768000 -15.926600
O -12.468900 -12.659000 -15.973900
O -12.401000 -14.823700 -15.751600
32
Fragment
O -28.516100 -20.045700 -4.974700
O -28.448100 -17.881000 -4.752400
N -27.956300 -18.990000 -4.799700
O -27.222000 -19.115300 -2.304600
C -26.448400 -19.093500 -4.529400
N -26.333100 -19.488900 -3.037500
N -26.066500 -21.276000 -5.638700
O -25.971300 -17.183500 -5.755000
N -25.852500 -17.694200 -4.661100
C -25.685600 -20.029300 -5.400700
O -25.340100 -20.115900 -2.740700
O -25.300900 -17.226200 -3.687200
N -25.041200 -21.747500 -6.372000
H -25.010400 -22.590400 -6.682200
N -24.489400 -19.669000 -5.915600
C -24.121600 -20.791500 -6.532100
C -22.892000 -20.984500 -7.285400
N -22.524100 -22.107000 -7.902000
H -22.003100 -19.185600 -7.135400
N -21.972300 -20.028500 -7.445600
O -21.712600 -24.549800 -10.130300
O -21.673400 -21.660100 -11.076800
C -21.327900 -21.746700 -8.416800
N -21.161000 -24.081800 -9.156500
O -21.042200 -24.592500 -8.062500
N -20.947000 -20.500000 -8.178900
N -20.680500 -22.287100 -10.780000
C -20.565100 -22.682500 -9.288100
O -19.791500 -22.660700 -11.512900
N -19.057200 -22.786000 -9.017900
O -18.565400 -23.895000 -9.065100
O -18.497400 -21.730300 -8.842800
64
Fragment
O -22.419600 -16.508300 -11.883500
O -22.351600 -18.673000 -11.661200
N -21.859800 -17.564000 -11.708400
O -21.125500 -17.438700 -9.213400
C -20.351900 -17.460500 -11.438100
N -20.236600 -17.065100 -9.946300
N -19.970000 -15.278000 -12.547400
O -19.874800 -19.370500 -12.663800
N -19.756000 -18.859800 -11.569800
C -19.589100 -16.524700 -12.309500
O -19.243600 -16.438100 -9.649500
O -19.204400 -19.327800 -10.596000
N -18.944700 -14.806500 -13.280700
H -18.914000 -13.963600 -13.590900
N -18.392900 -16.885000 -12.824300
C -18.025100 -15.762500 -13.440900
C -16.795500 -15.569500 -14.194200
N -16.427600 -14.447000 -14.810700
H -15.906600 -17.368400 -14.044100
N -15.875800 -16.525500 -14.354300
O -15.616100 -12.004200 -17.039100
O -15.576900 -14.893900 -17.985600
C -15.231400 -14.807300 -15.325600
N -15.064500 -12.472200 -16.065200
O -14.945700 -11.961500 -14.971300
N -14.850500 -16.054000 -15.087600
N -14.584000 -14.266900 -17.688800
C -14.468600 -13.871500 -16.196900
O -13.695000 -13.893300 -18.421700
N -12.960700 -13.768000 -15.926600
O -12.468900 -12.659000 -15.973900
O -12.401000 -14.823700 -15.751600
O -28.516100 -20.045700 -4.974700
O -28.448100 -17.881000 -4.752400
N -27.956300 -18.990000 -4.799700
O -27.222000 -19.115300 -2.304600
C -26.448400 -19.093500 -4.529400
N -26.333100 -19.488900 -3.037500
N -26.066500 -21.276000 -5.638700
O -25.971300 -17.183500 -5.755000
N -25.852500 -17.694200 -4.661100
C -25.685600 -20.029300 -5.400700
O -25.340100 -20.115900 -2.740700
O -25.300900 -17.226200 -3.687200
N -25.041200 -21.747500 -6.372000
H -25.010400 -22.590400 -6.682200
N -24.489400 -19.669000 -5.915600
C -24.121600 -20.791500 -6.532100
C -22.892000 -20.984500 -7.285400
N -22.524100 -22.107000 -7.902000
H -22.003100 -19.185600 -7.135400
N -21.972300 -20.028500 -7.445600
O -21.712600 -24.549800 -10.130300
O -21.673400 -21.660100 -11.076800
C -21.327900 -21.746700 -8.416800
N -21.161000 -24.081800 -9.156500
O -21.042200 -24.592500 -8.062500
N -20.947000 -20.500000 -8.178900
N -20.680500 -22.287100 -10.780000
C -20.565100 -22.682500 -9.288100
O -19.791500 -22.660700 -11.512900
N -19.057200 -22.786000 -9.017900
O -18.565400 -23.895000 -9.065100
O -18.497400 -21.730300 -8.842800
