21
Fragment
H -12.272600 -18.893600 -17.761400
H -11.647400 -20.188600 -18.463700
C -11.517500 -19.518400 -17.760700
H -11.463500 -19.964600 -16.889900
O -10.916400 -17.049600 -16.675700
N -10.272900 -18.781700 -18.011000
C -10.061500 -17.580200 -17.384500
N -9.348800 -20.474700 -19.504100
C -9.286800 -19.304100 -18.812000
H -9.037900 -14.962900 -17.263600
H -8.972900 -15.821400 -15.914600
N -8.837000 -16.948100 -17.587500
C -8.601900 -15.717700 -16.815800
C -8.182200 -20.494500 -20.155100
C -8.114200 -18.633400 -19.033800
H -7.924600 -21.202600 -20.733700
C -7.811900 -17.387600 -18.430800
H -7.638400 -15.549300 -16.755000
N -7.406900 -19.425200 -19.918800
O -6.791900 -16.716700 -18.585100
H -6.545800 -19.276500 -20.340000
21
Fragment
H -12.393100 -16.354800 -19.547600
O -12.147000 -18.914600 -21.302500
N -11.532000 -16.206100 -19.968800
H -11.300400 -20.082000 -23.132500
C -11.127000 -18.243700 -21.456700
H -11.014200 -14.428700 -19.153900
C -10.824600 -16.997900 -20.853800
C -10.756700 -15.136800 -19.732500
C -10.336900 -19.913600 -23.071800
N -10.101900 -18.683200 -22.300100
H -9.966000 -19.809900 -23.973000
H -9.900900 -20.668400 -22.624000
C -9.652100 -16.327200 -21.075500
N -9.590100 -15.156600 -20.383500
C -8.877300 -18.051100 -22.503100
N -8.666000 -16.849600 -21.876600
O -8.022500 -18.581700 -23.211900
H -7.475400 -15.666700 -22.997700
C -7.421400 -16.112900 -22.126800
H -7.291400 -15.442700 -21.423900
H -6.666300 -16.737700 -22.126200
42
Fragment
H -12.272600 -18.893600 -17.761400
H -11.647400 -20.188600 -18.463700
C -11.517500 -19.518400 -17.760700
H -11.463500 -19.964600 -16.889900
O -10.916400 -17.049600 -16.675700
N -10.272900 -18.781700 -18.011000
C -10.061500 -17.580200 -17.384500
N -9.348800 -20.474700 -19.504100
C -9.286800 -19.304100 -18.812000
H -9.037900 -14.962900 -17.263600
H -8.972900 -15.821400 -15.914600
N -8.837000 -16.948100 -17.587500
C -8.601900 -15.717700 -16.815800
C -8.182200 -20.494500 -20.155100
C -8.114200 -18.633400 -19.033800
H -7.924600 -21.202600 -20.733700
C -7.811900 -17.387600 -18.430800
H -7.638400 -15.549300 -16.755000
N -7.406900 -19.425200 -19.918800
O -6.791900 -16.716700 -18.585100
H -6.545800 -19.276500 -20.340000
H -12.393100 -16.354800 -19.547600
O -12.147000 -18.914600 -21.302500
N -11.532000 -16.206100 -19.968800
H -11.300400 -20.082000 -23.132500
C -11.127000 -18.243700 -21.456700
H -11.014200 -14.428700 -19.153900
C -10.824600 -16.997900 -20.853800
C -10.756700 -15.136800 -19.732500
C -10.336900 -19.913600 -23.071800
N -10.101900 -18.683200 -22.300100
H -9.966000 -19.809900 -23.973000
H -9.900900 -20.668400 -22.624000
C -9.652100 -16.327200 -21.075500
N -9.590100 -15.156600 -20.383500
C -8.877300 -18.051100 -22.503100
N -8.666000 -16.849600 -21.876600
O -8.022500 -18.581700 -23.211900
H -7.475400 -15.666700 -22.997700
C -7.421400 -16.112900 -22.126800
H -7.291400 -15.442700 -21.423900
H -6.666300 -16.737700 -22.126200
