21
Fragment
H -12.272600 -18.893600 -17.761400
H -11.647400 -20.188600 -18.463700
C -11.517500 -19.518400 -17.760700
H -11.463500 -19.964600 -16.889900
O -10.916400 -17.049600 -16.675700
N -10.272900 -18.781700 -18.011000
C -10.061500 -17.580200 -17.384500
N -9.348800 -20.474700 -19.504100
C -9.286800 -19.304100 -18.812000
H -9.037900 -14.962900 -17.263600
H -8.972900 -15.821400 -15.914600
N -8.837000 -16.948100 -17.587500
C -8.601900 -15.717700 -16.815800
C -8.182200 -20.494500 -20.155100
C -8.114200 -18.633400 -19.033800
H -7.924600 -21.202600 -20.733700
C -7.811900 -17.387600 -18.430800
H -7.638400 -15.549300 -16.755000
N -7.406900 -19.425200 -19.918800
O -6.791900 -16.716700 -18.585100
H -6.545800 -19.276500 -20.340000
21
Fragment
H -19.348000 -18.893600 -17.761400
H -18.722800 -20.188600 -18.463700
C -18.592900 -19.518400 -17.760700
H -18.538900 -19.964600 -16.889900
O -17.991800 -17.049600 -16.675700
N -17.348300 -18.781700 -18.011000
C -17.136900 -17.580200 -17.384500
N -16.424200 -20.474700 -19.504100
C -16.362200 -19.304100 -18.812000
H -16.113300 -14.962900 -17.263600
H -16.048300 -15.821400 -15.914600
N -15.912400 -16.948100 -17.587500
C -15.677300 -15.717700 -16.815800
C -15.257600 -20.494500 -20.155100
C -15.189600 -18.633400 -19.033800
H -15.000000 -21.202600 -20.733700
C -14.887300 -17.387600 -18.430800
H -14.713800 -15.549300 -16.755000
N -14.482300 -19.425200 -19.918800
O -13.867300 -16.716700 -18.585100
H -13.621200 -19.276500 -20.340000
42
Fragment
H -12.272600 -18.893600 -17.761400
H -11.647400 -20.188600 -18.463700
C -11.517500 -19.518400 -17.760700
H -11.463500 -19.964600 -16.889900
O -10.916400 -17.049600 -16.675700
N -10.272900 -18.781700 -18.011000
C -10.061500 -17.580200 -17.384500
N -9.348800 -20.474700 -19.504100
C -9.286800 -19.304100 -18.812000
H -9.037900 -14.962900 -17.263600
H -8.972900 -15.821400 -15.914600
N -8.837000 -16.948100 -17.587500
C -8.601900 -15.717700 -16.815800
C -8.182200 -20.494500 -20.155100
C -8.114200 -18.633400 -19.033800
H -7.924600 -21.202600 -20.733700
C -7.811900 -17.387600 -18.430800
H -7.638400 -15.549300 -16.755000
N -7.406900 -19.425200 -19.918800
O -6.791900 -16.716700 -18.585100
H -6.545800 -19.276500 -20.340000
H -19.348000 -18.893600 -17.761400
H -18.722800 -20.188600 -18.463700
C -18.592900 -19.518400 -17.760700
H -18.538900 -19.964600 -16.889900
O -17.991800 -17.049600 -16.675700
N -17.348300 -18.781700 -18.011000
C -17.136900 -17.580200 -17.384500
N -16.424200 -20.474700 -19.504100
C -16.362200 -19.304100 -18.812000
H -16.113300 -14.962900 -17.263600
H -16.048300 -15.821400 -15.914600
N -15.912400 -16.948100 -17.587500
C -15.677300 -15.717700 -16.815800
C -15.257600 -20.494500 -20.155100
C -15.189600 -18.633400 -19.033800
H -15.000000 -21.202600 -20.733700
C -14.887300 -17.387600 -18.430800
H -14.713800 -15.549300 -16.755000
N -14.482300 -19.425200 -19.918800
O -13.867300 -16.716700 -18.585100
H -13.621200 -19.276500 -20.340000
