10
Fragment
O -7.967500 -12.358200 -8.849600
N -7.169000 -10.059300 -9.985100
N -6.952400 -11.846700 -8.394200
H -6.675200 -8.369600 -10.833800
C -6.491200 -10.607500 -8.994900
N -6.428300 -8.953800 -10.201100
O -6.292700 -12.301700 -7.465800
N -5.394100 -9.969000 -8.555600
C -5.387500 -8.909200 -9.361600
H -4.788900 -8.217100 -9.338800
10
Fragment
H -7.683100 -20.023200 -5.671700
C -7.084500 -19.331200 -5.648900
N -7.077900 -18.271400 -6.454900
O -6.179300 -15.938700 -7.544700
N -6.043700 -19.286500 -4.809400
C -5.980800 -17.632900 -6.015600
H -5.796800 -19.870700 -4.176700
N -5.519600 -16.393700 -6.616300
N -5.303000 -18.181100 -5.025400
O -4.504500 -15.882200 -6.160900
20
Fragment
O -7.967500 -12.358200 -8.849600
N -7.169000 -10.059300 -9.985100
N -6.952400 -11.846700 -8.394200
H -6.675200 -8.369600 -10.833800
C -6.491200 -10.607500 -8.994900
N -6.428300 -8.953800 -10.201100
O -6.292700 -12.301700 -7.465800
N -5.394100 -9.969000 -8.555600
C -5.387500 -8.909200 -9.361600
H -4.788900 -8.217100 -9.338800
H -7.683100 -20.023200 -5.671700
C -7.084500 -19.331200 -5.648900
N -7.077900 -18.271400 -6.454900
O -6.179300 -15.938700 -7.544700
N -6.043700 -19.286500 -4.809400
C -5.980800 -17.632900 -6.015600
H -5.796800 -19.870700 -4.176700
N -5.519600 -16.393700 -6.616300
N -5.303000 -18.181100 -5.025400
O -4.504500 -15.882200 -6.160900
