10
Fragment
O -7.967500 -12.358200 -8.849600
N -7.169000 -10.059300 -9.985100
N -6.952400 -11.846700 -8.394200
H -6.675200 -8.369600 -10.833800
C -6.491200 -10.607500 -8.994900
N -6.428300 -8.953800 -10.201100
O -6.292700 -12.301700 -7.465800
N -5.394100 -9.969000 -8.555600
C -5.387500 -8.909200 -9.361600
H -4.788900 -8.217100 -9.338800
10
Fragment
H -4.925200 -8.028500 -13.177000
C -4.326600 -7.336500 -13.154200
N -4.320000 -6.276700 -13.960100
O -3.421400 -3.944000 -15.050000
N -3.285800 -7.291800 -12.314700
C -3.222800 -5.638200 -13.520900
H -3.038800 -7.876000 -11.681900
N -2.761700 -4.399000 -14.121500
N -2.545100 -6.186300 -12.530600
O -1.746600 -3.887500 -13.666200
20
Fragment
O -7.967500 -12.358200 -8.849600
N -7.169000 -10.059300 -9.985100
N -6.952400 -11.846700 -8.394200
H -6.675200 -8.369600 -10.833800
C -6.491200 -10.607500 -8.994900
N -6.428300 -8.953800 -10.201100
O -6.292700 -12.301700 -7.465800
N -5.394100 -9.969000 -8.555600
C -5.387500 -8.909200 -9.361600
H -4.788900 -8.217100 -9.338800
H -4.925200 -8.028500 -13.177000
C -4.326600 -7.336500 -13.154200
N -4.320000 -6.276700 -13.960100
O -3.421400 -3.944000 -15.050000
N -3.285800 -7.291800 -12.314700
C -3.222800 -5.638200 -13.520900
H -3.038800 -7.876000 -11.681900
N -2.761700 -4.399000 -14.121500
N -2.545100 -6.186300 -12.530600
O -1.746600 -3.887500 -13.666200
