21
Fragment
H -12.272600 -18.893600 -17.761400
H -11.647400 -20.188600 -18.463700
C -11.517500 -19.518400 -17.760700
H -11.463500 -19.964600 -16.889900
O -10.916400 -17.049600 -16.675700
N -10.272900 -18.781700 -18.011000
C -10.061500 -17.580200 -17.384500
N -9.348800 -20.474700 -19.504100
C -9.286800 -19.304100 -18.812000
H -9.037900 -14.962900 -17.263600
H -8.972900 -15.821400 -15.914600
N -8.837000 -16.948100 -17.587500
C -8.601900 -15.717700 -16.815800
C -8.182200 -20.494500 -20.155100
C -8.114200 -18.633400 -19.033800
H -7.924600 -21.202600 -20.733700
C -7.811900 -17.387600 -18.430800
H -7.638400 -15.549300 -16.755000
N -7.406900 -19.425200 -19.918800
O -6.791900 -16.716700 -18.585100
H -6.545800 -19.276500 -20.340000
21
Fragment
H -16.191500 -22.676200 -11.113500
H -15.566300 -21.381300 -11.815800
C -15.436400 -22.051500 -11.112800
H -15.382400 -21.605300 -10.241900
O -14.835300 -24.520300 -10.027700
N -14.191800 -22.788100 -11.363000
C -13.980400 -23.989600 -10.736500
N -13.267700 -21.095200 -12.856200
C -13.205700 -22.265800 -12.164100
H -12.956800 -26.607000 -10.615700
H -12.891800 -25.748500 -9.266700
N -12.755900 -24.621700 -10.939600
C -12.520900 -25.852200 -10.167900
C -12.101100 -21.075300 -13.507100
C -12.033200 -22.936500 -12.385900
H -11.843600 -20.367200 -14.085800
C -11.730800 -24.182300 -11.782900
H -11.557300 -26.020600 -10.107100
N -11.325800 -22.144600 -13.270900
O -10.710800 -24.853200 -11.937200
H -10.464700 -22.293300 -13.692100
42
Fragment
H -12.272600 -18.893600 -17.761400
H -11.647400 -20.188600 -18.463700
C -11.517500 -19.518400 -17.760700
H -11.463500 -19.964600 -16.889900
O -10.916400 -17.049600 -16.675700
N -10.272900 -18.781700 -18.011000
C -10.061500 -17.580200 -17.384500
N -9.348800 -20.474700 -19.504100
C -9.286800 -19.304100 -18.812000
H -9.037900 -14.962900 -17.263600
H -8.972900 -15.821400 -15.914600
N -8.837000 -16.948100 -17.587500
C -8.601900 -15.717700 -16.815800
C -8.182200 -20.494500 -20.155100
C -8.114200 -18.633400 -19.033800
H -7.924600 -21.202600 -20.733700
C -7.811900 -17.387600 -18.430800
H -7.638400 -15.549300 -16.755000
N -7.406900 -19.425200 -19.918800
O -6.791900 -16.716700 -18.585100
H -6.545800 -19.276500 -20.340000
H -16.191500 -22.676200 -11.113500
H -15.566300 -21.381300 -11.815800
C -15.436400 -22.051500 -11.112800
H -15.382400 -21.605300 -10.241900
O -14.835300 -24.520300 -10.027700
N -14.191800 -22.788100 -11.363000
C -13.980400 -23.989600 -10.736500
N -13.267700 -21.095200 -12.856200
C -13.205700 -22.265800 -12.164100
H -12.956800 -26.607000 -10.615700
H -12.891800 -25.748500 -9.266700
N -12.755900 -24.621700 -10.939600
C -12.520900 -25.852200 -10.167900
C -12.101100 -21.075300 -13.507100
C -12.033200 -22.936500 -12.385900
H -11.843600 -20.367200 -14.085800
C -11.730800 -24.182300 -11.782900
H -11.557300 -26.020600 -10.107100
N -11.325800 -22.144600 -13.270900
O -10.710800 -24.853200 -11.937200
H -10.464700 -22.293300 -13.692100
