10
Fragment
O -7.967500 -12.358200 -8.849600
N -7.169000 -10.059300 -9.985100
N -6.952400 -11.846700 -8.394200
H -6.675200 -8.369600 -10.833800
C -6.491200 -10.607500 -8.994900
N -6.428300 -8.953800 -10.201100
O -6.292700 -12.301700 -7.465800
N -5.394100 -9.969000 -8.555600
C -5.387500 -8.909200 -9.361600
H -4.788900 -8.217100 -9.338800
42
Fragment
H -17.360700 -7.523400 -13.495200
H -16.807400 -5.481300 -12.281600
H -16.753900 -9.679100 -14.084400
H -16.745400 -9.661700 -12.483500
C -16.436900 -7.798600 -13.356900
C -16.300800 -9.296300 -13.304600
O -15.943600 -7.259700 -12.125400
H -15.929600 -5.749900 -10.072000
C -15.920700 -5.832300 -12.137000
H -15.900600 -7.420500 -14.093400
H -15.538100 -4.348500 -10.779000
C -15.409300 -5.329100 -10.813600
H -15.363000 -5.502600 -12.886500
H -15.107200 -11.334600 -12.325100
H -14.980400 -11.495300 -13.887000
O -14.909000 -9.601300 -13.307100
C -14.631300 -10.985400 -13.142900
O -14.022900 -5.618900 -10.676200
H -13.948600 -5.522200 -8.697100
H -13.744100 -4.107200 -9.395100
C -13.526200 -5.079200 -9.450000
C -13.138700 -11.166500 -13.065700
H -12.920800 -12.138400 -13.120700
H -12.716300 -10.723500 -13.818700
O -12.642000 -10.626700 -11.839500
C -12.033600 -5.260300 -9.372900
O -11.755900 -6.644300 -9.208600
H -11.684500 -4.750400 -8.628800
H -11.557700 -4.911000 -10.190600
H -11.301900 -10.743100 -9.629200
C -11.255600 -10.916500 -11.702100
H -11.126800 -11.897200 -11.736700
H -10.764300 -8.825100 -8.422400
C -10.744200 -10.413400 -10.378700
H -10.735300 -10.495700 -12.443700
O -10.721200 -8.986000 -10.390300
C -10.364100 -6.949400 -9.211200
C -10.228000 -8.447000 -9.158900
H -9.919500 -6.583900 -10.032300
H -9.910900 -6.566600 -8.431400
H -9.857400 -10.764300 -10.234200
H -9.304200 -8.722200 -9.020600
52
Fragment
O -7.967500 -12.358200 -8.849600
N -7.169000 -10.059300 -9.985100
N -6.952400 -11.846700 -8.394200
H -6.675200 -8.369600 -10.833800
C -6.491200 -10.607500 -8.994900
N -6.428300 -8.953800 -10.201100
O -6.292700 -12.301700 -7.465800
N -5.394100 -9.969000 -8.555600
C -5.387500 -8.909200 -9.361600
H -4.788900 -8.217100 -9.338800
H -17.360700 -7.523400 -13.495200
H -16.807400 -5.481300 -12.281600
H -16.753900 -9.679100 -14.084400
H -16.745400 -9.661700 -12.483500
C -16.436900 -7.798600 -13.356900
C -16.300800 -9.296300 -13.304600
O -15.943600 -7.259700 -12.125400
H -15.929600 -5.749900 -10.072000
C -15.920700 -5.832300 -12.137000
H -15.900600 -7.420500 -14.093400
H -15.538100 -4.348500 -10.779000
C -15.409300 -5.329100 -10.813600
H -15.363000 -5.502600 -12.886500
H -15.107200 -11.334600 -12.325100
H -14.980400 -11.495300 -13.887000
O -14.909000 -9.601300 -13.307100
C -14.631300 -10.985400 -13.142900
O -14.022900 -5.618900 -10.676200
H -13.948600 -5.522200 -8.697100
H -13.744100 -4.107200 -9.395100
C -13.526200 -5.079200 -9.450000
C -13.138700 -11.166500 -13.065700
H -12.920800 -12.138400 -13.120700
H -12.716300 -10.723500 -13.818700
O -12.642000 -10.626700 -11.839500
C -12.033600 -5.260300 -9.372900
O -11.755900 -6.644300 -9.208600
H -11.684500 -4.750400 -8.628800
H -11.557700 -4.911000 -10.190600
H -11.301900 -10.743100 -9.629200
C -11.255600 -10.916500 -11.702100
H -11.126800 -11.897200 -11.736700
H -10.764300 -8.825100 -8.422400
C -10.744200 -10.413400 -10.378700
H -10.735300 -10.495700 -12.443700
O -10.721200 -8.986000 -10.390300
C -10.364100 -6.949400 -9.211200
C -10.228000 -8.447000 -9.158900
H -9.919500 -6.583900 -10.032300
H -9.910900 -6.566600 -8.431400
H -9.857400 -10.764300 -10.234200
H -9.304200 -8.722200 -9.020600
