10
Fragment
O -7.967500 -12.358200 -8.849600
N -7.169000 -10.059300 -9.985100
N -6.952400 -11.846700 -8.394200
H -6.675200 -8.369600 -10.833800
C -6.491200 -10.607500 -8.994900
N -6.428300 -8.953800 -10.201100
O -6.292700 -12.301700 -7.465800
N -5.394100 -9.969000 -8.555600
C -5.387500 -8.909200 -9.361600
H -4.788900 -8.217100 -9.338800
42
Fragment
H -4.407500 -10.813200 -5.989900
H -3.854300 -8.771100 -4.776300
H -3.800800 -12.968800 -6.579100
H -3.792200 -12.951500 -4.978200
C -3.483800 -11.088400 -5.851600
C -3.347600 -12.586000 -5.799300
O -2.990500 -10.549400 -4.620200
H -2.976400 -9.039700 -2.566800
C -2.967500 -9.122000 -4.631800
H -2.947500 -10.710300 -6.588100
H -2.584900 -7.638200 -3.273800
C -2.456100 -8.618900 -3.308400
H -2.409800 -8.792300 -5.381300
H -2.154000 -14.624400 -4.819900
H -2.027200 -14.785000 -6.381700
O -1.955900 -12.891100 -5.801900
C -1.678100 -14.275100 -5.637600
O -1.069700 -8.908700 -3.171000
H -0.995400 -8.811900 -1.191800
H -0.790900 -7.397000 -1.889800
C -0.573000 -8.368900 -1.944800
C -0.185600 -14.456200 -5.560500
H 0.032300 -15.428200 -5.615400
H 0.236800 -14.013200 -6.313400
O 0.311100 -13.916500 -4.334300
C 0.919600 -8.550000 -1.867600
O 1.197300 -9.934100 -1.703400
H 1.268700 -8.040100 -1.123500
H 1.395400 -8.200800 -2.685400
H 1.651200 -14.032800 -2.124000
C 1.697600 -14.206300 -4.196900
H 1.826400 -15.187000 -4.231500
H 2.188900 -12.114900 -0.917100
C 2.208900 -13.703100 -2.873500
H 2.217800 -13.785500 -4.938500
O 2.231900 -12.275700 -2.885100
C 2.589100 -10.239100 -1.705900
C 2.725200 -11.736800 -1.653600
H 3.033700 -9.873700 -2.527000
H 3.042200 -9.856300 -0.926100
H 3.095700 -14.054100 -2.728900
H 3.648900 -12.012000 -1.515300
52
Fragment
O -7.967500 -12.358200 -8.849600
N -7.169000 -10.059300 -9.985100
N -6.952400 -11.846700 -8.394200
H -6.675200 -8.369600 -10.833800
C -6.491200 -10.607500 -8.994900
N -6.428300 -8.953800 -10.201100
O -6.292700 -12.301700 -7.465800
N -5.394100 -9.969000 -8.555600
C -5.387500 -8.909200 -9.361600
H -4.788900 -8.217100 -9.338800
H -4.407500 -10.813200 -5.989900
H -3.854300 -8.771100 -4.776300
H -3.800800 -12.968800 -6.579100
H -3.792200 -12.951500 -4.978200
C -3.483800 -11.088400 -5.851600
C -3.347600 -12.586000 -5.799300
O -2.990500 -10.549400 -4.620200
H -2.976400 -9.039700 -2.566800
C -2.967500 -9.122000 -4.631800
H -2.947500 -10.710300 -6.588100
H -2.584900 -7.638200 -3.273800
C -2.456100 -8.618900 -3.308400
H -2.409800 -8.792300 -5.381300
H -2.154000 -14.624400 -4.819900
H -2.027200 -14.785000 -6.381700
O -1.955900 -12.891100 -5.801900
C -1.678100 -14.275100 -5.637600
O -1.069700 -8.908700 -3.171000
H -0.995400 -8.811900 -1.191800
H -0.790900 -7.397000 -1.889800
C -0.573000 -8.368900 -1.944800
C -0.185600 -14.456200 -5.560500
H 0.032300 -15.428200 -5.615400
H 0.236800 -14.013200 -6.313400
O 0.311100 -13.916500 -4.334300
C 0.919600 -8.550000 -1.867600
O 1.197300 -9.934100 -1.703400
H 1.268700 -8.040100 -1.123500
H 1.395400 -8.200800 -2.685400
H 1.651200 -14.032800 -2.124000
C 1.697600 -14.206300 -4.196900
H 1.826400 -15.187000 -4.231500
H 2.188900 -12.114900 -0.917100
C 2.208900 -13.703100 -2.873500
H 2.217800 -13.785500 -4.938500
O 2.231900 -12.275700 -2.885100
C 2.589100 -10.239100 -1.705900
C 2.725200 -11.736800 -1.653600
H 3.033700 -9.873700 -2.527000
H 3.042200 -9.856300 -0.926100
H 3.095700 -14.054100 -2.728900
H 3.648900 -12.012000 -1.515300
