21
Fragment
H -12.272600 -18.893600 -17.761400
H -11.647400 -20.188600 -18.463700
C -11.517500 -19.518400 -17.760700
H -11.463500 -19.964600 -16.889900
O -10.916400 -17.049600 -16.675700
N -10.272900 -18.781700 -18.011000
C -10.061500 -17.580200 -17.384500
N -9.348800 -20.474700 -19.504100
C -9.286800 -19.304100 -18.812000
H -9.037900 -14.962900 -17.263600
H -8.972900 -15.821400 -15.914600
N -8.837000 -16.948100 -17.587500
C -8.601900 -15.717700 -16.815800
C -8.182200 -20.494500 -20.155100
C -8.114200 -18.633400 -19.033800
H -7.924600 -21.202600 -20.733700
C -7.811900 -17.387600 -18.430800
H -7.638400 -15.549300 -16.755000
N -7.406900 -19.425200 -19.918800
O -6.791900 -16.716700 -18.585100
H -6.545800 -19.276500 -20.340000
16
Fragment
O -12.626100 -10.286800 -21.836300
O -12.594100 -10.441900 -19.663800
N -12.092800 -10.604000 -20.780000
C -10.795700 -11.211000 -20.787700
H -10.631400 -11.570700 -17.695500
N -10.126500 -11.404200 -21.923900
C -10.059200 -11.640400 -19.675700
N -9.989000 -11.793500 -18.325300
N -8.949800 -11.960700 -21.562300
C -8.879700 -12.113800 -20.211800
N -8.812400 -12.350000 -17.963600
H -8.307500 -12.183500 -22.192100
C -8.143100 -12.543200 -19.099900
N -6.846100 -13.150200 -19.107600
O -6.344700 -13.312300 -20.223800
O -6.312700 -13.467400 -18.051300
37
Fragment
H -12.272600 -18.893600 -17.761400
H -11.647400 -20.188600 -18.463700
C -11.517500 -19.518400 -17.760700
H -11.463500 -19.964600 -16.889900
O -10.916400 -17.049600 -16.675700
N -10.272900 -18.781700 -18.011000
C -10.061500 -17.580200 -17.384500
N -9.348800 -20.474700 -19.504100
C -9.286800 -19.304100 -18.812000
H -9.037900 -14.962900 -17.263600
H -8.972900 -15.821400 -15.914600
N -8.837000 -16.948100 -17.587500
C -8.601900 -15.717700 -16.815800
C -8.182200 -20.494500 -20.155100
C -8.114200 -18.633400 -19.033800
H -7.924600 -21.202600 -20.733700
C -7.811900 -17.387600 -18.430800
H -7.638400 -15.549300 -16.755000
N -7.406900 -19.425200 -19.918800
O -6.791900 -16.716700 -18.585100
H -6.545800 -19.276500 -20.340000
O -12.626100 -10.286800 -21.836300
O -12.594100 -10.441900 -19.663800
N -12.092800 -10.604000 -20.780000
C -10.795700 -11.211000 -20.787700
H -10.631400 -11.570700 -17.695500
N -10.126500 -11.404200 -21.923900
C -10.059200 -11.640400 -19.675700
N -9.989000 -11.793500 -18.325300
N -8.949800 -11.960700 -21.562300
C -8.879700 -12.113800 -20.211800
N -8.812400 -12.350000 -17.963600
H -8.307500 -12.183500 -22.192100
C -8.143100 -12.543200 -19.099900
N -6.846100 -13.150200 -19.107600
O -6.344700 -13.312300 -20.223800
O -6.312700 -13.467400 -18.051300
