36
Fragment
O -14.056100 -34.754800 -15.901600
N -13.022600 -34.743100 -15.258300
O -12.911600 -34.769600 -14.054300
H -12.812600 -34.872300 -17.733400
O -12.323400 -36.786200 -19.263900
C -11.880500 -34.964100 -17.383100
N -11.807700 -34.584100 -15.981800
N -11.672100 -37.225200 -18.320600
N -11.500900 -36.367100 -17.260900
H -11.313700 -33.607700 -18.983900
O -11.196400 -38.338000 -18.200400
C -10.858300 -34.094200 -18.238200
H -10.847000 -35.587100 -14.451100
C -10.644000 -35.292100 -15.384700
O -10.515400 -31.479500 -18.755700
H -10.455300 -37.391100 -15.816100
C -10.385500 -36.530400 -16.320500
N -10.153700 -33.186400 -17.347000
O -9.952600 -34.080500 -20.774700
O -9.946300 -33.833200 -13.316100
N -9.850500 -31.889600 -17.818200
N -9.830000 -35.007900 -18.729900
N -9.474800 -34.448700 -15.414300
N -9.332800 -34.813000 -20.038900
N -9.319700 -33.572700 -14.319800
N -9.089200 -36.385000 -16.940500
C -9.065900 -33.941400 -16.706100
O -9.013900 -31.274800 -17.189400
C -8.828400 -35.174200 -17.658100
O -8.576600 -38.500300 -16.532700
O -8.525000 -32.663700 -14.474900
O -8.344300 -35.478600 -20.315000
H -8.239500 -33.383900 -16.627700
N -8.224600 -37.466900 -17.059500
H -7.899800 -35.168700 -18.029100
O -7.180200 -37.257600 -17.650500
20
Fragment
H -16.633200 -30.305600 -22.758900
H -16.497800 -31.890800 -22.968700
H -16.441600 -31.493800 -20.661900
C -16.026100 -31.080100 -22.652300
O -15.926900 -29.532300 -24.806800
C -15.645500 -31.240700 -21.193100
O -15.435700 -32.863100 -19.110400
H -15.293800 -30.385600 -20.839300
N -14.926700 -30.219900 -24.618200
N -14.806400 -30.871500 -23.441700
N -14.619300 -32.286600 -21.088900
N -14.499000 -32.938200 -19.912400
H -14.131800 -32.772500 -23.691300
O -13.990000 -30.295000 -25.420200
C -13.780100 -31.917400 -23.337500
O -13.498800 -33.625800 -19.723800
C -13.399600 -32.078000 -21.878300
H -12.984000 -31.664300 -23.868800
H -12.927900 -31.267300 -21.562000
H -12.792400 -32.852500 -21.771700
56
Fragment
O -14.056100 -34.754800 -15.901600
N -13.022600 -34.743100 -15.258300
O -12.911600 -34.769600 -14.054300
H -12.812600 -34.872300 -17.733400
O -12.323400 -36.786200 -19.263900
C -11.880500 -34.964100 -17.383100
N -11.807700 -34.584100 -15.981800
N -11.672100 -37.225200 -18.320600
N -11.500900 -36.367100 -17.260900
H -11.313700 -33.607700 -18.983900
O -11.196400 -38.338000 -18.200400
C -10.858300 -34.094200 -18.238200
H -10.847000 -35.587100 -14.451100
C -10.644000 -35.292100 -15.384700
O -10.515400 -31.479500 -18.755700
H -10.455300 -37.391100 -15.816100
C -10.385500 -36.530400 -16.320500
N -10.153700 -33.186400 -17.347000
O -9.952600 -34.080500 -20.774700
O -9.946300 -33.833200 -13.316100
N -9.850500 -31.889600 -17.818200
N -9.830000 -35.007900 -18.729900
N -9.474800 -34.448700 -15.414300
N -9.332800 -34.813000 -20.038900
N -9.319700 -33.572700 -14.319800
N -9.089200 -36.385000 -16.940500
C -9.065900 -33.941400 -16.706100
O -9.013900 -31.274800 -17.189400
C -8.828400 -35.174200 -17.658100
O -8.576600 -38.500300 -16.532700
O -8.525000 -32.663700 -14.474900
O -8.344300 -35.478600 -20.315000
H -8.239500 -33.383900 -16.627700
N -8.224600 -37.466900 -17.059500
H -7.899800 -35.168700 -18.029100
O -7.180200 -37.257600 -17.650500
H -16.633200 -30.305600 -22.758900
H -16.497800 -31.890800 -22.968700
H -16.441600 -31.493800 -20.661900
C -16.026100 -31.080100 -22.652300
O -15.926900 -29.532300 -24.806800
C -15.645500 -31.240700 -21.193100
O -15.435700 -32.863100 -19.110400
H -15.293800 -30.385600 -20.839300
N -14.926700 -30.219900 -24.618200
N -14.806400 -30.871500 -23.441700
N -14.619300 -32.286600 -21.088900
N -14.499000 -32.938200 -19.912400
H -14.131800 -32.772500 -23.691300
O -13.990000 -30.295000 -25.420200
C -13.780100 -31.917400 -23.337500
O -13.498800 -33.625800 -19.723800
C -13.399600 -32.078000 -21.878300
H -12.984000 -31.664300 -23.868800
H -12.927900 -31.267300 -21.562000
H -12.792400 -32.852500 -21.771700
