36
Fragment
O -14.056100 -34.754800 -15.901600
N -13.022600 -34.743100 -15.258300
O -12.911600 -34.769600 -14.054300
H -12.812600 -34.872300 -17.733400
O -12.323400 -36.786200 -19.263900
C -11.880500 -34.964100 -17.383100
N -11.807700 -34.584100 -15.981800
N -11.672100 -37.225200 -18.320600
N -11.500900 -36.367100 -17.260900
H -11.313700 -33.607700 -18.983900
O -11.196400 -38.338000 -18.200400
C -10.858300 -34.094200 -18.238200
H -10.847000 -35.587100 -14.451100
C -10.644000 -35.292100 -15.384700
O -10.515400 -31.479500 -18.755700
H -10.455300 -37.391100 -15.816100
C -10.385500 -36.530400 -16.320500
N -10.153700 -33.186400 -17.347000
O -9.952600 -34.080500 -20.774700
O -9.946300 -33.833200 -13.316100
N -9.850500 -31.889600 -17.818200
N -9.830000 -35.007900 -18.729900
N -9.474800 -34.448700 -15.414300
N -9.332800 -34.813000 -20.038900
N -9.319700 -33.572700 -14.319800
N -9.089200 -36.385000 -16.940500
C -9.065900 -33.941400 -16.706100
O -9.013900 -31.274800 -17.189400
C -8.828400 -35.174200 -17.658100
O -8.576600 -38.500300 -16.532700
O -8.525000 -32.663700 -14.474900
O -8.344300 -35.478600 -20.315000
H -8.239500 -33.383900 -16.627700
N -8.224600 -37.466900 -17.059500
H -7.899800 -35.168700 -18.029100
O -7.180200 -37.257600 -17.650500
36
Fragment
O -6.289800 -34.754800 -15.901600
N -5.256300 -34.743100 -15.258300
O -5.145300 -34.769600 -14.054300
H -5.046300 -34.872300 -17.733400
O -4.557100 -36.786200 -19.263900
C -4.114200 -34.964100 -17.383100
N -4.041400 -34.584100 -15.981800
N -3.905800 -37.225200 -18.320600
N -3.734600 -36.367100 -17.260900
H -3.547400 -33.607700 -18.983900
O -3.430100 -38.338000 -18.200400
C -3.092000 -34.094200 -18.238200
H -3.080700 -35.587100 -14.451100
C -2.877700 -35.292100 -15.384700
O -2.749100 -31.479500 -18.755700
H -2.689000 -37.391100 -15.816100
C -2.619200 -36.530400 -16.320500
N -2.387400 -33.186400 -17.347000
O -2.186300 -34.080500 -20.774700
O -2.180000 -33.833200 -13.316100
N -2.084200 -31.889600 -17.818200
N -2.063700 -35.007900 -18.729900
N -1.708500 -34.448700 -15.414300
N -1.566500 -34.813000 -20.038900
N -1.553400 -33.572700 -14.319800
N -1.322900 -36.385000 -16.940500
C -1.299600 -33.941400 -16.706100
O -1.247600 -31.274800 -17.189400
C -1.062100 -35.174200 -17.658100
O -0.810300 -38.500300 -16.532700
O -0.758700 -32.663700 -14.474900
O -0.578000 -35.478600 -20.315000
H -0.473200 -33.383900 -16.627700
N -0.458300 -37.466900 -17.059500
H -0.133500 -35.168700 -18.029100
O 0.586100 -37.257600 -17.650500
72
Fragment
O -14.056100 -34.754800 -15.901600
N -13.022600 -34.743100 -15.258300
O -12.911600 -34.769600 -14.054300
H -12.812600 -34.872300 -17.733400
O -12.323400 -36.786200 -19.263900
C -11.880500 -34.964100 -17.383100
N -11.807700 -34.584100 -15.981800
N -11.672100 -37.225200 -18.320600
N -11.500900 -36.367100 -17.260900
H -11.313700 -33.607700 -18.983900
O -11.196400 -38.338000 -18.200400
C -10.858300 -34.094200 -18.238200
H -10.847000 -35.587100 -14.451100
C -10.644000 -35.292100 -15.384700
O -10.515400 -31.479500 -18.755700
H -10.455300 -37.391100 -15.816100
C -10.385500 -36.530400 -16.320500
N -10.153700 -33.186400 -17.347000
O -9.952600 -34.080500 -20.774700
O -9.946300 -33.833200 -13.316100
N -9.850500 -31.889600 -17.818200
N -9.830000 -35.007900 -18.729900
N -9.474800 -34.448700 -15.414300
N -9.332800 -34.813000 -20.038900
N -9.319700 -33.572700 -14.319800
N -9.089200 -36.385000 -16.940500
C -9.065900 -33.941400 -16.706100
O -9.013900 -31.274800 -17.189400
C -8.828400 -35.174200 -17.658100
O -8.576600 -38.500300 -16.532700
O -8.525000 -32.663700 -14.474900
O -8.344300 -35.478600 -20.315000
H -8.239500 -33.383900 -16.627700
N -8.224600 -37.466900 -17.059500
H -7.899800 -35.168700 -18.029100
O -7.180200 -37.257600 -17.650500
O -6.289800 -34.754800 -15.901600
N -5.256300 -34.743100 -15.258300
O -5.145300 -34.769600 -14.054300
H -5.046300 -34.872300 -17.733400
O -4.557100 -36.786200 -19.263900
C -4.114200 -34.964100 -17.383100
N -4.041400 -34.584100 -15.981800
N -3.905800 -37.225200 -18.320600
N -3.734600 -36.367100 -17.260900
H -3.547400 -33.607700 -18.983900
O -3.430100 -38.338000 -18.200400
C -3.092000 -34.094200 -18.238200
H -3.080700 -35.587100 -14.451100
C -2.877700 -35.292100 -15.384700
O -2.749100 -31.479500 -18.755700
H -2.689000 -37.391100 -15.816100
C -2.619200 -36.530400 -16.320500
N -2.387400 -33.186400 -17.347000
O -2.186300 -34.080500 -20.774700
O -2.180000 -33.833200 -13.316100
N -2.084200 -31.889600 -17.818200
N -2.063700 -35.007900 -18.729900
N -1.708500 -34.448700 -15.414300
N -1.566500 -34.813000 -20.038900
N -1.553400 -33.572700 -14.319800
N -1.322900 -36.385000 -16.940500
C -1.299600 -33.941400 -16.706100
O -1.247600 -31.274800 -17.189400
C -1.062100 -35.174200 -17.658100
O -0.810300 -38.500300 -16.532700
O -0.758700 -32.663700 -14.474900
O -0.578000 -35.478600 -20.315000
H -0.473200 -33.383900 -16.627700
N -0.458300 -37.466900 -17.059500
H -0.133500 -35.168700 -18.029100
O 0.586100 -37.257600 -17.650500
