36
Fragment
O -14.056100 -34.754800 -15.901600
N -13.022600 -34.743100 -15.258300
O -12.911600 -34.769600 -14.054300
H -12.812600 -34.872300 -17.733400
O -12.323400 -36.786200 -19.263900
C -11.880500 -34.964100 -17.383100
N -11.807700 -34.584100 -15.981800
N -11.672100 -37.225200 -18.320600
N -11.500900 -36.367100 -17.260900
H -11.313700 -33.607700 -18.983900
O -11.196400 -38.338000 -18.200400
C -10.858300 -34.094200 -18.238200
H -10.847000 -35.587100 -14.451100
C -10.644000 -35.292100 -15.384700
O -10.515400 -31.479500 -18.755700
H -10.455300 -37.391100 -15.816100
C -10.385500 -36.530400 -16.320500
N -10.153700 -33.186400 -17.347000
O -9.952600 -34.080500 -20.774700
O -9.946300 -33.833200 -13.316100
N -9.850500 -31.889600 -17.818200
N -9.830000 -35.007900 -18.729900
N -9.474800 -34.448700 -15.414300
N -9.332800 -34.813000 -20.038900
N -9.319700 -33.572700 -14.319800
N -9.089200 -36.385000 -16.940500
C -9.065900 -33.941400 -16.706100
O -9.013900 -31.274800 -17.189400
C -8.828400 -35.174200 -17.658100
O -8.576600 -38.500300 -16.532700
O -8.525000 -32.663700 -14.474900
O -8.344300 -35.478600 -20.315000
H -8.239500 -33.383900 -16.627700
N -8.224600 -37.466900 -17.059500
H -7.899800 -35.168700 -18.029100
O -7.180200 -37.257600 -17.650500
20
Fragment
H -17.043100 -30.305600 -11.626300
H -16.907700 -31.890800 -11.836000
H -16.851500 -31.493800 -9.529200
C -16.436000 -31.080100 -11.519600
O -16.336700 -29.532300 -13.674100
C -16.055400 -31.240700 -10.060500
O -15.845600 -32.863100 -7.977800
H -15.703700 -30.385600 -9.706700
N -15.336600 -30.219900 -13.485500
N -15.216200 -30.871500 -12.309000
N -15.029200 -32.286600 -9.956300
N -14.908900 -32.938200 -8.779800
H -14.541700 -32.772500 -12.558600
O -14.399800 -30.295000 -14.287500
C -14.190000 -31.917400 -12.204800
O -13.908700 -33.625800 -8.591200
C -13.809500 -32.078000 -10.745700
H -13.393900 -31.664300 -12.736100
H -13.337700 -31.267300 -10.429300
H -13.202300 -32.852500 -10.639000
56
Fragment
O -14.056100 -34.754800 -15.901600
N -13.022600 -34.743100 -15.258300
O -12.911600 -34.769600 -14.054300
H -12.812600 -34.872300 -17.733400
O -12.323400 -36.786200 -19.263900
C -11.880500 -34.964100 -17.383100
N -11.807700 -34.584100 -15.981800
N -11.672100 -37.225200 -18.320600
N -11.500900 -36.367100 -17.260900
H -11.313700 -33.607700 -18.983900
O -11.196400 -38.338000 -18.200400
C -10.858300 -34.094200 -18.238200
H -10.847000 -35.587100 -14.451100
C -10.644000 -35.292100 -15.384700
O -10.515400 -31.479500 -18.755700
H -10.455300 -37.391100 -15.816100
C -10.385500 -36.530400 -16.320500
N -10.153700 -33.186400 -17.347000
O -9.952600 -34.080500 -20.774700
O -9.946300 -33.833200 -13.316100
N -9.850500 -31.889600 -17.818200
N -9.830000 -35.007900 -18.729900
N -9.474800 -34.448700 -15.414300
N -9.332800 -34.813000 -20.038900
N -9.319700 -33.572700 -14.319800
N -9.089200 -36.385000 -16.940500
C -9.065900 -33.941400 -16.706100
O -9.013900 -31.274800 -17.189400
C -8.828400 -35.174200 -17.658100
O -8.576600 -38.500300 -16.532700
O -8.525000 -32.663700 -14.474900
O -8.344300 -35.478600 -20.315000
H -8.239500 -33.383900 -16.627700
N -8.224600 -37.466900 -17.059500
H -7.899800 -35.168700 -18.029100
O -7.180200 -37.257600 -17.650500
H -17.043100 -30.305600 -11.626300
H -16.907700 -31.890800 -11.836000
H -16.851500 -31.493800 -9.529200
C -16.436000 -31.080100 -11.519600
O -16.336700 -29.532300 -13.674100
C -16.055400 -31.240700 -10.060500
O -15.845600 -32.863100 -7.977800
H -15.703700 -30.385600 -9.706700
N -15.336600 -30.219900 -13.485500
N -15.216200 -30.871500 -12.309000
N -15.029200 -32.286600 -9.956300
N -14.908900 -32.938200 -8.779800
H -14.541700 -32.772500 -12.558600
O -14.399800 -30.295000 -14.287500
C -14.190000 -31.917400 -12.204800
O -13.908700 -33.625800 -8.591200
C -13.809500 -32.078000 -10.745700
H -13.393900 -31.664300 -12.736100
H -13.337700 -31.267300 -10.429300
H -13.202300 -32.852500 -10.639000
