36
Fragment
O -14.056100 -34.754800 -15.901600
N -13.022600 -34.743100 -15.258300
O -12.911600 -34.769600 -14.054300
H -12.812600 -34.872300 -17.733400
O -12.323400 -36.786200 -19.263900
C -11.880500 -34.964100 -17.383100
N -11.807700 -34.584100 -15.981800
N -11.672100 -37.225200 -18.320600
N -11.500900 -36.367100 -17.260900
H -11.313700 -33.607700 -18.983900
O -11.196400 -38.338000 -18.200400
C -10.858300 -34.094200 -18.238200
H -10.847000 -35.587100 -14.451100
C -10.644000 -35.292100 -15.384700
O -10.515400 -31.479500 -18.755700
H -10.455300 -37.391100 -15.816100
C -10.385500 -36.530400 -16.320500
N -10.153700 -33.186400 -17.347000
O -9.952600 -34.080500 -20.774700
O -9.946300 -33.833200 -13.316100
N -9.850500 -31.889600 -17.818200
N -9.830000 -35.007900 -18.729900
N -9.474800 -34.448700 -15.414300
N -9.332800 -34.813000 -20.038900
N -9.319700 -33.572700 -14.319800
N -9.089200 -36.385000 -16.940500
C -9.065900 -33.941400 -16.706100
O -9.013900 -31.274800 -17.189400
C -8.828400 -35.174200 -17.658100
O -8.576600 -38.500300 -16.532700
O -8.525000 -32.663700 -14.474900
O -8.344300 -35.478600 -20.315000
H -8.239500 -33.383900 -16.627700
N -8.224600 -37.466900 -17.059500
H -7.899800 -35.168700 -18.029100
O -7.180200 -37.257600 -17.650500
36
Fragment
O -10.377900 -38.929600 -10.335200
N -9.344400 -38.941400 -9.692000
O -9.233400 -38.914900 -8.488000
H -9.134400 -38.812100 -12.167100
O -8.645200 -36.898200 -13.697600
C -8.202300 -38.720300 -11.816800
N -8.129500 -39.100300 -10.415500
N -7.993900 -36.459300 -12.754200
N -7.822700 -37.317400 -11.694500
H -7.635500 -40.076800 -13.417500
O -7.518200 -35.346400 -12.634100
C -7.180100 -39.590200 -12.671900
H -7.168800 -38.097400 -8.884800
C -6.965800 -38.392300 -9.818300
O -6.837200 -42.205000 -13.189400
H -6.777100 -36.293400 -10.249700
C -6.707300 -37.154000 -10.754100
N -6.475500 -40.498000 -11.780700
O -6.274400 -39.603900 -15.208300
O -6.268100 -39.851300 -7.749800
N -6.172300 -41.794900 -12.251800
N -6.151800 -38.676500 -13.163600
N -5.796600 -39.235700 -9.847900
N -5.654600 -38.871500 -14.472600
N -5.641400 -40.111700 -8.753500
N -5.411000 -37.299500 -11.374100
C -5.387700 -39.743100 -11.139800
O -5.335700 -42.409600 -11.623100
C -5.150200 -38.510200 -12.091700
O -4.898400 -35.184100 -10.966300
O -4.846800 -41.020800 -8.908600
O -4.666100 -38.205800 -14.748700
H -4.561300 -40.300600 -11.061400
N -4.546400 -36.217600 -11.493100
H -4.221600 -38.515700 -12.462800
O -3.502000 -36.426900 -12.084200
72
Fragment
O -14.056100 -34.754800 -15.901600
N -13.022600 -34.743100 -15.258300
O -12.911600 -34.769600 -14.054300
H -12.812600 -34.872300 -17.733400
O -12.323400 -36.786200 -19.263900
C -11.880500 -34.964100 -17.383100
N -11.807700 -34.584100 -15.981800
N -11.672100 -37.225200 -18.320600
N -11.500900 -36.367100 -17.260900
H -11.313700 -33.607700 -18.983900
O -11.196400 -38.338000 -18.200400
C -10.858300 -34.094200 -18.238200
H -10.847000 -35.587100 -14.451100
C -10.644000 -35.292100 -15.384700
O -10.515400 -31.479500 -18.755700
H -10.455300 -37.391100 -15.816100
C -10.385500 -36.530400 -16.320500
N -10.153700 -33.186400 -17.347000
O -9.952600 -34.080500 -20.774700
O -9.946300 -33.833200 -13.316100
N -9.850500 -31.889600 -17.818200
N -9.830000 -35.007900 -18.729900
N -9.474800 -34.448700 -15.414300
N -9.332800 -34.813000 -20.038900
N -9.319700 -33.572700 -14.319800
N -9.089200 -36.385000 -16.940500
C -9.065900 -33.941400 -16.706100
O -9.013900 -31.274800 -17.189400
C -8.828400 -35.174200 -17.658100
O -8.576600 -38.500300 -16.532700
O -8.525000 -32.663700 -14.474900
O -8.344300 -35.478600 -20.315000
H -8.239500 -33.383900 -16.627700
N -8.224600 -37.466900 -17.059500
H -7.899800 -35.168700 -18.029100
O -7.180200 -37.257600 -17.650500
O -10.377900 -38.929600 -10.335200
N -9.344400 -38.941400 -9.692000
O -9.233400 -38.914900 -8.488000
H -9.134400 -38.812100 -12.167100
O -8.645200 -36.898200 -13.697600
C -8.202300 -38.720300 -11.816800
N -8.129500 -39.100300 -10.415500
N -7.993900 -36.459300 -12.754200
N -7.822700 -37.317400 -11.694500
H -7.635500 -40.076800 -13.417500
O -7.518200 -35.346400 -12.634100
C -7.180100 -39.590200 -12.671900
H -7.168800 -38.097400 -8.884800
C -6.965800 -38.392300 -9.818300
O -6.837200 -42.205000 -13.189400
H -6.777100 -36.293400 -10.249700
C -6.707300 -37.154000 -10.754100
N -6.475500 -40.498000 -11.780700
O -6.274400 -39.603900 -15.208300
O -6.268100 -39.851300 -7.749800
N -6.172300 -41.794900 -12.251800
N -6.151800 -38.676500 -13.163600
N -5.796600 -39.235700 -9.847900
N -5.654600 -38.871500 -14.472600
N -5.641400 -40.111700 -8.753500
N -5.411000 -37.299500 -11.374100
C -5.387700 -39.743100 -11.139800
O -5.335700 -42.409600 -11.623100
C -5.150200 -38.510200 -12.091700
O -4.898400 -35.184100 -10.966300
O -4.846800 -41.020800 -8.908600
O -4.666100 -38.205800 -14.748700
H -4.561300 -40.300600 -11.061400
N -4.546400 -36.217600 -11.493100
H -4.221600 -38.515700 -12.462800
O -3.502000 -36.426900 -12.084200
