36
Fragment
O -14.056100 -34.754800 -15.901600
N -13.022600 -34.743100 -15.258300
O -12.911600 -34.769600 -14.054300
H -12.812600 -34.872300 -17.733400
O -12.323400 -36.786200 -19.263900
C -11.880500 -34.964100 -17.383100
N -11.807700 -34.584100 -15.981800
N -11.672100 -37.225200 -18.320600
N -11.500900 -36.367100 -17.260900
H -11.313700 -33.607700 -18.983900
O -11.196400 -38.338000 -18.200400
C -10.858300 -34.094200 -18.238200
H -10.847000 -35.587100 -14.451100
C -10.644000 -35.292100 -15.384700
O -10.515400 -31.479500 -18.755700
H -10.455300 -37.391100 -15.816100
C -10.385500 -36.530400 -16.320500
N -10.153700 -33.186400 -17.347000
O -9.952600 -34.080500 -20.774700
O -9.946300 -33.833200 -13.316100
N -9.850500 -31.889600 -17.818200
N -9.830000 -35.007900 -18.729900
N -9.474800 -34.448700 -15.414300
N -9.332800 -34.813000 -20.038900
N -9.319700 -33.572700 -14.319800
N -9.089200 -36.385000 -16.940500
C -9.065900 -33.941400 -16.706100
O -9.013900 -31.274800 -17.189400
C -8.828400 -35.174200 -17.658100
O -8.576600 -38.500300 -16.532700
O -8.525000 -32.663700 -14.474900
O -8.344300 -35.478600 -20.315000
H -8.239500 -33.383900 -16.627700
N -8.224600 -37.466900 -17.059500
H -7.899800 -35.168700 -18.029100
O -7.180200 -37.257600 -17.650500
36
Fragment
O -17.734300 -38.929600 -21.467900
N -16.700800 -38.941400 -20.824600
O -16.589800 -38.914900 -19.620600
H -16.490800 -38.812100 -23.299800
O -16.001600 -36.898200 -24.830300
C -15.558700 -38.720300 -22.949400
N -15.485900 -39.100300 -21.548100
N -15.350300 -36.459300 -23.886900
N -15.179100 -37.317400 -22.827200
H -14.991900 -40.076800 -24.550200
O -14.874600 -35.346400 -23.766800
C -14.536500 -39.590200 -23.804500
H -14.525200 -38.097400 -20.017400
C -14.322200 -38.392300 -20.951000
O -14.193600 -42.205000 -24.322100
H -14.133500 -36.293400 -21.382400
C -14.063700 -37.154000 -21.886800
N -13.832000 -40.498000 -22.913300
O -13.630800 -39.603900 -26.341000
O -13.624500 -39.851300 -18.882400
N -13.528700 -41.794900 -23.384500
N -13.508200 -38.676500 -24.296200
N -13.153000 -39.235700 -20.980600
N -13.011000 -38.871500 -25.605200
N -12.997900 -40.111700 -19.886200
N -12.767400 -37.299500 -22.506800
C -12.744100 -39.743100 -22.272400
O -12.692100 -42.409600 -22.755700
C -12.506600 -38.510200 -23.224400
O -12.254900 -35.184100 -22.099000
O -12.203300 -41.020800 -20.041200
O -12.022600 -38.205800 -25.881300
H -11.917700 -40.300600 -22.194100
N -11.902800 -36.217600 -22.625800
H -11.578000 -38.515700 -23.595400
O -10.858400 -36.426900 -23.216800
72
Fragment
O -14.056100 -34.754800 -15.901600
N -13.022600 -34.743100 -15.258300
O -12.911600 -34.769600 -14.054300
H -12.812600 -34.872300 -17.733400
O -12.323400 -36.786200 -19.263900
C -11.880500 -34.964100 -17.383100
N -11.807700 -34.584100 -15.981800
N -11.672100 -37.225200 -18.320600
N -11.500900 -36.367100 -17.260900
H -11.313700 -33.607700 -18.983900
O -11.196400 -38.338000 -18.200400
C -10.858300 -34.094200 -18.238200
H -10.847000 -35.587100 -14.451100
C -10.644000 -35.292100 -15.384700
O -10.515400 -31.479500 -18.755700
H -10.455300 -37.391100 -15.816100
C -10.385500 -36.530400 -16.320500
N -10.153700 -33.186400 -17.347000
O -9.952600 -34.080500 -20.774700
O -9.946300 -33.833200 -13.316100
N -9.850500 -31.889600 -17.818200
N -9.830000 -35.007900 -18.729900
N -9.474800 -34.448700 -15.414300
N -9.332800 -34.813000 -20.038900
N -9.319700 -33.572700 -14.319800
N -9.089200 -36.385000 -16.940500
C -9.065900 -33.941400 -16.706100
O -9.013900 -31.274800 -17.189400
C -8.828400 -35.174200 -17.658100
O -8.576600 -38.500300 -16.532700
O -8.525000 -32.663700 -14.474900
O -8.344300 -35.478600 -20.315000
H -8.239500 -33.383900 -16.627700
N -8.224600 -37.466900 -17.059500
H -7.899800 -35.168700 -18.029100
O -7.180200 -37.257600 -17.650500
O -17.734300 -38.929600 -21.467900
N -16.700800 -38.941400 -20.824600
O -16.589800 -38.914900 -19.620600
H -16.490800 -38.812100 -23.299800
O -16.001600 -36.898200 -24.830300
C -15.558700 -38.720300 -22.949400
N -15.485900 -39.100300 -21.548100
N -15.350300 -36.459300 -23.886900
N -15.179100 -37.317400 -22.827200
H -14.991900 -40.076800 -24.550200
O -14.874600 -35.346400 -23.766800
C -14.536500 -39.590200 -23.804500
H -14.525200 -38.097400 -20.017400
C -14.322200 -38.392300 -20.951000
O -14.193600 -42.205000 -24.322100
H -14.133500 -36.293400 -21.382400
C -14.063700 -37.154000 -21.886800
N -13.832000 -40.498000 -22.913300
O -13.630800 -39.603900 -26.341000
O -13.624500 -39.851300 -18.882400
N -13.528700 -41.794900 -23.384500
N -13.508200 -38.676500 -24.296200
N -13.153000 -39.235700 -20.980600
N -13.011000 -38.871500 -25.605200
N -12.997900 -40.111700 -19.886200
N -12.767400 -37.299500 -22.506800
C -12.744100 -39.743100 -22.272400
O -12.692100 -42.409600 -22.755700
C -12.506600 -38.510200 -23.224400
O -12.254900 -35.184100 -22.099000
O -12.203300 -41.020800 -20.041200
O -12.022600 -38.205800 -25.881300
H -11.917700 -40.300600 -22.194100
N -11.902800 -36.217600 -22.625800
H -11.578000 -38.515700 -23.595400
O -10.858400 -36.426900 -23.216800
