10
Fragment
O -13.791200 -5.970300 -13.420000
N -12.919700 -5.134500 -13.606700
O -12.655600 -4.223500 -12.833700
N -12.412600 -6.119000 -15.727700
C -12.137900 -5.223200 -14.816200
N -11.455000 -5.836900 -16.637200
H -11.333300 -6.222800 -17.443300
N -11.102500 -4.399800 -15.046500
C -10.685100 -4.824400 -16.226200
H -9.980000 -4.521800 -16.726500
10
Fragment
H -17.301600 -2.139400 -14.223300
C -16.596500 -2.442000 -14.723700
N -16.179100 -2.017400 -15.903400
H -15.948300 -3.840400 -13.506500
N -15.826600 -3.454500 -14.312700
C -15.143700 -2.840800 -16.133700
N -14.869000 -3.736600 -15.222100
O -14.625900 -1.841100 -18.116200
N -14.361800 -2.752100 -17.343200
O -13.490300 -3.587900 -17.529900
20
Fragment
O -13.791200 -5.970300 -13.420000
N -12.919700 -5.134500 -13.606700
O -12.655600 -4.223500 -12.833700
N -12.412600 -6.119000 -15.727700
C -12.137900 -5.223200 -14.816200
N -11.455000 -5.836900 -16.637200
H -11.333300 -6.222800 -17.443300
N -11.102500 -4.399800 -15.046500
C -10.685100 -4.824400 -16.226200
H -9.980000 -4.521800 -16.726500
H -17.301600 -2.139400 -14.223300
C -16.596500 -2.442000 -14.723700
N -16.179100 -2.017400 -15.903400
H -15.948300 -3.840400 -13.506500
N -15.826600 -3.454500 -14.312700
C -15.143700 -2.840800 -16.133700
N -14.869000 -3.736600 -15.222100
O -14.625900 -1.841100 -18.116200
N -14.361800 -2.752100 -17.343200
O -13.490300 -3.587900 -17.529900
