10
Fragment
O -13.791200 -5.970300 -13.420000
N -12.919700 -5.134500 -13.606700
O -12.655600 -4.223500 -12.833700
N -12.412600 -6.119000 -15.727700
C -12.137900 -5.223200 -14.816200
N -11.455000 -5.836900 -16.637200
H -11.333300 -6.222800 -17.443300
N -11.102500 -4.399800 -15.046500
C -10.685100 -4.824400 -16.226200
H -9.980000 -4.521800 -16.726500
10
Fragment
O -16.089300 -1.176900 -7.230000
N -15.217800 -2.012700 -7.416700
O -14.953700 -2.923700 -6.643700
N -14.710700 -1.028200 -9.537800
C -14.436000 -1.924000 -8.626200
N -13.753100 -1.310300 -10.447200
H -13.631400 -0.924400 -11.253400
N -13.400600 -2.747400 -8.856500
C -12.983200 -2.322800 -10.036200
H -12.278100 -2.625400 -10.536600
20
Fragment
O -13.791200 -5.970300 -13.420000
N -12.919700 -5.134500 -13.606700
O -12.655600 -4.223500 -12.833700
N -12.412600 -6.119000 -15.727700
C -12.137900 -5.223200 -14.816200
N -11.455000 -5.836900 -16.637200
H -11.333300 -6.222800 -17.443300
N -11.102500 -4.399800 -15.046500
C -10.685100 -4.824400 -16.226200
H -9.980000 -4.521800 -16.726500
O -16.089300 -1.176900 -7.230000
N -15.217800 -2.012700 -7.416700
O -14.953700 -2.923700 -6.643700
N -14.710700 -1.028200 -9.537800
C -14.436000 -1.924000 -8.626200
N -13.753100 -1.310300 -10.447200
H -13.631400 -0.924400 -11.253400
N -13.400600 -2.747400 -8.856500
C -12.983200 -2.322800 -10.036200
H -12.278100 -2.625400 -10.536600
