10
Fragment
O -13.791200 -5.970300 -13.420000
N -12.919700 -5.134500 -13.606700
O -12.655600 -4.223500 -12.833700
N -12.412600 -6.119000 -15.727700
C -12.137900 -5.223200 -14.816200
N -11.455000 -5.836900 -16.637200
H -11.333300 -6.222800 -17.443300
N -11.102500 -4.399800 -15.046500
C -10.685100 -4.824400 -16.226200
H -9.980000 -4.521800 -16.726500
10
Fragment
O -13.791200 -10.735100 -13.420000
N -12.919700 -9.899300 -13.606700
O -12.655600 -8.988300 -12.833700
N -12.412600 -10.883800 -15.727700
C -12.137900 -9.988000 -14.816200
N -11.455000 -10.601700 -16.637200
H -11.333300 -10.987600 -17.443300
N -11.102500 -9.164600 -15.046500
C -10.685100 -9.589200 -16.226200
H -9.980000 -9.286600 -16.726500
20
Fragment
O -13.791200 -5.970300 -13.420000
N -12.919700 -5.134500 -13.606700
O -12.655600 -4.223500 -12.833700
N -12.412600 -6.119000 -15.727700
C -12.137900 -5.223200 -14.816200
N -11.455000 -5.836900 -16.637200
H -11.333300 -6.222800 -17.443300
N -11.102500 -4.399800 -15.046500
C -10.685100 -4.824400 -16.226200
H -9.980000 -4.521800 -16.726500
O -13.791200 -10.735100 -13.420000
N -12.919700 -9.899300 -13.606700
O -12.655600 -8.988300 -12.833700
N -12.412600 -10.883800 -15.727700
C -12.137900 -9.988000 -14.816200
N -11.455000 -10.601700 -16.637200
H -11.333300 -10.987600 -17.443300
N -11.102500 -9.164600 -15.046500
C -10.685100 -9.589200 -16.226200
H -9.980000 -9.286600 -16.726500
