16
Fragment
O -16.065900 -5.450700 -23.221600
O -15.989500 -3.767100 -24.601900
N -15.460600 -4.589200 -23.864400
C -14.043500 -4.582900 -23.689400
H -13.949500 -6.955000 -21.735500
C -13.296100 -5.445000 -22.872600
N -13.274100 -6.494200 -22.007100
N -13.271800 -3.685500 -24.297500
N -12.016600 -6.757500 -21.603200
N -12.014400 -3.948800 -23.893600
C -11.992300 -4.998000 -23.028100
H -11.339000 -3.488000 -24.165200
C -11.244900 -5.860100 -22.211400
N -9.827900 -5.853800 -22.036300
O -9.298900 -6.675900 -21.298800
O -9.222500 -4.992300 -22.679100
13
Fragment
H -12.309800 -1.514200 -18.164400
O -12.042000 -3.632200 -19.364600
C -11.404300 -1.408200 -17.949800
N -11.087100 -0.376800 -17.152500
N -10.845500 -3.392800 -19.278600
C -10.432400 -2.259900 -18.443400
O -9.966200 -4.055800 -19.819500
C -9.788200 -0.191600 -16.858900
H -9.591700 0.548300 -16.274900
C -9.093900 -2.077100 -18.149400
C -8.770200 -1.007200 -17.333200
H -8.438400 -2.683900 -18.496500
H -7.879100 -0.830200 -17.101100
29
Fragment
O -16.065900 -5.450700 -23.221600
O -15.989500 -3.767100 -24.601900
N -15.460600 -4.589200 -23.864400
C -14.043500 -4.582900 -23.689400
H -13.949500 -6.955000 -21.735500
C -13.296100 -5.445000 -22.872600
N -13.274100 -6.494200 -22.007100
N -13.271800 -3.685500 -24.297500
N -12.016600 -6.757500 -21.603200
N -12.014400 -3.948800 -23.893600
C -11.992300 -4.998000 -23.028100
H -11.339000 -3.488000 -24.165200
C -11.244900 -5.860100 -22.211400
N -9.827900 -5.853800 -22.036300
O -9.298900 -6.675900 -21.298800
O -9.222500 -4.992300 -22.679100
H -12.309800 -1.514200 -18.164400
O -12.042000 -3.632200 -19.364600
C -11.404300 -1.408200 -17.949800
N -11.087100 -0.376800 -17.152500
N -10.845500 -3.392800 -19.278600
C -10.432400 -2.259900 -18.443400
O -9.966200 -4.055800 -19.819500
C -9.788200 -0.191600 -16.858900
H -9.591700 0.548300 -16.274900
C -9.093900 -2.077100 -18.149400
C -8.770200 -1.007200 -17.333200
H -8.438400 -2.683900 -18.496500
H -7.879100 -0.830200 -17.101100
