10
Fragment
O -13.791200 -5.970300 -13.420000
N -12.919700 -5.134500 -13.606700
O -12.655600 -4.223500 -12.833700
N -12.412600 -6.119000 -15.727700
C -12.137900 -5.223200 -14.816200
N -11.455000 -5.836900 -16.637200
H -11.333300 -6.222800 -17.443300
N -11.102500 -4.399800 -15.046500
C -10.685100 -4.824400 -16.226200
H -9.980000 -4.521800 -16.726500
16
Fragment
O -10.893300 -4.749100 -10.456100
N -10.400100 -6.625900 -12.366200
H -10.249100 -8.057300 -13.679800
N -9.794600 -7.544600 -13.145800
N -9.727800 -5.072100 -10.650300
C -9.434900 -6.107500 -11.601900
O -8.747700 -4.578000 -10.090000
C -8.465100 -7.608000 -12.880200
C -8.190600 -6.686400 -11.879700
O -7.907900 -9.716400 -14.669900
C -7.220700 -8.186900 -13.158000
N -6.927800 -9.222300 -14.109600
N -6.861100 -6.749800 -11.614100
H -6.406600 -6.237100 -11.080100
N -6.255500 -7.668500 -12.393700
O -5.762400 -9.545300 -14.303800
26
Fragment
O -13.791200 -5.970300 -13.420000
N -12.919700 -5.134500 -13.606700
O -12.655600 -4.223500 -12.833700
N -12.412600 -6.119000 -15.727700
C -12.137900 -5.223200 -14.816200
N -11.455000 -5.836900 -16.637200
H -11.333300 -6.222800 -17.443300
N -11.102500 -4.399800 -15.046500
C -10.685100 -4.824400 -16.226200
H -9.980000 -4.521800 -16.726500
O -10.893300 -4.749100 -10.456100
N -10.400100 -6.625900 -12.366200
H -10.249100 -8.057300 -13.679800
N -9.794600 -7.544600 -13.145800
N -9.727800 -5.072100 -10.650300
C -9.434900 -6.107500 -11.601900
O -8.747700 -4.578000 -10.090000
C -8.465100 -7.608000 -12.880200
C -8.190600 -6.686400 -11.879700
O -7.907900 -9.716400 -14.669900
C -7.220700 -8.186900 -13.158000
N -6.927800 -9.222300 -14.109600
N -6.861100 -6.749800 -11.614100
H -6.406600 -6.237100 -11.080100
N -6.255500 -7.668500 -12.393700
O -5.762400 -9.545300 -14.303800
