16
Fragment
O -16.065900 -5.450700 -23.221600
O -15.989500 -3.767100 -24.601900
N -15.460600 -4.589200 -23.864400
C -14.043500 -4.582900 -23.689400
H -13.949500 -6.955000 -21.735500
C -13.296100 -5.445000 -22.872600
N -13.274100 -6.494200 -22.007100
N -13.271800 -3.685500 -24.297500
N -12.016600 -6.757500 -21.603200
N -12.014400 -3.948800 -23.893600
C -11.992300 -4.998000 -23.028100
H -11.339000 -3.488000 -24.165200
C -11.244900 -5.860100 -22.211400
N -9.827900 -5.853800 -22.036300
O -9.298900 -6.675900 -21.298800
O -9.222500 -4.992300 -22.679100
13
Fragment
H -7.767100 -8.662500 -21.149500
H -7.207800 -10.516100 -19.754100
C -6.876000 -8.839500 -20.917400
C -6.552300 -9.909400 -20.101100
H -6.054500 -7.284000 -21.975700
C -5.858000 -8.023900 -21.391700
O -5.680000 -11.888100 -18.431100
C -5.213800 -10.092100 -19.807200
N -4.800700 -11.225000 -18.972000
N -4.559100 -8.209100 -21.098100
C -4.242000 -9.240500 -20.300800
O -3.604300 -11.464500 -18.886000
H -3.336400 -9.346500 -20.086200
29
Fragment
O -16.065900 -5.450700 -23.221600
O -15.989500 -3.767100 -24.601900
N -15.460600 -4.589200 -23.864400
C -14.043500 -4.582900 -23.689400
H -13.949500 -6.955000 -21.735500
C -13.296100 -5.445000 -22.872600
N -13.274100 -6.494200 -22.007100
N -13.271800 -3.685500 -24.297500
N -12.016600 -6.757500 -21.603200
N -12.014400 -3.948800 -23.893600
C -11.992300 -4.998000 -23.028100
H -11.339000 -3.488000 -24.165200
C -11.244900 -5.860100 -22.211400
N -9.827900 -5.853800 -22.036300
O -9.298900 -6.675900 -21.298800
O -9.222500 -4.992300 -22.679100
H -7.767100 -8.662500 -21.149500
H -7.207800 -10.516100 -19.754100
C -6.876000 -8.839500 -20.917400
C -6.552300 -9.909400 -20.101100
H -6.054500 -7.284000 -21.975700
C -5.858000 -8.023900 -21.391700
O -5.680000 -11.888100 -18.431100
C -5.213800 -10.092100 -19.807200
N -4.800700 -11.225000 -18.972000
N -4.559100 -8.209100 -21.098100
C -4.242000 -9.240500 -20.300800
O -3.604300 -11.464500 -18.886000
H -3.336400 -9.346500 -20.086200
