10
Fragment
O -13.791200 -5.970300 -13.420000
N -12.919700 -5.134500 -13.606700
O -12.655600 -4.223500 -12.833700
N -12.412600 -6.119000 -15.727700
C -12.137900 -5.223200 -14.816200
N -11.455000 -5.836900 -16.637200
H -11.333300 -6.222800 -17.443300
N -11.102500 -4.399800 -15.046500
C -10.685100 -4.824400 -16.226200
H -9.980000 -4.521800 -16.726500
10
Fragment
O -11.493200 -1.176900 -19.610000
N -10.621700 -2.012700 -19.796700
O -10.357600 -2.923700 -19.023600
N -10.114500 -1.028200 -21.917700
C -9.839800 -1.924000 -21.006200
N -9.156900 -1.310300 -22.827100
H -9.035200 -0.924400 -23.633300
N -8.804400 -2.747400 -21.236400
C -8.387000 -2.322800 -22.416100
H -7.681900 -2.625400 -22.916500
20
Fragment
O -13.791200 -5.970300 -13.420000
N -12.919700 -5.134500 -13.606700
O -12.655600 -4.223500 -12.833700
N -12.412600 -6.119000 -15.727700
C -12.137900 -5.223200 -14.816200
N -11.455000 -5.836900 -16.637200
H -11.333300 -6.222800 -17.443300
N -11.102500 -4.399800 -15.046500
C -10.685100 -4.824400 -16.226200
H -9.980000 -4.521800 -16.726500
O -11.493200 -1.176900 -19.610000
N -10.621700 -2.012700 -19.796700
O -10.357600 -2.923700 -19.023600
N -10.114500 -1.028200 -21.917700
C -9.839800 -1.924000 -21.006200
N -9.156900 -1.310300 -22.827100
H -9.035200 -0.924400 -23.633300
N -8.804400 -2.747400 -21.236400
C -8.387000 -2.322800 -22.416100
H -7.681900 -2.625400 -22.916500
