16
Fragment
O -16.065900 -5.450700 -23.221600
O -15.989500 -3.767100 -24.601900
N -15.460600 -4.589200 -23.864400
C -14.043500 -4.582900 -23.689400
H -13.949500 -6.955000 -21.735500
C -13.296100 -5.445000 -22.872600
N -13.274100 -6.494200 -22.007100
N -13.271800 -3.685500 -24.297500
N -12.016600 -6.757500 -21.603200
N -12.014400 -3.948800 -23.893600
C -11.992300 -4.998000 -23.028100
H -11.339000 -3.488000 -24.165200
C -11.244900 -5.860100 -22.211400
N -9.827900 -5.853800 -22.036300
O -9.298900 -6.675900 -21.298800
O -9.222500 -4.992300 -22.679100
16
Fragment
O -16.065900 -10.672200 -23.221600
O -15.989500 -8.988600 -24.601900
N -15.460600 -9.810700 -23.864400
C -14.043500 -9.804400 -23.689400
H -13.949500 -12.176500 -21.735500
C -13.296100 -10.666500 -22.872600
N -13.274100 -11.715700 -22.007100
N -13.271800 -8.907000 -24.297500
N -12.016600 -11.979000 -21.603200
N -12.014400 -9.170300 -23.893600
C -11.992300 -10.219500 -23.028100
H -11.339000 -8.709500 -24.165200
C -11.244900 -11.081600 -22.211400
N -9.827900 -11.075300 -22.036300
O -9.298900 -11.897400 -21.298800
O -9.222500 -10.213800 -22.679100
32
Fragment
O -16.065900 -5.450700 -23.221600
O -15.989500 -3.767100 -24.601900
N -15.460600 -4.589200 -23.864400
C -14.043500 -4.582900 -23.689400
H -13.949500 -6.955000 -21.735500
C -13.296100 -5.445000 -22.872600
N -13.274100 -6.494200 -22.007100
N -13.271800 -3.685500 -24.297500
N -12.016600 -6.757500 -21.603200
N -12.014400 -3.948800 -23.893600
C -11.992300 -4.998000 -23.028100
H -11.339000 -3.488000 -24.165200
C -11.244900 -5.860100 -22.211400
N -9.827900 -5.853800 -22.036300
O -9.298900 -6.675900 -21.298800
O -9.222500 -4.992300 -22.679100
O -16.065900 -10.672200 -23.221600
O -15.989500 -8.988600 -24.601900
N -15.460600 -9.810700 -23.864400
C -14.043500 -9.804400 -23.689400
H -13.949500 -12.176500 -21.735500
C -13.296100 -10.666500 -22.872600
N -13.274100 -11.715700 -22.007100
N -13.271800 -8.907000 -24.297500
N -12.016600 -11.979000 -21.603200
N -12.014400 -9.170300 -23.893600
C -11.992300 -10.219500 -23.028100
H -11.339000 -8.709500 -24.165200
C -11.244900 -11.081600 -22.211400
N -9.827900 -11.075300 -22.036300
O -9.298900 -11.897400 -21.298800
O -9.222500 -10.213800 -22.679100
