32
Fragment
O -24.994900 -21.283500 -14.616000
N -24.523800 -20.479100 -15.406500
O -24.489900 -20.699500 -16.623000
N -24.052100 -19.305900 -14.864400
H -23.732400 -18.307200 -12.655200
H -23.494500 -19.111500 -17.529200
N -23.402700 -17.584200 -12.787600
C -23.384900 -18.509500 -15.676600
N -23.300400 -16.776300 -11.711700
N -23.133800 -18.531000 -16.974900
C -22.892800 -16.942600 -13.835900
N -22.808400 -17.388900 -15.134300
N -22.737600 -15.697100 -12.126300
H -22.532900 -17.000100 -18.188100
N -22.454700 -15.761600 -13.459800
H -22.446800 -15.694100 -16.276000
C -22.209300 -17.506400 -17.389100
C -22.066300 -16.608600 -16.139300
N -21.458100 -19.496000 -19.255600
N -20.833600 -17.999800 -17.555100
N -20.787600 -20.427500 -19.991100
N -20.653100 -16.588500 -15.883000
C -20.547700 -18.991400 -18.461100
H -20.277900 -16.076500 -15.273600
C -19.965200 -17.428700 -16.666500
N -19.544400 -20.493400 -19.649200
N -19.370200 -19.582200 -18.674900
N -18.705500 -17.757000 -16.734700
H -18.543400 -19.493600 -18.296100
O -18.258900 -16.428800 -14.942900
N -17.882900 -17.254700 -15.755800
O -16.736300 -17.679800 -15.795500
32
Fragment
O -25.247400 -7.794000 -10.007500
N -24.776300 -8.598400 -10.797900
O -24.742400 -8.378000 -12.014400
N -24.304600 -9.771600 -10.255900
H -23.984900 -10.770300 -8.046600
H -23.747000 -9.966000 -12.920600
N -23.655200 -11.493300 -8.179000
C -23.637400 -10.568000 -11.068000
N -23.552900 -12.301200 -7.103100
N -23.386300 -10.546500 -12.366300
C -23.145300 -12.134900 -9.227300
N -23.060900 -11.688600 -10.525700
N -22.990100 -13.380400 -7.517700
H -22.785300 -12.077400 -13.579500
N -22.707200 -13.315900 -8.851200
H -22.699300 -13.383400 -11.667400
C -22.461800 -11.571100 -12.780500
C -22.318800 -12.468900 -11.530700
N -21.710600 -9.581500 -14.647000
N -21.086100 -11.077700 -12.946500
N -21.040100 -8.650000 -15.382500
N -20.905600 -12.489000 -11.274500
C -20.800200 -10.086100 -13.852500
H -20.530400 -13.001000 -10.665000
C -20.217700 -11.648800 -12.057900
N -19.796900 -8.584100 -15.040600
N -19.622700 -9.495300 -14.066300
N -18.958000 -11.320500 -12.126100
H -18.795900 -9.583900 -13.687500
O -18.511400 -12.648700 -10.334300
N -18.135400 -11.822800 -11.147300
O -16.988800 -11.397700 -11.186900
64
Fragment
O -24.994900 -21.283500 -14.616000
N -24.523800 -20.479100 -15.406500
O -24.489900 -20.699500 -16.623000
N -24.052100 -19.305900 -14.864400
H -23.732400 -18.307200 -12.655200
H -23.494500 -19.111500 -17.529200
N -23.402700 -17.584200 -12.787600
C -23.384900 -18.509500 -15.676600
N -23.300400 -16.776300 -11.711700
N -23.133800 -18.531000 -16.974900
C -22.892800 -16.942600 -13.835900
N -22.808400 -17.388900 -15.134300
N -22.737600 -15.697100 -12.126300
H -22.532900 -17.000100 -18.188100
N -22.454700 -15.761600 -13.459800
H -22.446800 -15.694100 -16.276000
C -22.209300 -17.506400 -17.389100
C -22.066300 -16.608600 -16.139300
N -21.458100 -19.496000 -19.255600
N -20.833600 -17.999800 -17.555100
N -20.787600 -20.427500 -19.991100
N -20.653100 -16.588500 -15.883000
C -20.547700 -18.991400 -18.461100
H -20.277900 -16.076500 -15.273600
C -19.965200 -17.428700 -16.666500
N -19.544400 -20.493400 -19.649200
N -19.370200 -19.582200 -18.674900
N -18.705500 -17.757000 -16.734700
H -18.543400 -19.493600 -18.296100
O -18.258900 -16.428800 -14.942900
N -17.882900 -17.254700 -15.755800
O -16.736300 -17.679800 -15.795500
O -25.247400 -7.794000 -10.007500
N -24.776300 -8.598400 -10.797900
O -24.742400 -8.378000 -12.014400
N -24.304600 -9.771600 -10.255900
H -23.984900 -10.770300 -8.046600
H -23.747000 -9.966000 -12.920600
N -23.655200 -11.493300 -8.179000
C -23.637400 -10.568000 -11.068000
N -23.552900 -12.301200 -7.103100
N -23.386300 -10.546500 -12.366300
C -23.145300 -12.134900 -9.227300
N -23.060900 -11.688600 -10.525700
N -22.990100 -13.380400 -7.517700
H -22.785300 -12.077400 -13.579500
N -22.707200 -13.315900 -8.851200
H -22.699300 -13.383400 -11.667400
C -22.461800 -11.571100 -12.780500
C -22.318800 -12.468900 -11.530700
N -21.710600 -9.581500 -14.647000
N -21.086100 -11.077700 -12.946500
N -21.040100 -8.650000 -15.382500
N -20.905600 -12.489000 -11.274500
C -20.800200 -10.086100 -13.852500
H -20.530400 -13.001000 -10.665000
C -20.217700 -11.648800 -12.057900
N -19.796900 -8.584100 -15.040600
N -19.622700 -9.495300 -14.066300
N -18.958000 -11.320500 -12.126100
H -18.795900 -9.583900 -13.687500
O -18.511400 -12.648700 -10.334300
N -18.135400 -11.822800 -11.147300
O -16.988800 -11.397700 -11.186900
