32
Fragment
O -24.994900 -21.283500 -14.616000
N -24.523800 -20.479100 -15.406500
O -24.489900 -20.699500 -16.623000
N -24.052100 -19.305900 -14.864400
H -23.732400 -18.307200 -12.655200
H -23.494500 -19.111500 -17.529200
N -23.402700 -17.584200 -12.787600
C -23.384900 -18.509500 -15.676600
N -23.300400 -16.776300 -11.711700
N -23.133800 -18.531000 -16.974900
C -22.892800 -16.942600 -13.835900
N -22.808400 -17.388900 -15.134300
N -22.737600 -15.697100 -12.126300
H -22.532900 -17.000100 -18.188100
N -22.454700 -15.761600 -13.459800
H -22.446800 -15.694100 -16.276000
C -22.209300 -17.506400 -17.389100
C -22.066300 -16.608600 -16.139300
N -21.458100 -19.496000 -19.255600
N -20.833600 -17.999800 -17.555100
N -20.787600 -20.427500 -19.991100
N -20.653100 -16.588500 -15.883000
C -20.547700 -18.991400 -18.461100
H -20.277900 -16.076500 -15.273600
C -19.965200 -17.428700 -16.666500
N -19.544400 -20.493400 -19.649200
N -19.370200 -19.582200 -18.674900
N -18.705500 -17.757000 -16.734700
H -18.543400 -19.493600 -18.296100
O -18.258900 -16.428800 -14.942900
N -17.882900 -17.254700 -15.755800
O -16.736300 -17.679800 -15.795500
32
Fragment
O -33.252700 -17.213200 -11.856100
N -32.106100 -17.638300 -11.895700
O -31.730100 -18.464200 -12.708600
H -31.445700 -15.399400 -9.355400
N -31.283500 -17.136000 -10.916800
N -30.618800 -15.310800 -8.976600
N -30.444700 -14.399600 -8.002400
C -30.023800 -17.464300 -10.985000
H -29.711100 -18.816500 -12.377900
C -29.441300 -15.901600 -9.190400
N -29.336000 -18.304500 -11.768500
N -29.201400 -14.465500 -7.660400
N -29.155400 -16.893200 -10.096400
N -28.531000 -15.397000 -8.395900
C -27.922700 -18.284400 -11.512300
C -27.779700 -17.386600 -10.262400
H -27.542200 -19.198900 -11.375600
N -27.534300 -19.131400 -14.191800
H -27.456200 -17.892900 -9.463500
N -27.251400 -19.195900 -15.525200
N -27.180600 -17.504100 -12.517200
C -27.096200 -17.950400 -13.815600
N -26.855200 -16.362000 -10.676600
N -26.688700 -18.116700 -15.939800
C -26.604100 -16.383500 -11.975000
N -26.586300 -17.308800 -14.863900
H -26.494500 -15.781500 -10.122300
H -26.256600 -16.585800 -14.996300
N -25.936900 -15.587100 -12.787100
O -25.499200 -14.193500 -11.028500
N -25.465200 -14.413900 -12.245000
O -24.994200 -13.609500 -13.035500
64
Fragment
O -24.994900 -21.283500 -14.616000
N -24.523800 -20.479100 -15.406500
O -24.489900 -20.699500 -16.623000
N -24.052100 -19.305900 -14.864400
H -23.732400 -18.307200 -12.655200
H -23.494500 -19.111500 -17.529200
N -23.402700 -17.584200 -12.787600
C -23.384900 -18.509500 -15.676600
N -23.300400 -16.776300 -11.711700
N -23.133800 -18.531000 -16.974900
C -22.892800 -16.942600 -13.835900
N -22.808400 -17.388900 -15.134300
N -22.737600 -15.697100 -12.126300
H -22.532900 -17.000100 -18.188100
N -22.454700 -15.761600 -13.459800
H -22.446800 -15.694100 -16.276000
C -22.209300 -17.506400 -17.389100
C -22.066300 -16.608600 -16.139300
N -21.458100 -19.496000 -19.255600
N -20.833600 -17.999800 -17.555100
N -20.787600 -20.427500 -19.991100
N -20.653100 -16.588500 -15.883000
C -20.547700 -18.991400 -18.461100
H -20.277900 -16.076500 -15.273600
C -19.965200 -17.428700 -16.666500
N -19.544400 -20.493400 -19.649200
N -19.370200 -19.582200 -18.674900
N -18.705500 -17.757000 -16.734700
H -18.543400 -19.493600 -18.296100
O -18.258900 -16.428800 -14.942900
N -17.882900 -17.254700 -15.755800
O -16.736300 -17.679800 -15.795500
O -33.252700 -17.213200 -11.856100
N -32.106100 -17.638300 -11.895700
O -31.730100 -18.464200 -12.708600
H -31.445700 -15.399400 -9.355400
N -31.283500 -17.136000 -10.916800
N -30.618800 -15.310800 -8.976600
N -30.444700 -14.399600 -8.002400
C -30.023800 -17.464300 -10.985000
H -29.711100 -18.816500 -12.377900
C -29.441300 -15.901600 -9.190400
N -29.336000 -18.304500 -11.768500
N -29.201400 -14.465500 -7.660400
N -29.155400 -16.893200 -10.096400
N -28.531000 -15.397000 -8.395900
C -27.922700 -18.284400 -11.512300
C -27.779700 -17.386600 -10.262400
H -27.542200 -19.198900 -11.375600
N -27.534300 -19.131400 -14.191800
H -27.456200 -17.892900 -9.463500
N -27.251400 -19.195900 -15.525200
N -27.180600 -17.504100 -12.517200
C -27.096200 -17.950400 -13.815600
N -26.855200 -16.362000 -10.676600
N -26.688700 -18.116700 -15.939800
C -26.604100 -16.383500 -11.975000
N -26.586300 -17.308800 -14.863900
H -26.494500 -15.781500 -10.122300
H -26.256600 -16.585800 -14.996300
N -25.936900 -15.587100 -12.787100
O -25.499200 -14.193500 -11.028500
N -25.465200 -14.413900 -12.245000
O -24.994200 -13.609500 -13.035500
