34
Fragment
H -20.372100 -17.768100 -10.979000
H -20.218200 -20.457400 -11.016500
H -19.618100 -15.162400 -10.280500
C -19.442100 -17.876400 -10.815100
C -19.244300 -20.460600 -10.903200
H -19.010800 -20.974300 -10.102300
H -18.825600 -20.870600 -11.688400
C -18.758700 -19.063500 -10.755300
C -18.718800 -15.368600 -10.611700
H -18.625600 -15.039900 -11.530000
C -18.507000 -16.847400 -10.588000
H -18.051400 -14.933500 -10.040200
N -17.451700 -18.718800 -10.483700
N -17.299800 -17.351700 -10.374000
C -16.308800 -19.512400 -10.345300
N -16.258500 -20.646600 -11.048300
N -15.354700 -19.023800 -9.541900
N -15.150200 -21.355300 -10.941200
N -14.246300 -19.732500 -9.434800
C -14.196100 -20.866700 -10.137900
N -13.205100 -23.027400 -10.109200
N -13.053100 -21.660300 -9.999500
H -12.453400 -25.445600 -10.443000
C -11.997800 -23.531700 -9.895100
H -11.879200 -25.339200 -8.953200
C -11.786100 -25.010500 -9.871400
C -11.746200 -21.315600 -9.727900
H -11.679300 -19.508500 -8.794800
H -11.494000 -19.404800 -10.380900
C -11.260500 -19.918500 -9.580000
C -11.062800 -22.502700 -9.668000
H -10.886800 -25.216700 -10.202700
H -10.286600 -19.921700 -9.466600
H -10.132800 -22.611000 -9.504200
34
Fragment
H -19.661600 -29.340800 -14.392800
H -19.507800 -26.651600 -14.430400
H -18.907600 -31.946600 -13.694300
C -18.731600 -29.232600 -14.229000
C -18.533900 -26.648300 -14.317000
H -18.300400 -26.134700 -13.516100
H -18.115200 -26.238300 -15.102200
C -18.048200 -28.045400 -14.169100
C -18.008300 -31.740400 -14.025600
H -17.915200 -32.069100 -14.943800
C -17.796600 -30.261600 -14.001900
H -17.341000 -32.175400 -13.454000
N -16.741300 -28.390100 -13.897500
N -16.589400 -29.757200 -13.787800
C -15.598300 -27.596600 -13.759100
N -15.548100 -26.462300 -14.462200
N -14.644200 -28.085100 -12.955800
N -14.439700 -25.753700 -14.355100
N -13.535900 -27.376500 -12.848700
C -13.485600 -26.242200 -13.551700
N -12.494600 -24.081600 -13.523000
N -12.342700 -25.448700 -13.413300
H -11.743000 -21.663400 -13.856800
C -11.287400 -23.577200 -13.309000
H -11.168800 -21.769700 -12.367000
C -11.075600 -22.098400 -13.285300
C -11.035700 -25.793400 -13.141700
H -10.968800 -27.600500 -12.208600
H -10.783600 -27.704100 -13.794700
C -10.550100 -27.190500 -12.993800
C -10.352400 -24.606200 -13.081900
H -10.176300 -21.892200 -13.616500
H -9.576200 -27.187200 -12.880500
H -9.422300 -24.498000 -12.918000
68
Fragment
H -20.372100 -17.768100 -10.979000
H -20.218200 -20.457400 -11.016500
H -19.618100 -15.162400 -10.280500
C -19.442100 -17.876400 -10.815100
C -19.244300 -20.460600 -10.903200
H -19.010800 -20.974300 -10.102300
H -18.825600 -20.870600 -11.688400
C -18.758700 -19.063500 -10.755300
C -18.718800 -15.368600 -10.611700
H -18.625600 -15.039900 -11.530000
C -18.507000 -16.847400 -10.588000
H -18.051400 -14.933500 -10.040200
N -17.451700 -18.718800 -10.483700
N -17.299800 -17.351700 -10.374000
C -16.308800 -19.512400 -10.345300
N -16.258500 -20.646600 -11.048300
N -15.354700 -19.023800 -9.541900
N -15.150200 -21.355300 -10.941200
N -14.246300 -19.732500 -9.434800
C -14.196100 -20.866700 -10.137900
N -13.205100 -23.027400 -10.109200
N -13.053100 -21.660300 -9.999500
H -12.453400 -25.445600 -10.443000
C -11.997800 -23.531700 -9.895100
H -11.879200 -25.339200 -8.953200
C -11.786100 -25.010500 -9.871400
C -11.746200 -21.315600 -9.727900
H -11.679300 -19.508500 -8.794800
H -11.494000 -19.404800 -10.380900
C -11.260500 -19.918500 -9.580000
C -11.062800 -22.502700 -9.668000
H -10.886800 -25.216700 -10.202700
H -10.286600 -19.921700 -9.466600
H -10.132800 -22.611000 -9.504200
H -19.661600 -29.340800 -14.392800
H -19.507800 -26.651600 -14.430400
H -18.907600 -31.946600 -13.694300
C -18.731600 -29.232600 -14.229000
C -18.533900 -26.648300 -14.317000
H -18.300400 -26.134700 -13.516100
H -18.115200 -26.238300 -15.102200
C -18.048200 -28.045400 -14.169100
C -18.008300 -31.740400 -14.025600
H -17.915200 -32.069100 -14.943800
C -17.796600 -30.261600 -14.001900
H -17.341000 -32.175400 -13.454000
N -16.741300 -28.390100 -13.897500
N -16.589400 -29.757200 -13.787800
C -15.598300 -27.596600 -13.759100
N -15.548100 -26.462300 -14.462200
N -14.644200 -28.085100 -12.955800
N -14.439700 -25.753700 -14.355100
N -13.535900 -27.376500 -12.848700
C -13.485600 -26.242200 -13.551700
N -12.494600 -24.081600 -13.523000
N -12.342700 -25.448700 -13.413300
H -11.743000 -21.663400 -13.856800
C -11.287400 -23.577200 -13.309000
H -11.168800 -21.769700 -12.367000
C -11.075600 -22.098400 -13.285300
C -11.035700 -25.793400 -13.141700
H -10.968800 -27.600500 -12.208600
H -10.783600 -27.704100 -13.794700
C -10.550100 -27.190500 -12.993800
C -10.352400 -24.606200 -13.081900
H -10.176300 -21.892200 -13.616500
H -9.576200 -27.187200 -12.880500
H -9.422300 -24.498000 -12.918000
