23
Fragment
H -9.055100 -52.490900 -7.421400
H -8.368500 -52.195800 -6.005300
H -8.365400 -50.619700 -9.469600
H -8.253000 -47.102500 -9.440100
C -8.247000 -52.156600 -6.977400
C -8.098000 -50.176100 -8.673700
C -8.000600 -50.743900 -7.388800
H -7.809200 -48.228300 -10.489300
C -7.734400 -48.862000 -8.555800
C -7.615300 -47.826000 -9.616300
N -7.602000 -49.843000 -6.496100
H -7.480800 -52.710000 -7.234500
N -7.443300 -48.683100 -7.219100
C -7.018000 -47.538800 -6.533400
N -6.950500 -46.398400 -7.219900
N -6.752700 -47.686400 -5.235700
H -6.704200 -47.464600 -9.619400
N -6.515600 -45.331400 -6.583500
N -6.328300 -46.618700 -4.581400
C -6.179000 -45.472300 -5.281000
N -5.701600 -44.401600 -4.652000
H -5.597100 -43.646100 -5.089100
H -5.491100 -44.449300 -3.799100
23
Fragment
H -6.117200 -46.828700 -2.472100
H -6.011100 -47.631900 -1.182100
N -5.906700 -46.876400 -1.619200
C -5.429300 -45.805700 -0.990200
N -5.279900 -44.659300 -1.689800
N -5.092700 -45.946600 0.312300
H -4.904100 -43.813400 3.348200
N -4.855500 -43.591600 -1.035500
N -4.657700 -44.879600 0.948600
C -4.590300 -43.739200 0.262100
N -4.165000 -42.594900 0.947800
H -4.127500 -38.568000 0.963300
N -4.006200 -41.435000 0.224800
C -3.992900 -43.452000 3.345100
C -3.873900 -42.416000 2.284600
H -3.799000 -43.049700 4.218000
C -3.607700 -40.534100 1.117500
C -3.510300 -41.101900 2.402500
C -3.361200 -39.121400 0.706100
H -3.355300 -44.175500 3.168900
H -3.242800 -40.658300 3.198300
H -3.239700 -39.082200 -0.265900
H -2.553200 -38.787100 1.150100
46
Fragment
H -9.055100 -52.490900 -7.421400
H -8.368500 -52.195800 -6.005300
H -8.365400 -50.619700 -9.469600
H -8.253000 -47.102500 -9.440100
C -8.247000 -52.156600 -6.977400
C -8.098000 -50.176100 -8.673700
C -8.000600 -50.743900 -7.388800
H -7.809200 -48.228300 -10.489300
C -7.734400 -48.862000 -8.555800
C -7.615300 -47.826000 -9.616300
N -7.602000 -49.843000 -6.496100
H -7.480800 -52.710000 -7.234500
N -7.443300 -48.683100 -7.219100
C -7.018000 -47.538800 -6.533400
N -6.950500 -46.398400 -7.219900
N -6.752700 -47.686400 -5.235700
H -6.704200 -47.464600 -9.619400
N -6.515600 -45.331400 -6.583500
N -6.328300 -46.618700 -4.581400
C -6.179000 -45.472300 -5.281000
N -5.701600 -44.401600 -4.652000
H -5.597100 -43.646100 -5.089100
H -5.491100 -44.449300 -3.799100
H -6.117200 -46.828700 -2.472100
H -6.011100 -47.631900 -1.182100
N -5.906700 -46.876400 -1.619200
C -5.429300 -45.805700 -0.990200
N -5.279900 -44.659300 -1.689800
N -5.092700 -45.946600 0.312300
H -4.904100 -43.813400 3.348200
N -4.855500 -43.591600 -1.035500
N -4.657700 -44.879600 0.948600
C -4.590300 -43.739200 0.262100
N -4.165000 -42.594900 0.947800
H -4.127500 -38.568000 0.963300
N -4.006200 -41.435000 0.224800
C -3.992900 -43.452000 3.345100
C -3.873900 -42.416000 2.284600
H -3.799000 -43.049700 4.218000
C -3.607700 -40.534100 1.117500
C -3.510300 -41.101900 2.402500
C -3.361200 -39.121400 0.706100
H -3.355300 -44.175500 3.168900
H -3.242800 -40.658300 3.198300
H -3.239700 -39.082200 -0.265900
H -2.553200 -38.787100 1.150100
