23
Fragment
H -9.055100 -52.490900 -7.421400
H -8.368500 -52.195800 -6.005300
H -8.365400 -50.619700 -9.469600
H -8.253000 -47.102500 -9.440100
C -8.247000 -52.156600 -6.977400
C -8.098000 -50.176100 -8.673700
C -8.000600 -50.743900 -7.388800
H -7.809200 -48.228300 -10.489300
C -7.734400 -48.862000 -8.555800
C -7.615300 -47.826000 -9.616300
N -7.602000 -49.843000 -6.496100
H -7.480800 -52.710000 -7.234500
N -7.443300 -48.683100 -7.219100
C -7.018000 -47.538800 -6.533400
N -6.950500 -46.398400 -7.219900
N -6.752700 -47.686400 -5.235700
H -6.704200 -47.464600 -9.619400
N -6.515600 -45.331400 -6.583500
N -6.328300 -46.618700 -4.581400
C -6.179000 -45.472300 -5.281000
N -5.701600 -44.401600 -4.652000
H -5.597100 -43.646100 -5.089100
H -5.491100 -44.449300 -3.799100
23
Fragment
H -3.946400 -46.828700 -8.743300
H -3.840400 -47.631900 -7.453400
N -3.735900 -46.876400 -7.890500
C -3.258500 -45.805700 -7.261500
N -3.109200 -44.659300 -7.961000
N -2.921900 -45.946600 -5.958900
H -2.733300 -43.813400 -2.923000
N -2.684800 -43.591600 -7.306700
N -2.487000 -44.879600 -5.322600
C -2.419500 -43.739200 -6.009100
N -1.994200 -42.594900 -5.323400
H -1.956700 -38.568000 -5.308000
N -1.835500 -41.435000 -6.046400
C -1.822200 -43.452000 -2.926200
C -1.703100 -42.416000 -3.986600
H -1.628300 -43.049700 -2.053200
C -1.436900 -40.534100 -5.153700
C -1.339500 -41.101900 -3.868700
C -1.190500 -39.121400 -5.565100
H -1.184500 -44.175500 -3.102400
H -1.072100 -40.658300 -3.072900
H -1.069000 -39.082200 -6.537100
H -0.382400 -38.787100 -5.121100
46
Fragment
H -9.055100 -52.490900 -7.421400
H -8.368500 -52.195800 -6.005300
H -8.365400 -50.619700 -9.469600
H -8.253000 -47.102500 -9.440100
C -8.247000 -52.156600 -6.977400
C -8.098000 -50.176100 -8.673700
C -8.000600 -50.743900 -7.388800
H -7.809200 -48.228300 -10.489300
C -7.734400 -48.862000 -8.555800
C -7.615300 -47.826000 -9.616300
N -7.602000 -49.843000 -6.496100
H -7.480800 -52.710000 -7.234500
N -7.443300 -48.683100 -7.219100
C -7.018000 -47.538800 -6.533400
N -6.950500 -46.398400 -7.219900
N -6.752700 -47.686400 -5.235700
H -6.704200 -47.464600 -9.619400
N -6.515600 -45.331400 -6.583500
N -6.328300 -46.618700 -4.581400
C -6.179000 -45.472300 -5.281000
N -5.701600 -44.401600 -4.652000
H -5.597100 -43.646100 -5.089100
H -5.491100 -44.449300 -3.799100
H -3.946400 -46.828700 -8.743300
H -3.840400 -47.631900 -7.453400
N -3.735900 -46.876400 -7.890500
C -3.258500 -45.805700 -7.261500
N -3.109200 -44.659300 -7.961000
N -2.921900 -45.946600 -5.958900
H -2.733300 -43.813400 -2.923000
N -2.684800 -43.591600 -7.306700
N -2.487000 -44.879600 -5.322600
C -2.419500 -43.739200 -6.009100
N -1.994200 -42.594900 -5.323400
H -1.956700 -38.568000 -5.308000
N -1.835500 -41.435000 -6.046400
C -1.822200 -43.452000 -2.926200
C -1.703100 -42.416000 -3.986600
H -1.628300 -43.049700 -2.053200
C -1.436900 -40.534100 -5.153700
C -1.339500 -41.101900 -3.868700
C -1.190500 -39.121400 -5.565100
H -1.184500 -44.175500 -3.102400
H -1.072100 -40.658300 -3.072900
H -1.069000 -39.082200 -6.537100
H -0.382400 -38.787100 -5.121100
