34
Fragment
H -20.372100 -17.768100 -10.979000
H -20.218200 -20.457400 -11.016500
H -19.618100 -15.162400 -10.280500
C -19.442100 -17.876400 -10.815100
C -19.244300 -20.460600 -10.903200
H -19.010800 -20.974300 -10.102300
H -18.825600 -20.870600 -11.688400
C -18.758700 -19.063500 -10.755300
C -18.718800 -15.368600 -10.611700
H -18.625600 -15.039900 -11.530000
C -18.507000 -16.847400 -10.588000
H -18.051400 -14.933500 -10.040200
N -17.451700 -18.718800 -10.483700
N -17.299800 -17.351700 -10.374000
C -16.308800 -19.512400 -10.345300
N -16.258500 -20.646600 -11.048300
N -15.354700 -19.023800 -9.541900
N -15.150200 -21.355300 -10.941200
N -14.246300 -19.732500 -9.434800
C -14.196100 -20.866700 -10.137900
N -13.205100 -23.027400 -10.109200
N -13.053100 -21.660300 -9.999500
H -12.453400 -25.445600 -10.443000
C -11.997800 -23.531700 -9.895100
H -11.879200 -25.339200 -8.953200
C -11.786100 -25.010500 -9.871400
C -11.746200 -21.315600 -9.727900
H -11.679300 -19.508500 -8.794800
H -11.494000 -19.404800 -10.380900
C -11.260500 -19.918500 -9.580000
C -11.062800 -22.502700 -9.668000
H -10.886800 -25.216700 -10.202700
H -10.286600 -19.921700 -9.466600
H -10.132800 -22.611000 -9.504200
9
Fragment
H -15.702300 -29.925000 -10.090000
N -14.948600 -29.501000 -9.926200
N -14.899000 -28.361500 -9.258700
N -13.775500 -29.948900 -10.326200
N -13.624700 -28.016000 -9.199700
C -12.997000 -28.997600 -9.851600
N -11.562000 -29.034700 -10.032600
O -11.099800 -29.952900 -10.696400
O -10.909400 -28.136300 -9.518700
43
Fragment
H -20.372100 -17.768100 -10.979000
H -20.218200 -20.457400 -11.016500
H -19.618100 -15.162400 -10.280500
C -19.442100 -17.876400 -10.815100
C -19.244300 -20.460600 -10.903200
H -19.010800 -20.974300 -10.102300
H -18.825600 -20.870600 -11.688400
C -18.758700 -19.063500 -10.755300
C -18.718800 -15.368600 -10.611700
H -18.625600 -15.039900 -11.530000
C -18.507000 -16.847400 -10.588000
H -18.051400 -14.933500 -10.040200
N -17.451700 -18.718800 -10.483700
N -17.299800 -17.351700 -10.374000
C -16.308800 -19.512400 -10.345300
N -16.258500 -20.646600 -11.048300
N -15.354700 -19.023800 -9.541900
N -15.150200 -21.355300 -10.941200
N -14.246300 -19.732500 -9.434800
C -14.196100 -20.866700 -10.137900
N -13.205100 -23.027400 -10.109200
N -13.053100 -21.660300 -9.999500
H -12.453400 -25.445600 -10.443000
C -11.997800 -23.531700 -9.895100
H -11.879200 -25.339200 -8.953200
C -11.786100 -25.010500 -9.871400
C -11.746200 -21.315600 -9.727900
H -11.679300 -19.508500 -8.794800
H -11.494000 -19.404800 -10.380900
C -11.260500 -19.918500 -9.580000
C -11.062800 -22.502700 -9.668000
H -10.886800 -25.216700 -10.202700
H -10.286600 -19.921700 -9.466600
H -10.132800 -22.611000 -9.504200
H -15.702300 -29.925000 -10.090000
N -14.948600 -29.501000 -9.926200
N -14.899000 -28.361500 -9.258700
N -13.775500 -29.948900 -10.326200
N -13.624700 -28.016000 -9.199700
C -12.997000 -28.997600 -9.851600
N -11.562000 -29.034700 -10.032600
O -11.099800 -29.952900 -10.696400
O -10.909400 -28.136300 -9.518700
