23
Fragment
H -9.055100 -52.490900 -7.421400
H -8.368500 -52.195800 -6.005300
H -8.365400 -50.619700 -9.469600
H -8.253000 -47.102500 -9.440100
C -8.247000 -52.156600 -6.977400
C -8.098000 -50.176100 -8.673700
C -8.000600 -50.743900 -7.388800
H -7.809200 -48.228300 -10.489300
C -7.734400 -48.862000 -8.555800
C -7.615300 -47.826000 -9.616300
N -7.602000 -49.843000 -6.496100
H -7.480800 -52.710000 -7.234500
N -7.443300 -48.683100 -7.219100
C -7.018000 -47.538800 -6.533400
N -6.950500 -46.398400 -7.219900
N -6.752700 -47.686400 -5.235700
H -6.704200 -47.464600 -9.619400
N -6.515600 -45.331400 -6.583500
N -6.328300 -46.618700 -4.581400
C -6.179000 -45.472300 -5.281000
N -5.701600 -44.401600 -4.652000
H -5.597100 -43.646100 -5.089100
H -5.491100 -44.449300 -3.799100
23
Fragment
H -7.969700 -54.000100 -10.557000
H -7.283200 -54.295200 -9.140900
H -7.280000 -55.871300 -12.605200
H -7.167600 -59.388500 -12.575700
C -7.161600 -54.334400 -10.113000
C -7.012600 -56.314900 -11.809400
C -6.915200 -55.747100 -10.524400
H -6.723800 -58.262700 -13.624900
C -6.649000 -57.629000 -11.691500
C -6.530000 -58.665000 -12.751900
N -6.516700 -56.648000 -9.631700
H -6.395400 -53.781000 -10.370100
N -6.357900 -57.807900 -10.354700
C -5.932600 -58.952200 -9.669000
N -5.865100 -60.092600 -10.355500
N -5.667300 -58.804600 -8.371300
H -5.618800 -59.026400 -12.755100
N -5.430200 -61.159600 -9.719200
N -5.243000 -59.872300 -7.717100
C -5.093600 -61.018700 -8.416600
N -4.616200 -62.089400 -7.787600
H -4.511700 -62.844900 -8.224700
H -4.405700 -62.041700 -6.934700
46
Fragment
H -9.055100 -52.490900 -7.421400
H -8.368500 -52.195800 -6.005300
H -8.365400 -50.619700 -9.469600
H -8.253000 -47.102500 -9.440100
C -8.247000 -52.156600 -6.977400
C -8.098000 -50.176100 -8.673700
C -8.000600 -50.743900 -7.388800
H -7.809200 -48.228300 -10.489300
C -7.734400 -48.862000 -8.555800
C -7.615300 -47.826000 -9.616300
N -7.602000 -49.843000 -6.496100
H -7.480800 -52.710000 -7.234500
N -7.443300 -48.683100 -7.219100
C -7.018000 -47.538800 -6.533400
N -6.950500 -46.398400 -7.219900
N -6.752700 -47.686400 -5.235700
H -6.704200 -47.464600 -9.619400
N -6.515600 -45.331400 -6.583500
N -6.328300 -46.618700 -4.581400
C -6.179000 -45.472300 -5.281000
N -5.701600 -44.401600 -4.652000
H -5.597100 -43.646100 -5.089100
H -5.491100 -44.449300 -3.799100
H -7.969700 -54.000100 -10.557000
H -7.283200 -54.295200 -9.140900
H -7.280000 -55.871300 -12.605200
H -7.167600 -59.388500 -12.575700
C -7.161600 -54.334400 -10.113000
C -7.012600 -56.314900 -11.809400
C -6.915200 -55.747100 -10.524400
H -6.723800 -58.262700 -13.624900
C -6.649000 -57.629000 -11.691500
C -6.530000 -58.665000 -12.751900
N -6.516700 -56.648000 -9.631700
H -6.395400 -53.781000 -10.370100
N -6.357900 -57.807900 -10.354700
C -5.932600 -58.952200 -9.669000
N -5.865100 -60.092600 -10.355500
N -5.667300 -58.804600 -8.371300
H -5.618800 -59.026400 -12.755100
N -5.430200 -61.159600 -9.719200
N -5.243000 -59.872300 -7.717100
C -5.093600 -61.018700 -8.416600
N -4.616200 -62.089400 -7.787600
H -4.511700 -62.844900 -8.224700
H -4.405700 -62.041700 -6.934700
