23
Fragment
H -9.055100 -52.490900 -7.421400
H -8.368500 -52.195800 -6.005300
H -8.365400 -50.619700 -9.469600
H -8.253000 -47.102500 -9.440100
C -8.247000 -52.156600 -6.977400
C -8.098000 -50.176100 -8.673700
C -8.000600 -50.743900 -7.388800
H -7.809200 -48.228300 -10.489300
C -7.734400 -48.862000 -8.555800
C -7.615300 -47.826000 -9.616300
N -7.602000 -49.843000 -6.496100
H -7.480800 -52.710000 -7.234500
N -7.443300 -48.683100 -7.219100
C -7.018000 -47.538800 -6.533400
N -6.950500 -46.398400 -7.219900
N -6.752700 -47.686400 -5.235700
H -6.704200 -47.464600 -9.619400
N -6.515600 -45.331400 -6.583500
N -6.328300 -46.618700 -4.581400
C -6.179000 -45.472300 -5.281000
N -5.701600 -44.401600 -4.652000
H -5.597100 -43.646100 -5.089100
H -5.491100 -44.449300 -3.799100
23
Fragment
H -4.336300 -52.490900 -1.150100
H -3.649800 -52.195800 0.265900
H -3.646700 -50.619700 -3.198300
H -3.534200 -47.102500 -3.168900
C -3.528300 -52.156600 -0.706100
C -3.379200 -50.176100 -2.402500
C -3.281800 -50.743900 -1.117500
H -3.090500 -48.228300 -4.218000
C -3.015600 -48.862000 -2.284600
C -2.896600 -47.826000 -3.345100
N -2.883300 -49.843000 -0.224800
H -2.762000 -52.710000 -0.963300
N -2.724500 -48.683100 -0.947800
C -2.299200 -47.538800 -0.262100
N -2.231800 -46.398400 -0.948600
N -2.034000 -47.686400 1.035500
H -1.985400 -47.464600 -3.348200
N -1.796800 -45.331400 -0.312300
N -1.609600 -46.618700 1.689800
C -1.460200 -45.472300 0.990200
N -0.982800 -44.401600 1.619200
H -0.878400 -43.646100 1.182100
H -0.772300 -44.449300 2.472100
46
Fragment
H -9.055100 -52.490900 -7.421400
H -8.368500 -52.195800 -6.005300
H -8.365400 -50.619700 -9.469600
H -8.253000 -47.102500 -9.440100
C -8.247000 -52.156600 -6.977400
C -8.098000 -50.176100 -8.673700
C -8.000600 -50.743900 -7.388800
H -7.809200 -48.228300 -10.489300
C -7.734400 -48.862000 -8.555800
C -7.615300 -47.826000 -9.616300
N -7.602000 -49.843000 -6.496100
H -7.480800 -52.710000 -7.234500
N -7.443300 -48.683100 -7.219100
C -7.018000 -47.538800 -6.533400
N -6.950500 -46.398400 -7.219900
N -6.752700 -47.686400 -5.235700
H -6.704200 -47.464600 -9.619400
N -6.515600 -45.331400 -6.583500
N -6.328300 -46.618700 -4.581400
C -6.179000 -45.472300 -5.281000
N -5.701600 -44.401600 -4.652000
H -5.597100 -43.646100 -5.089100
H -5.491100 -44.449300 -3.799100
H -4.336300 -52.490900 -1.150100
H -3.649800 -52.195800 0.265900
H -3.646700 -50.619700 -3.198300
H -3.534200 -47.102500 -3.168900
C -3.528300 -52.156600 -0.706100
C -3.379200 -50.176100 -2.402500
C -3.281800 -50.743900 -1.117500
H -3.090500 -48.228300 -4.218000
C -3.015600 -48.862000 -2.284600
C -2.896600 -47.826000 -3.345100
N -2.883300 -49.843000 -0.224800
H -2.762000 -52.710000 -0.963300
N -2.724500 -48.683100 -0.947800
C -2.299200 -47.538800 -0.262100
N -2.231800 -46.398400 -0.948600
N -2.034000 -47.686400 1.035500
H -1.985400 -47.464600 -3.348200
N -1.796800 -45.331400 -0.312300
N -1.609600 -46.618700 1.689800
C -1.460200 -45.472300 0.990200
N -0.982800 -44.401600 1.619200
H -0.878400 -43.646100 1.182100
H -0.772300 -44.449300 2.472100
