23
Fragment
H -9.055100 -52.490900 -7.421400
H -8.368500 -52.195800 -6.005300
H -8.365400 -50.619700 -9.469600
H -8.253000 -47.102500 -9.440100
C -8.247000 -52.156600 -6.977400
C -8.098000 -50.176100 -8.673700
C -8.000600 -50.743900 -7.388800
H -7.809200 -48.228300 -10.489300
C -7.734400 -48.862000 -8.555800
C -7.615300 -47.826000 -9.616300
N -7.602000 -49.843000 -6.496100
H -7.480800 -52.710000 -7.234500
N -7.443300 -48.683100 -7.219100
C -7.018000 -47.538800 -6.533400
N -6.950500 -46.398400 -7.219900
N -6.752700 -47.686400 -5.235700
H -6.704200 -47.464600 -9.619400
N -6.515600 -45.331400 -6.583500
N -6.328300 -46.618700 -4.581400
C -6.179000 -45.472300 -5.281000
N -5.701600 -44.401600 -4.652000
H -5.597100 -43.646100 -5.089100
H -5.491100 -44.449300 -3.799100
23
Fragment
H -13.773800 -52.490900 -13.692600
H -13.087300 -52.195800 -12.276600
H -13.084200 -50.619700 -15.740800
H -12.971700 -47.102500 -15.711300
C -12.965800 -52.156600 -13.248600
C -12.816700 -50.176100 -14.945000
C -12.719300 -50.743900 -13.660000
H -12.528000 -48.228300 -16.760500
C -12.453100 -48.862000 -14.827100
C -12.334100 -47.826000 -15.887500
N -12.320800 -49.843000 -12.767300
H -12.199500 -52.710000 -13.505700
N -12.162000 -48.683100 -13.490300
C -11.736700 -47.538800 -12.804600
N -11.669300 -46.398400 -13.491100
N -11.471500 -47.686400 -11.507000
H -11.422900 -47.464600 -15.890700
N -11.234300 -45.331400 -12.854800
N -11.047100 -46.618700 -10.852700
C -10.897700 -45.472300 -11.552200
N -10.420300 -44.401600 -10.923200
H -10.315900 -43.646100 -11.360300
H -10.209800 -44.449300 -10.070300
46
Fragment
H -9.055100 -52.490900 -7.421400
H -8.368500 -52.195800 -6.005300
H -8.365400 -50.619700 -9.469600
H -8.253000 -47.102500 -9.440100
C -8.247000 -52.156600 -6.977400
C -8.098000 -50.176100 -8.673700
C -8.000600 -50.743900 -7.388800
H -7.809200 -48.228300 -10.489300
C -7.734400 -48.862000 -8.555800
C -7.615300 -47.826000 -9.616300
N -7.602000 -49.843000 -6.496100
H -7.480800 -52.710000 -7.234500
N -7.443300 -48.683100 -7.219100
C -7.018000 -47.538800 -6.533400
N -6.950500 -46.398400 -7.219900
N -6.752700 -47.686400 -5.235700
H -6.704200 -47.464600 -9.619400
N -6.515600 -45.331400 -6.583500
N -6.328300 -46.618700 -4.581400
C -6.179000 -45.472300 -5.281000
N -5.701600 -44.401600 -4.652000
H -5.597100 -43.646100 -5.089100
H -5.491100 -44.449300 -3.799100
H -13.773800 -52.490900 -13.692600
H -13.087300 -52.195800 -12.276600
H -13.084200 -50.619700 -15.740800
H -12.971700 -47.102500 -15.711300
C -12.965800 -52.156600 -13.248600
C -12.816700 -50.176100 -14.945000
C -12.719300 -50.743900 -13.660000
H -12.528000 -48.228300 -16.760500
C -12.453100 -48.862000 -14.827100
C -12.334100 -47.826000 -15.887500
N -12.320800 -49.843000 -12.767300
H -12.199500 -52.710000 -13.505700
N -12.162000 -48.683100 -13.490300
C -11.736700 -47.538800 -12.804600
N -11.669300 -46.398400 -13.491100
N -11.471500 -47.686400 -11.507000
H -11.422900 -47.464600 -15.890700
N -11.234300 -45.331400 -12.854800
N -11.047100 -46.618700 -10.852700
C -10.897700 -45.472300 -11.552200
N -10.420300 -44.401600 -10.923200
H -10.315900 -43.646100 -11.360300
H -10.209800 -44.449300 -10.070300
