34
Fragment
H -16.912600 -11.242300 -9.251600
H -16.767800 -10.469000 -10.645200
C -16.307800 -11.040200 -9.995800
C -15.894500 -12.304100 -10.654100
H -15.771200 -13.826900 -9.183500
H -15.765900 -12.458800 -18.075900
N -15.690800 -12.323800 -11.962400
C -15.686800 -13.589100 -10.099400
H -15.645300 -16.378100 -11.580800
H -15.515500 -10.575100 -9.655300
N -15.357400 -13.626200 -12.253400
C -15.345000 -14.414600 -11.112000
N -15.139600 -15.234200 -13.929400
C -15.119800 -13.951800 -13.578400
C -14.968600 -15.859200 -11.098200
N -14.949000 -15.515100 -15.201800
H -14.947600 -12.258600 -19.436900
H -14.915600 -16.174600 -10.171500
N -14.914300 -12.918100 -14.406500
C -14.894700 -12.574000 -18.510200
C -14.743500 -14.481400 -16.030000
N -14.723700 -13.199000 -15.679000
C -14.518300 -14.018600 -18.496400
N -14.505900 -14.807000 -17.354900
H -14.347800 -17.858100 -19.953100
H -14.218000 -12.055100 -18.027600
C -14.176500 -14.844100 -19.509000
N -14.172500 -16.109400 -17.646000
H -14.097400 -15.974400 -11.532500
H -14.092000 -14.606300 -20.424800
C -13.968800 -16.129100 -18.954300
C -13.555500 -17.393000 -19.612600
H -13.095400 -17.964200 -18.963200
H -12.950700 -17.190900 -20.356700
34
Fragment
H -12.681600 -20.720100 -19.121100
H -12.536800 -19.946800 -20.514700
C -12.076800 -20.517900 -19.865200
C -11.663500 -21.781800 -20.523500
H -11.540200 -23.304700 -19.053000
H -11.534900 -21.936500 -27.945400
N -11.459800 -21.801500 -21.831800
C -11.455800 -23.066800 -19.968900
H -11.414300 -25.855800 -21.450300
H -11.284500 -20.052800 -19.524700
N -11.126400 -23.103900 -22.122900
C -11.114000 -23.892300 -20.981500
N -10.908600 -24.712000 -23.798800
C -10.888800 -23.429600 -23.447900
C -10.737600 -25.336900 -20.967700
N -10.718000 -24.992900 -25.071300
H -10.716700 -21.736400 -29.306400
H -10.684600 -25.652300 -20.040900
N -10.683300 -22.395800 -24.276000
C -10.663700 -22.051700 -28.379600
C -10.512500 -23.959100 -25.899400
N -10.492700 -22.676700 -25.548500
C -10.287300 -23.496300 -28.365800
N -10.274900 -24.284700 -27.224400
H -10.116800 -27.335900 -29.822500
H -9.987000 -21.532900 -27.897000
C -9.945500 -24.321800 -29.378400
N -9.941500 -25.587200 -27.515500
H -9.866400 -25.452200 -21.401900
H -9.861100 -24.084000 -30.294300
C -9.737800 -25.606900 -28.823800
C -9.324500 -26.870700 -29.482000
H -8.864500 -27.441900 -28.832600
H -8.719700 -26.668600 -30.226200
68
Fragment
H -16.912600 -11.242300 -9.251600
H -16.767800 -10.469000 -10.645200
C -16.307800 -11.040200 -9.995800
C -15.894500 -12.304100 -10.654100
H -15.771200 -13.826900 -9.183500
H -15.765900 -12.458800 -18.075900
N -15.690800 -12.323800 -11.962400
C -15.686800 -13.589100 -10.099400
H -15.645300 -16.378100 -11.580800
H -15.515500 -10.575100 -9.655300
N -15.357400 -13.626200 -12.253400
C -15.345000 -14.414600 -11.112000
N -15.139600 -15.234200 -13.929400
C -15.119800 -13.951800 -13.578400
C -14.968600 -15.859200 -11.098200
N -14.949000 -15.515100 -15.201800
H -14.947600 -12.258600 -19.436900
H -14.915600 -16.174600 -10.171500
N -14.914300 -12.918100 -14.406500
C -14.894700 -12.574000 -18.510200
C -14.743500 -14.481400 -16.030000
N -14.723700 -13.199000 -15.679000
C -14.518300 -14.018600 -18.496400
N -14.505900 -14.807000 -17.354900
H -14.347800 -17.858100 -19.953100
H -14.218000 -12.055100 -18.027600
C -14.176500 -14.844100 -19.509000
N -14.172500 -16.109400 -17.646000
H -14.097400 -15.974400 -11.532500
H -14.092000 -14.606300 -20.424800
C -13.968800 -16.129100 -18.954300
C -13.555500 -17.393000 -19.612600
H -13.095400 -17.964200 -18.963200
H -12.950700 -17.190900 -20.356700
H -12.681600 -20.720100 -19.121100
H -12.536800 -19.946800 -20.514700
C -12.076800 -20.517900 -19.865200
C -11.663500 -21.781800 -20.523500
H -11.540200 -23.304700 -19.053000
H -11.534900 -21.936500 -27.945400
N -11.459800 -21.801500 -21.831800
C -11.455800 -23.066800 -19.968900
H -11.414300 -25.855800 -21.450300
H -11.284500 -20.052800 -19.524700
N -11.126400 -23.103900 -22.122900
C -11.114000 -23.892300 -20.981500
N -10.908600 -24.712000 -23.798800
C -10.888800 -23.429600 -23.447900
C -10.737600 -25.336900 -20.967700
N -10.718000 -24.992900 -25.071300
H -10.716700 -21.736400 -29.306400
H -10.684600 -25.652300 -20.040900
N -10.683300 -22.395800 -24.276000
C -10.663700 -22.051700 -28.379600
C -10.512500 -23.959100 -25.899400
N -10.492700 -22.676700 -25.548500
C -10.287300 -23.496300 -28.365800
N -10.274900 -24.284700 -27.224400
H -10.116800 -27.335900 -29.822500
H -9.987000 -21.532900 -27.897000
C -9.945500 -24.321800 -29.378400
N -9.941500 -25.587200 -27.515500
H -9.866400 -25.452200 -21.401900
H -9.861100 -24.084000 -30.294300
C -9.737800 -25.606900 -28.823800
C -9.324500 -26.870700 -29.482000
H -8.864500 -27.441900 -28.832600
H -8.719700 -26.668600 -30.226200
