34
Fragment
H -20.372100 -17.768100 -10.979000
H -20.218200 -20.457400 -11.016500
H -19.618100 -15.162400 -10.280500
C -19.442100 -17.876400 -10.815100
C -19.244300 -20.460600 -10.903200
H -19.010800 -20.974300 -10.102300
H -18.825600 -20.870600 -11.688400
C -18.758700 -19.063500 -10.755300
C -18.718800 -15.368600 -10.611700
H -18.625600 -15.039900 -11.530000
C -18.507000 -16.847400 -10.588000
H -18.051400 -14.933500 -10.040200
N -17.451700 -18.718800 -10.483700
N -17.299800 -17.351700 -10.374000
C -16.308800 -19.512400 -10.345300
N -16.258500 -20.646600 -11.048300
N -15.354700 -19.023800 -9.541900
N -15.150200 -21.355300 -10.941200
N -14.246300 -19.732500 -9.434800
C -14.196100 -20.866700 -10.137900
N -13.205100 -23.027400 -10.109200
N -13.053100 -21.660300 -9.999500
H -12.453400 -25.445600 -10.443000
C -11.997800 -23.531700 -9.895100
H -11.879200 -25.339200 -8.953200
C -11.786100 -25.010500 -9.871400
C -11.746200 -21.315600 -9.727900
H -11.679300 -19.508500 -8.794800
H -11.494000 -19.404800 -10.380900
C -11.260500 -19.918500 -9.580000
C -11.062800 -22.502700 -9.668000
H -10.886800 -25.216700 -10.202700
H -10.286600 -19.921700 -9.466600
H -10.132800 -22.611000 -9.504200
34
Fragment
H -21.082500 -29.340800 -7.565100
H -20.928700 -26.651600 -7.602700
H -20.328600 -31.946600 -6.866600
C -20.152500 -29.232600 -7.401200
C -19.954800 -26.648300 -7.489300
H -19.721300 -26.134700 -6.688400
H -19.536100 -26.238300 -8.274500
C -19.469100 -28.045400 -7.341400
C -19.429300 -31.740400 -7.197800
H -19.336100 -32.069100 -8.116100
C -19.217500 -30.261600 -7.174200
H -18.761900 -32.175400 -6.626300
N -18.162200 -28.390100 -7.069800
N -18.010300 -29.757200 -6.960100
C -17.019200 -27.596600 -6.931400
N -16.969000 -26.462300 -7.634500
N -16.065100 -28.085100 -6.128100
N -15.860600 -25.753700 -7.527400
N -14.956800 -27.376500 -6.021000
C -14.906600 -26.242200 -6.724000
N -13.915500 -24.081600 -6.695300
N -13.763600 -25.448700 -6.585600
H -13.163900 -21.663400 -7.029100
C -12.708300 -23.577200 -6.481300
H -12.589700 -21.769700 -5.539300
C -12.496500 -22.098400 -6.457600
C -12.456600 -25.793400 -6.314000
H -12.389700 -27.600500 -5.380900
H -12.204500 -27.704100 -6.967000
C -11.971000 -27.190500 -6.166100
C -11.773300 -24.606200 -6.254200
H -11.597200 -21.892200 -6.788800
H -10.997100 -27.187200 -6.052800
H -10.843300 -24.498000 -6.090300
68
Fragment
H -20.372100 -17.768100 -10.979000
H -20.218200 -20.457400 -11.016500
H -19.618100 -15.162400 -10.280500
C -19.442100 -17.876400 -10.815100
C -19.244300 -20.460600 -10.903200
H -19.010800 -20.974300 -10.102300
H -18.825600 -20.870600 -11.688400
C -18.758700 -19.063500 -10.755300
C -18.718800 -15.368600 -10.611700
H -18.625600 -15.039900 -11.530000
C -18.507000 -16.847400 -10.588000
H -18.051400 -14.933500 -10.040200
N -17.451700 -18.718800 -10.483700
N -17.299800 -17.351700 -10.374000
C -16.308800 -19.512400 -10.345300
N -16.258500 -20.646600 -11.048300
N -15.354700 -19.023800 -9.541900
N -15.150200 -21.355300 -10.941200
N -14.246300 -19.732500 -9.434800
C -14.196100 -20.866700 -10.137900
N -13.205100 -23.027400 -10.109200
N -13.053100 -21.660300 -9.999500
H -12.453400 -25.445600 -10.443000
C -11.997800 -23.531700 -9.895100
H -11.879200 -25.339200 -8.953200
C -11.786100 -25.010500 -9.871400
C -11.746200 -21.315600 -9.727900
H -11.679300 -19.508500 -8.794800
H -11.494000 -19.404800 -10.380900
C -11.260500 -19.918500 -9.580000
C -11.062800 -22.502700 -9.668000
H -10.886800 -25.216700 -10.202700
H -10.286600 -19.921700 -9.466600
H -10.132800 -22.611000 -9.504200
H -21.082500 -29.340800 -7.565100
H -20.928700 -26.651600 -7.602700
H -20.328600 -31.946600 -6.866600
C -20.152500 -29.232600 -7.401200
C -19.954800 -26.648300 -7.489300
H -19.721300 -26.134700 -6.688400
H -19.536100 -26.238300 -8.274500
C -19.469100 -28.045400 -7.341400
C -19.429300 -31.740400 -7.197800
H -19.336100 -32.069100 -8.116100
C -19.217500 -30.261600 -7.174200
H -18.761900 -32.175400 -6.626300
N -18.162200 -28.390100 -7.069800
N -18.010300 -29.757200 -6.960100
C -17.019200 -27.596600 -6.931400
N -16.969000 -26.462300 -7.634500
N -16.065100 -28.085100 -6.128100
N -15.860600 -25.753700 -7.527400
N -14.956800 -27.376500 -6.021000
C -14.906600 -26.242200 -6.724000
N -13.915500 -24.081600 -6.695300
N -13.763600 -25.448700 -6.585600
H -13.163900 -21.663400 -7.029100
C -12.708300 -23.577200 -6.481300
H -12.589700 -21.769700 -5.539300
C -12.496500 -22.098400 -6.457600
C -12.456600 -25.793400 -6.314000
H -12.389700 -27.600500 -5.380900
H -12.204500 -27.704100 -6.967000
C -11.971000 -27.190500 -6.166100
C -11.773300 -24.606200 -6.254200
H -11.597200 -21.892200 -6.788800
H -10.997100 -27.187200 -6.052800
H -10.843300 -24.498000 -6.090300
