17
Fragment
O -15.862600 -21.381400 -16.695300
N -15.789200 -18.771800 -16.147700
H -15.750000 -16.728200 -15.887800
N -15.475100 -17.615000 -15.530400
N -15.347200 -21.064200 -15.636400
C -15.238200 -19.646600 -15.340200
O -14.920700 -21.853000 -14.806400
C -14.764900 -17.877600 -14.425900
N -14.592900 -19.185200 -14.259600
N -14.368700 -15.557500 -13.792400
C -14.247100 -16.817900 -13.573500
N -13.684900 -14.915700 -12.745800
O -13.528600 -17.121200 -12.453400
C -13.211900 -15.881100 -11.987000
N -12.505700 -15.773900 -10.873900
H -12.365900 -14.952700 -10.635700
H -12.239400 -16.469300 -10.411400
3
Fragment
H -16.411800 -24.015000 -16.723200
O -16.061400 -24.374700 -16.157000
H -15.649600 -23.820800 -15.586100
20
Fragment
O -15.862600 -21.381400 -16.695300
N -15.789200 -18.771800 -16.147700
H -15.750000 -16.728200 -15.887800
N -15.475100 -17.615000 -15.530400
N -15.347200 -21.064200 -15.636400
C -15.238200 -19.646600 -15.340200
O -14.920700 -21.853000 -14.806400
C -14.764900 -17.877600 -14.425900
N -14.592900 -19.185200 -14.259600
N -14.368700 -15.557500 -13.792400
C -14.247100 -16.817900 -13.573500
N -13.684900 -14.915700 -12.745800
O -13.528600 -17.121200 -12.453400
C -13.211900 -15.881100 -11.987000
N -12.505700 -15.773900 -10.873900
H -12.365900 -14.952700 -10.635700
H -12.239400 -16.469300 -10.411400
H -16.411800 -24.015000 -16.723200
O -16.061400 -24.374700 -16.157000
H -15.649600 -23.820800 -15.586100
