17
Fragment
O -15.862600 -21.381400 -16.695300
N -15.789200 -18.771800 -16.147700
H -15.750000 -16.728200 -15.887800
N -15.475100 -17.615000 -15.530400
N -15.347200 -21.064200 -15.636400
C -15.238200 -19.646600 -15.340200
O -14.920700 -21.853000 -14.806400
C -14.764900 -17.877600 -14.425900
N -14.592900 -19.185200 -14.259600
N -14.368700 -15.557500 -13.792400
C -14.247100 -16.817900 -13.573500
N -13.684900 -14.915700 -12.745800
O -13.528600 -17.121200 -12.453400
C -13.211900 -15.881100 -11.987000
N -12.505700 -15.773900 -10.873900
H -12.365900 -14.952700 -10.635700
H -12.239400 -16.469300 -10.411400
17
Fragment
H -20.956000 -11.845700 -24.396400
H -20.829500 -10.329100 -24.172100
N -20.689700 -11.150300 -23.933800
C -19.983400 -11.257500 -22.820700
O -19.666700 -12.497600 -22.354300
N -19.510400 -10.292100 -22.061900
C -18.948300 -12.194300 -21.234300
N -18.826700 -10.933900 -21.015400
N -18.602400 -14.561600 -20.548200
C -18.430400 -13.254000 -20.381900
O -18.274700 -17.229400 -20.001300
C -17.957100 -15.023000 -19.467600
N -17.848200 -16.440600 -19.171300
N -17.720200 -12.991400 -19.277300
H -17.445300 -12.104600 -18.920000
N -17.406100 -14.148200 -18.660100
O -17.332700 -16.757800 -18.112400
34
Fragment
O -15.862600 -21.381400 -16.695300
N -15.789200 -18.771800 -16.147700
H -15.750000 -16.728200 -15.887800
N -15.475100 -17.615000 -15.530400
N -15.347200 -21.064200 -15.636400
C -15.238200 -19.646600 -15.340200
O -14.920700 -21.853000 -14.806400
C -14.764900 -17.877600 -14.425900
N -14.592900 -19.185200 -14.259600
N -14.368700 -15.557500 -13.792400
C -14.247100 -16.817900 -13.573500
N -13.684900 -14.915700 -12.745800
O -13.528600 -17.121200 -12.453400
C -13.211900 -15.881100 -11.987000
N -12.505700 -15.773900 -10.873900
H -12.365900 -14.952700 -10.635700
H -12.239400 -16.469300 -10.411400
H -20.956000 -11.845700 -24.396400
H -20.829500 -10.329100 -24.172100
N -20.689700 -11.150300 -23.933800
C -19.983400 -11.257500 -22.820700
O -19.666700 -12.497600 -22.354300
N -19.510400 -10.292100 -22.061900
C -18.948300 -12.194300 -21.234300
N -18.826700 -10.933900 -21.015400
N -18.602400 -14.561600 -20.548200
C -18.430400 -13.254000 -20.381900
O -18.274700 -17.229400 -20.001300
C -17.957100 -15.023000 -19.467600
N -17.848200 -16.440600 -19.171300
N -17.720200 -12.991400 -19.277300
H -17.445300 -12.104600 -18.920000
N -17.406100 -14.148200 -18.660100
O -17.332700 -16.757800 -18.112400
