17
Fragment
O -15.862600 -21.381400 -16.695300
N -15.789200 -18.771800 -16.147700
H -15.750000 -16.728200 -15.887800
N -15.475100 -17.615000 -15.530400
N -15.347200 -21.064200 -15.636400
C -15.238200 -19.646600 -15.340200
O -14.920700 -21.853000 -14.806400
C -14.764900 -17.877600 -14.425900
N -14.592900 -19.185200 -14.259600
N -14.368700 -15.557500 -13.792400
C -14.247100 -16.817900 -13.573500
N -13.684900 -14.915700 -12.745800
O -13.528600 -17.121200 -12.453400
C -13.211900 -15.881100 -11.987000
N -12.505700 -15.773900 -10.873900
H -12.365900 -14.952700 -10.635700
H -12.239400 -16.469300 -10.411400
17
Fragment
O -17.169500 -10.983800 -12.827800
N -17.096000 -13.593400 -12.280200
H -17.056800 -15.637000 -12.020300
N -16.782000 -14.750200 -11.662900
N -16.654000 -11.301000 -11.768900
C -16.545000 -12.718600 -11.472600
O -16.227500 -10.512200 -10.938900
C -16.071700 -14.487600 -10.558400
N -15.899800 -13.180000 -10.392000
N -15.675500 -16.807700 -9.924900
C -15.553900 -15.547300 -9.705900
N -14.991800 -17.449500 -8.878300
O -14.835400 -15.244000 -8.585900
C -14.518700 -16.484100 -8.119500
N -13.812500 -16.591300 -7.006400
H -13.672700 -17.412500 -6.768200
H -13.546200 -15.895900 -6.543900
34
Fragment
O -15.862600 -21.381400 -16.695300
N -15.789200 -18.771800 -16.147700
H -15.750000 -16.728200 -15.887800
N -15.475100 -17.615000 -15.530400
N -15.347200 -21.064200 -15.636400
C -15.238200 -19.646600 -15.340200
O -14.920700 -21.853000 -14.806400
C -14.764900 -17.877600 -14.425900
N -14.592900 -19.185200 -14.259600
N -14.368700 -15.557500 -13.792400
C -14.247100 -16.817900 -13.573500
N -13.684900 -14.915700 -12.745800
O -13.528600 -17.121200 -12.453400
C -13.211900 -15.881100 -11.987000
N -12.505700 -15.773900 -10.873900
H -12.365900 -14.952700 -10.635700
H -12.239400 -16.469300 -10.411400
O -17.169500 -10.983800 -12.827800
N -17.096000 -13.593400 -12.280200
H -17.056800 -15.637000 -12.020300
N -16.782000 -14.750200 -11.662900
N -16.654000 -11.301000 -11.768900
C -16.545000 -12.718600 -11.472600
O -16.227500 -10.512200 -10.938900
C -16.071700 -14.487600 -10.558400
N -15.899800 -13.180000 -10.392000
N -15.675500 -16.807700 -9.924900
C -15.553900 -15.547300 -9.705900
N -14.991800 -17.449500 -8.878300
O -14.835400 -15.244000 -8.585900
C -14.518700 -16.484100 -8.119500
N -13.812500 -16.591300 -7.006400
H -13.672700 -17.412500 -6.768200
H -13.546200 -15.895900 -6.543900
