17
Fragment
O -15.862600 -21.381400 -16.695300
N -15.789200 -18.771800 -16.147700
H -15.750000 -16.728200 -15.887800
N -15.475100 -17.615000 -15.530400
N -15.347200 -21.064200 -15.636400
C -15.238200 -19.646600 -15.340200
O -14.920700 -21.853000 -14.806400
C -14.764900 -17.877600 -14.425900
N -14.592900 -19.185200 -14.259600
N -14.368700 -15.557500 -13.792400
C -14.247100 -16.817900 -13.573500
N -13.684900 -14.915700 -12.745800
O -13.528600 -17.121200 -12.453400
C -13.211900 -15.881100 -11.987000
N -12.505700 -15.773900 -10.873900
H -12.365900 -14.952700 -10.635700
H -12.239400 -16.469300 -10.411400
17
Fragment
H -13.637200 -20.519500 -12.793800
H -13.510700 -22.036100 -12.569500
N -13.371000 -21.214900 -12.331200
C -12.664700 -21.107700 -11.218200
O -12.348000 -19.867600 -10.751700
N -12.191700 -22.073100 -10.459300
C -11.629500 -20.170900 -9.631700
N -11.507900 -21.431300 -9.412800
N -11.283700 -17.803600 -8.945600
C -11.111700 -19.111200 -8.779300
O -10.956000 -15.135800 -8.398700
C -10.638400 -17.342200 -7.865000
N -10.529500 -15.924600 -7.568800
N -10.401500 -19.373800 -7.674700
H -10.126600 -20.260600 -7.317400
N -10.087400 -18.217000 -7.057500
O -10.014000 -15.607400 -6.509800
34
Fragment
O -15.862600 -21.381400 -16.695300
N -15.789200 -18.771800 -16.147700
H -15.750000 -16.728200 -15.887800
N -15.475100 -17.615000 -15.530400
N -15.347200 -21.064200 -15.636400
C -15.238200 -19.646600 -15.340200
O -14.920700 -21.853000 -14.806400
C -14.764900 -17.877600 -14.425900
N -14.592900 -19.185200 -14.259600
N -14.368700 -15.557500 -13.792400
C -14.247100 -16.817900 -13.573500
N -13.684900 -14.915700 -12.745800
O -13.528600 -17.121200 -12.453400
C -13.211900 -15.881100 -11.987000
N -12.505700 -15.773900 -10.873900
H -12.365900 -14.952700 -10.635700
H -12.239400 -16.469300 -10.411400
H -13.637200 -20.519500 -12.793800
H -13.510700 -22.036100 -12.569500
N -13.371000 -21.214900 -12.331200
C -12.664700 -21.107700 -11.218200
O -12.348000 -19.867600 -10.751700
N -12.191700 -22.073100 -10.459300
C -11.629500 -20.170900 -9.631700
N -11.507900 -21.431300 -9.412800
N -11.283700 -17.803600 -8.945600
C -11.111700 -19.111200 -8.779300
O -10.956000 -15.135800 -8.398700
C -10.638400 -17.342200 -7.865000
N -10.529500 -15.924600 -7.568800
N -10.401500 -19.373800 -7.674700
H -10.126600 -20.260600 -7.317400
N -10.087400 -18.217000 -7.057500
O -10.014000 -15.607400 -6.509800
