17
Fragment
O -15.862600 -21.381400 -16.695300
N -15.789200 -18.771800 -16.147700
H -15.750000 -16.728200 -15.887800
N -15.475100 -17.615000 -15.530400
N -15.347200 -21.064200 -15.636400
C -15.238200 -19.646600 -15.340200
O -14.920700 -21.853000 -14.806400
C -14.764900 -17.877600 -14.425900
N -14.592900 -19.185200 -14.259600
N -14.368700 -15.557500 -13.792400
C -14.247100 -16.817900 -13.573500
N -13.684900 -14.915700 -12.745800
O -13.528600 -17.121200 -12.453400
C -13.211900 -15.881100 -11.987000
N -12.505700 -15.773900 -10.873900
H -12.365900 -14.952700 -10.635700
H -12.239400 -16.469300 -10.411400
17
Fragment
H -12.330400 -11.845700 -16.661300
H -12.203900 -10.329100 -16.437000
N -12.064100 -11.150300 -16.198800
C -11.357900 -11.257500 -15.085700
O -11.041200 -12.497600 -14.619300
N -10.884900 -10.292100 -14.326900
C -10.322700 -12.194300 -13.499200
N -10.201100 -10.933900 -13.280300
N -9.976900 -14.561600 -12.813100
C -9.804900 -13.254000 -12.646800
O -9.649100 -17.229400 -12.266300
C -9.331600 -15.023000 -11.732500
N -9.222600 -16.440600 -11.436300
N -9.094700 -12.991400 -11.542300
H -8.819800 -12.104600 -11.184900
N -8.780600 -14.148200 -10.925000
O -8.707200 -16.757800 -10.377400
34
Fragment
O -15.862600 -21.381400 -16.695300
N -15.789200 -18.771800 -16.147700
H -15.750000 -16.728200 -15.887800
N -15.475100 -17.615000 -15.530400
N -15.347200 -21.064200 -15.636400
C -15.238200 -19.646600 -15.340200
O -14.920700 -21.853000 -14.806400
C -14.764900 -17.877600 -14.425900
N -14.592900 -19.185200 -14.259600
N -14.368700 -15.557500 -13.792400
C -14.247100 -16.817900 -13.573500
N -13.684900 -14.915700 -12.745800
O -13.528600 -17.121200 -12.453400
C -13.211900 -15.881100 -11.987000
N -12.505700 -15.773900 -10.873900
H -12.365900 -14.952700 -10.635700
H -12.239400 -16.469300 -10.411400
H -12.330400 -11.845700 -16.661300
H -12.203900 -10.329100 -16.437000
N -12.064100 -11.150300 -16.198800
C -11.357900 -11.257500 -15.085700
O -11.041200 -12.497600 -14.619300
N -10.884900 -10.292100 -14.326900
C -10.322700 -12.194300 -13.499200
N -10.201100 -10.933900 -13.280300
N -9.976900 -14.561600 -12.813100
C -9.804900 -13.254000 -12.646800
O -9.649100 -17.229400 -12.266300
C -9.331600 -15.023000 -11.732500
N -9.222600 -16.440600 -11.436300
N -9.094700 -12.991400 -11.542300
H -8.819800 -12.104600 -11.184900
N -8.780600 -14.148200 -10.925000
O -8.707200 -16.757800 -10.377400
