17
Fragment
O -15.862600 -21.381400 -16.695300
N -15.789200 -18.771800 -16.147700
H -15.750000 -16.728200 -15.887800
N -15.475100 -17.615000 -15.530400
N -15.347200 -21.064200 -15.636400
C -15.238200 -19.646600 -15.340200
O -14.920700 -21.853000 -14.806400
C -14.764900 -17.877600 -14.425900
N -14.592900 -19.185200 -14.259600
N -14.368700 -15.557500 -13.792400
C -14.247100 -16.817900 -13.573500
N -13.684900 -14.915700 -12.745800
O -13.528600 -17.121200 -12.453400
C -13.211900 -15.881100 -11.987000
N -12.505700 -15.773900 -10.873900
H -12.365900 -14.952700 -10.635700
H -12.239400 -16.469300 -10.411400
17
Fragment
O -14.555800 -20.231000 -20.562900
N -14.482400 -22.840600 -20.015200
H -14.443200 -24.884200 -19.755300
N -14.168300 -23.997400 -19.398000
N -14.040300 -20.548200 -19.503900
C -13.931400 -21.965800 -19.207700
O -13.613800 -19.759400 -18.674000
C -13.458100 -23.734800 -18.293400
N -13.286100 -22.427200 -18.127100
N -13.061800 -26.054900 -17.659900
C -12.940200 -24.794500 -17.441000
N -12.378100 -26.696700 -16.613400
O -12.221800 -24.491200 -16.321000
C -11.905100 -25.731300 -15.854500
N -11.198800 -25.838500 -14.741500
H -11.059100 -26.659700 -14.503200
H -10.932500 -25.143100 -14.278900
34
Fragment
O -15.862600 -21.381400 -16.695300
N -15.789200 -18.771800 -16.147700
H -15.750000 -16.728200 -15.887800
N -15.475100 -17.615000 -15.530400
N -15.347200 -21.064200 -15.636400
C -15.238200 -19.646600 -15.340200
O -14.920700 -21.853000 -14.806400
C -14.764900 -17.877600 -14.425900
N -14.592900 -19.185200 -14.259600
N -14.368700 -15.557500 -13.792400
C -14.247100 -16.817900 -13.573500
N -13.684900 -14.915700 -12.745800
O -13.528600 -17.121200 -12.453400
C -13.211900 -15.881100 -11.987000
N -12.505700 -15.773900 -10.873900
H -12.365900 -14.952700 -10.635700
H -12.239400 -16.469300 -10.411400
O -14.555800 -20.231000 -20.562900
N -14.482400 -22.840600 -20.015200
H -14.443200 -24.884200 -19.755300
N -14.168300 -23.997400 -19.398000
N -14.040300 -20.548200 -19.503900
C -13.931400 -21.965800 -19.207700
O -13.613800 -19.759400 -18.674000
C -13.458100 -23.734800 -18.293400
N -13.286100 -22.427200 -18.127100
N -13.061800 -26.054900 -17.659900
C -12.940200 -24.794500 -17.441000
N -12.378100 -26.696700 -16.613400
O -12.221800 -24.491200 -16.321000
C -11.905100 -25.731300 -15.854500
N -11.198800 -25.838500 -14.741500
H -11.059100 -26.659700 -14.503200
H -10.932500 -25.143100 -14.278900
