14
Fragment
H -18.606600 -10.471600 -23.119000
H -18.410200 -9.620900 -24.507400
O -18.259500 -8.519700 -22.917100
H -18.208100 -9.306000 -21.112000
C -18.122600 -9.766100 -23.594400
H -17.789500 -7.740900 -21.172300
C -17.696300 -8.625000 -21.602400
C -16.675800 -10.175000 -23.669900
H -16.582500 -11.059100 -24.099900
C -16.249500 -9.033900 -21.677900
H -16.163900 -9.494000 -24.160300
O -16.112600 -10.280300 -22.355100
H -15.961800 -9.179100 -20.764900
H -15.765500 -8.328400 -22.153200
14
Fragment
H -18.606600 -15.171600 -23.119000
H -18.410200 -14.320900 -24.507400
O -18.259500 -13.219700 -22.917100
H -18.208100 -14.006000 -21.112000
C -18.122600 -14.466100 -23.594400
H -17.789500 -12.440900 -21.172300
C -17.696300 -13.325000 -21.602400
C -16.675800 -14.875000 -23.669900
H -16.582500 -15.759100 -24.099900
C -16.249500 -13.733900 -21.677900
H -16.163900 -14.194000 -24.160300
O -16.112600 -14.980300 -22.355100
H -15.961800 -13.879100 -20.764900
H -15.765500 -13.028400 -22.153200
28
Fragment
H -18.606600 -10.471600 -23.119000
H -18.410200 -9.620900 -24.507400
O -18.259500 -8.519700 -22.917100
H -18.208100 -9.306000 -21.112000
C -18.122600 -9.766100 -23.594400
H -17.789500 -7.740900 -21.172300
C -17.696300 -8.625000 -21.602400
C -16.675800 -10.175000 -23.669900
H -16.582500 -11.059100 -24.099900
C -16.249500 -9.033900 -21.677900
H -16.163900 -9.494000 -24.160300
O -16.112600 -10.280300 -22.355100
H -15.961800 -9.179100 -20.764900
H -15.765500 -8.328400 -22.153200
H -18.606600 -15.171600 -23.119000
H -18.410200 -14.320900 -24.507400
O -18.259500 -13.219700 -22.917100
H -18.208100 -14.006000 -21.112000
C -18.122600 -14.466100 -23.594400
H -17.789500 -12.440900 -21.172300
C -17.696300 -13.325000 -21.602400
C -16.675800 -14.875000 -23.669900
H -16.582500 -15.759100 -24.099900
C -16.249500 -13.733900 -21.677900
H -16.163900 -14.194000 -24.160300
O -16.112600 -14.980300 -22.355100
H -15.961800 -13.879100 -20.764900
H -15.765500 -13.028400 -22.153200
