14
Fragment
H -18.606600 -10.471600 -23.119000
H -18.410200 -9.620900 -24.507400
O -18.259500 -8.519700 -22.917100
H -18.208100 -9.306000 -21.112000
C -18.122600 -9.766100 -23.594400
H -17.789500 -7.740900 -21.172300
C -17.696300 -8.625000 -21.602400
C -16.675800 -10.175000 -23.669900
H -16.582500 -11.059100 -24.099900
C -16.249500 -9.033900 -21.677900
H -16.163900 -9.494000 -24.160300
O -16.112600 -10.280300 -22.355100
H -15.961800 -9.179100 -20.764900
H -15.765500 -8.328400 -22.153200
24
Fragment
H -25.440000 -10.062700 -23.390700
H -25.195700 -11.726500 -25.186500
O -24.899600 -8.334500 -21.812200
N -24.575700 -9.884100 -23.437500
C -24.276400 -11.508900 -25.206100
C -24.139600 -8.934200 -22.574300
C -23.767400 -10.556200 -24.326300
H -23.764200 -12.765200 -26.665400
C -23.433600 -12.143900 -26.072300
H -23.420200 -6.791500 -20.448000
C -22.675700 -8.680900 -22.643700
C -22.557500 -6.887800 -20.742200
C -22.399600 -10.243200 -24.329300
C -22.081900 -7.697700 -21.742800
C -22.067100 -11.851100 -26.088900
N -21.880700 -9.294300 -23.466100
C -21.558300 -10.908200 -25.225700
H -21.476300 -12.314000 -26.710600
C -21.424300 -6.233600 -20.268400
Cl -21.326900 -5.094800 -18.977400
N -20.748400 -7.474900 -21.807700
H -20.597200 -10.701900 -25.246800
N -20.317100 -6.574800 -20.902200
H -20.191400 -7.849000 -22.289000
38
Fragment
H -18.606600 -10.471600 -23.119000
H -18.410200 -9.620900 -24.507400
O -18.259500 -8.519700 -22.917100
H -18.208100 -9.306000 -21.112000
C -18.122600 -9.766100 -23.594400
H -17.789500 -7.740900 -21.172300
C -17.696300 -8.625000 -21.602400
C -16.675800 -10.175000 -23.669900
H -16.582500 -11.059100 -24.099900
C -16.249500 -9.033900 -21.677900
H -16.163900 -9.494000 -24.160300
O -16.112600 -10.280300 -22.355100
H -15.961800 -9.179100 -20.764900
H -15.765500 -8.328400 -22.153200
H -25.440000 -10.062700 -23.390700
H -25.195700 -11.726500 -25.186500
O -24.899600 -8.334500 -21.812200
N -24.575700 -9.884100 -23.437500
C -24.276400 -11.508900 -25.206100
C -24.139600 -8.934200 -22.574300
C -23.767400 -10.556200 -24.326300
H -23.764200 -12.765200 -26.665400
C -23.433600 -12.143900 -26.072300
H -23.420200 -6.791500 -20.448000
C -22.675700 -8.680900 -22.643700
C -22.557500 -6.887800 -20.742200
C -22.399600 -10.243200 -24.329300
C -22.081900 -7.697700 -21.742800
C -22.067100 -11.851100 -26.088900
N -21.880700 -9.294300 -23.466100
C -21.558300 -10.908200 -25.225700
H -21.476300 -12.314000 -26.710600
C -21.424300 -6.233600 -20.268400
Cl -21.326900 -5.094800 -18.977400
N -20.748400 -7.474900 -21.807700
H -20.597200 -10.701900 -25.246800
N -20.317100 -6.574800 -20.902200
H -20.191400 -7.849000 -22.289000
