25
Fragment
O -65.158600 -17.795400 -12.053300
H -64.751300 -17.953100 -9.720800
H -64.411900 -20.578200 -11.906600
C -64.086000 -18.049700 -11.524700
N -63.985000 -18.089400 -10.161600
H -63.875600 -19.350700 -13.847400
H -63.854700 -21.519300 -13.028900
C -63.635600 -20.807000 -12.423700
H -63.310000 -16.883500 -13.727900
C -63.178000 -19.590200 -13.216500
H -62.928700 -21.089700 -11.836800
C -62.849100 -18.357000 -12.350700
C -62.849100 -18.357000 -9.446000
O -62.849100 -18.357000 -8.227400
H -62.769500 -15.624300 -11.836800
C -62.520200 -17.123800 -13.216500
H -62.388200 -19.830500 -13.727900
C -62.062600 -15.907000 -12.423700
H -61.843500 -15.194700 -13.028900
H -61.822600 -17.363300 -13.847400
N -61.713200 -18.624600 -10.161600
C -61.612200 -18.664300 -11.524700
H -61.286300 -16.135800 -11.906600
H -60.946900 -18.760900 -9.720800
O -60.539600 -18.918600 -12.053300
15
Fragment
H -60.812800 -12.947800 -11.364500
N -60.075800 -13.133300 -10.948600
H -59.966400 -13.217000 -10.086100
N -59.194600 -12.867200 -13.031400
C -58.989300 -13.108400 -11.726400
H -58.290400 -12.606400 -14.751400
C -58.147600 -12.774000 -13.848200
C -57.684600 -13.312500 -11.207600
H -57.561400 -13.515600 -10.309400
C -56.856200 -12.918800 -13.391700
C -56.625400 -13.204700 -12.042700
O -56.005700 -12.548800 -15.487700
H -55.759700 -13.318600 -11.725600
N -55.756000 -12.812300 -14.325600
O -54.625900 -13.002900 -13.905500
40
Fragment
O -65.158600 -17.795400 -12.053300
H -64.751300 -17.953100 -9.720800
H -64.411900 -20.578200 -11.906600
C -64.086000 -18.049700 -11.524700
N -63.985000 -18.089400 -10.161600
H -63.875600 -19.350700 -13.847400
H -63.854700 -21.519300 -13.028900
C -63.635600 -20.807000 -12.423700
H -63.310000 -16.883500 -13.727900
C -63.178000 -19.590200 -13.216500
H -62.928700 -21.089700 -11.836800
C -62.849100 -18.357000 -12.350700
C -62.849100 -18.357000 -9.446000
O -62.849100 -18.357000 -8.227400
H -62.769500 -15.624300 -11.836800
C -62.520200 -17.123800 -13.216500
H -62.388200 -19.830500 -13.727900
C -62.062600 -15.907000 -12.423700
H -61.843500 -15.194700 -13.028900
H -61.822600 -17.363300 -13.847400
N -61.713200 -18.624600 -10.161600
C -61.612200 -18.664300 -11.524700
H -61.286300 -16.135800 -11.906600
H -60.946900 -18.760900 -9.720800
O -60.539600 -18.918600 -12.053300
H -60.812800 -12.947800 -11.364500
N -60.075800 -13.133300 -10.948600
H -59.966400 -13.217000 -10.086100
N -59.194600 -12.867200 -13.031400
C -58.989300 -13.108400 -11.726400
H -58.290400 -12.606400 -14.751400
C -58.147600 -12.774000 -13.848200
C -57.684600 -13.312500 -11.207600
H -57.561400 -13.515600 -10.309400
C -56.856200 -12.918800 -13.391700
C -56.625400 -13.204700 -12.042700
O -56.005700 -12.548800 -15.487700
H -55.759700 -13.318600 -11.725600
N -55.756000 -12.812300 -14.325600
O -54.625900 -13.002900 -13.905500
