25
Fragment
O -65.158600 -17.795400 -12.053300
H -64.751300 -17.953100 -9.720800
H -64.411900 -20.578200 -11.906600
C -64.086000 -18.049700 -11.524700
N -63.985000 -18.089400 -10.161600
H -63.875600 -19.350700 -13.847400
H -63.854700 -21.519300 -13.028900
C -63.635600 -20.807000 -12.423700
H -63.310000 -16.883500 -13.727900
C -63.178000 -19.590200 -13.216500
H -62.928700 -21.089700 -11.836800
C -62.849100 -18.357000 -12.350700
C -62.849100 -18.357000 -9.446000
O -62.849100 -18.357000 -8.227400
H -62.769500 -15.624300 -11.836800
C -62.520200 -17.123800 -13.216500
H -62.388200 -19.830500 -13.727900
C -62.062600 -15.907000 -12.423700
H -61.843500 -15.194700 -13.028900
H -61.822600 -17.363300 -13.847400
N -61.713200 -18.624600 -10.161600
C -61.612200 -18.664300 -11.524700
H -61.286300 -16.135800 -11.906600
H -60.946900 -18.760900 -9.720800
O -60.539600 -18.918600 -12.053300
15
Fragment
O -60.597400 -16.062400 -7.679500
N -59.467400 -15.871800 -8.099600
H -59.463600 -16.378100 -5.499600
O -59.217700 -15.608300 -9.261800
C -58.598000 -16.264200 -5.816700
C -58.367100 -15.978300 -7.165700
H -57.662000 -16.575100 -4.083400
C -57.538800 -16.372000 -4.981600
C -57.075800 -15.833500 -7.622300
H -56.932900 -15.665900 -8.525400
C -56.234000 -16.167900 -5.500400
N -56.028700 -15.926700 -6.805400
H -55.256900 -16.276500 -3.860100
N -55.147600 -16.192800 -4.722600
H -54.410600 -16.007300 -5.138500
40
Fragment
O -65.158600 -17.795400 -12.053300
H -64.751300 -17.953100 -9.720800
H -64.411900 -20.578200 -11.906600
C -64.086000 -18.049700 -11.524700
N -63.985000 -18.089400 -10.161600
H -63.875600 -19.350700 -13.847400
H -63.854700 -21.519300 -13.028900
C -63.635600 -20.807000 -12.423700
H -63.310000 -16.883500 -13.727900
C -63.178000 -19.590200 -13.216500
H -62.928700 -21.089700 -11.836800
C -62.849100 -18.357000 -12.350700
C -62.849100 -18.357000 -9.446000
O -62.849100 -18.357000 -8.227400
H -62.769500 -15.624300 -11.836800
C -62.520200 -17.123800 -13.216500
H -62.388200 -19.830500 -13.727900
C -62.062600 -15.907000 -12.423700
H -61.843500 -15.194700 -13.028900
H -61.822600 -17.363300 -13.847400
N -61.713200 -18.624600 -10.161600
C -61.612200 -18.664300 -11.524700
H -61.286300 -16.135800 -11.906600
H -60.946900 -18.760900 -9.720800
O -60.539600 -18.918600 -12.053300
O -60.597400 -16.062400 -7.679500
N -59.467400 -15.871800 -8.099600
H -59.463600 -16.378100 -5.499600
O -59.217700 -15.608300 -9.261800
C -58.598000 -16.264200 -5.816700
C -58.367100 -15.978300 -7.165700
H -57.662000 -16.575100 -4.083400
C -57.538800 -16.372000 -4.981600
C -57.075800 -15.833500 -7.622300
H -56.932900 -15.665900 -8.525400
C -56.234000 -16.167900 -5.500400
N -56.028700 -15.926700 -6.805400
H -55.256900 -16.276500 -3.860100
N -55.147600 -16.192800 -4.722600
H -54.410600 -16.007300 -5.138500
