25
Fragment
O -65.158600 -17.795400 -12.053300
H -64.751300 -17.953100 -9.720800
H -64.411900 -20.578200 -11.906600
C -64.086000 -18.049700 -11.524700
N -63.985000 -18.089400 -10.161600
H -63.875600 -19.350700 -13.847400
H -63.854700 -21.519300 -13.028900
C -63.635600 -20.807000 -12.423700
H -63.310000 -16.883500 -13.727900
C -63.178000 -19.590200 -13.216500
H -62.928700 -21.089700 -11.836800
C -62.849100 -18.357000 -12.350700
C -62.849100 -18.357000 -9.446000
O -62.849100 -18.357000 -8.227400
H -62.769500 -15.624300 -11.836800
C -62.520200 -17.123800 -13.216500
H -62.388200 -19.830500 -13.727900
C -62.062600 -15.907000 -12.423700
H -61.843500 -15.194700 -13.028900
H -61.822600 -17.363300 -13.847400
N -61.713200 -18.624600 -10.161600
C -61.612200 -18.664300 -11.524700
H -61.286300 -16.135800 -11.906600
H -60.946900 -18.760900 -9.720800
O -60.539600 -18.918600 -12.053300
15
Fragment
H -71.287600 -14.587700 -9.289200
N -70.550600 -14.402200 -8.873300
H -70.441300 -14.318500 -8.010800
N -69.669500 -14.668300 -10.956100
C -69.464200 -14.427100 -9.651100
H -68.765300 -14.929100 -12.676100
C -68.622400 -14.761500 -11.772900
C -68.159400 -14.223000 -9.132300
H -68.036200 -14.019900 -8.234100
C -67.331100 -14.616700 -11.316300
C -67.100200 -14.330800 -9.967400
O -66.480500 -14.986700 -13.412400
H -66.234600 -14.216900 -9.650300
N -66.230800 -14.723200 -12.250200
O -65.100800 -14.532600 -11.830200
40
Fragment
O -65.158600 -17.795400 -12.053300
H -64.751300 -17.953100 -9.720800
H -64.411900 -20.578200 -11.906600
C -64.086000 -18.049700 -11.524700
N -63.985000 -18.089400 -10.161600
H -63.875600 -19.350700 -13.847400
H -63.854700 -21.519300 -13.028900
C -63.635600 -20.807000 -12.423700
H -63.310000 -16.883500 -13.727900
C -63.178000 -19.590200 -13.216500
H -62.928700 -21.089700 -11.836800
C -62.849100 -18.357000 -12.350700
C -62.849100 -18.357000 -9.446000
O -62.849100 -18.357000 -8.227400
H -62.769500 -15.624300 -11.836800
C -62.520200 -17.123800 -13.216500
H -62.388200 -19.830500 -13.727900
C -62.062600 -15.907000 -12.423700
H -61.843500 -15.194700 -13.028900
H -61.822600 -17.363300 -13.847400
N -61.713200 -18.624600 -10.161600
C -61.612200 -18.664300 -11.524700
H -61.286300 -16.135800 -11.906600
H -60.946900 -18.760900 -9.720800
O -60.539600 -18.918600 -12.053300
H -71.287600 -14.587700 -9.289200
N -70.550600 -14.402200 -8.873300
H -70.441300 -14.318500 -8.010800
N -69.669500 -14.668300 -10.956100
C -69.464200 -14.427100 -9.651100
H -68.765300 -14.929100 -12.676100
C -68.622400 -14.761500 -11.772900
C -68.159400 -14.223000 -9.132300
H -68.036200 -14.019900 -8.234100
C -67.331100 -14.616700 -11.316300
C -67.100200 -14.330800 -9.967400
O -66.480500 -14.986700 -13.412400
H -66.234600 -14.216900 -9.650300
N -66.230800 -14.723200 -12.250200
O -65.100800 -14.532600 -11.830200
