33
Fragment
H -42.456500 -8.622700 -17.345500
N -41.698700 -8.328900 -17.594800
O -41.660800 -10.231500 -18.684200
N -41.497800 -12.400000 -19.529100
H -41.467200 -7.553100 -17.248600
C -40.943200 -11.227800 -19.295500
C -40.934600 -9.151600 -18.307800
H -40.746400 -13.904700 -20.335200
N -40.487800 -13.084200 -20.125800
C -39.622300 -11.124500 -19.715500
C -39.599700 -8.978000 -18.606700
O -39.390400 -8.729700 -21.651000
C -39.345000 -12.373600 -20.245700
C -38.955100 -7.872500 -18.024500
C -38.809300 -9.892300 -19.529100
C -38.541600 -9.213200 -20.910200
N -38.436300 -6.970000 -17.534300
H -38.238800 -13.804500 -21.143400
C -38.086900 -12.912800 -20.821800
H -37.802200 -12.354200 -21.548100
H -37.522100 -11.066400 -17.259600
H -37.406400 -12.928900 -20.144200
C -37.392300 -10.195600 -19.074000
N -37.219900 -9.250500 -21.149800
C -36.940200 -10.818300 -17.941000
H -36.855200 -8.954600 -21.869700
C -36.498800 -9.831500 -20.084700
C -35.582600 -11.061500 -17.853800
C -35.145900 -10.093800 -19.987800
F -35.091800 -11.660100 -16.741500
C -34.684700 -10.734100 -18.851200
H -34.561400 -9.846800 -20.667000
H -33.782900 -10.940300 -18.759100
33
Fragment
H -35.911500 -14.700700 -17.553800
H -35.132900 -15.794200 -15.645900
C -35.009700 -14.906900 -17.461700
F -34.602500 -13.980900 -19.571400
C -34.548400 -15.547200 -16.325100
C -34.111800 -14.579500 -18.459100
C -33.195600 -15.809500 -16.228200
H -32.839100 -16.686400 -14.443200
C -32.754100 -14.822700 -18.371900
N -32.474500 -16.390500 -15.163100
C -32.302100 -15.445400 -17.238900
H -32.287900 -12.712100 -16.168700
H -32.172200 -14.574600 -19.053300
H -31.892100 -13.286800 -14.764800
C -31.607400 -12.728200 -15.491100
H -31.455600 -11.836500 -15.169500
N -31.258000 -18.671000 -18.778600
C -31.152800 -16.427800 -15.402700
C -30.885100 -15.748700 -16.783800
C -30.739300 -17.768500 -18.288400
C -30.349300 -13.267400 -16.067200
O -30.304000 -16.911300 -14.661900
C -30.094700 -16.663000 -17.706200
C -30.072100 -14.516500 -16.597400
N -29.206500 -12.556800 -16.187100
H -28.947900 -11.736300 -15.977700
C -28.759700 -16.489400 -18.005100
C -28.751100 -14.413200 -17.017400
H -28.227100 -18.087900 -19.064300
N -28.196500 -13.241000 -16.783800
O -28.033600 -15.409500 -17.628700
N -27.995600 -17.312100 -18.718100
H -27.237800 -17.018300 -18.967400
66
Fragment
H -42.456500 -8.622700 -17.345500
N -41.698700 -8.328900 -17.594800
O -41.660800 -10.231500 -18.684200
N -41.497800 -12.400000 -19.529100
H -41.467200 -7.553100 -17.248600
C -40.943200 -11.227800 -19.295500
C -40.934600 -9.151600 -18.307800
H -40.746400 -13.904700 -20.335200
N -40.487800 -13.084200 -20.125800
C -39.622300 -11.124500 -19.715500
C -39.599700 -8.978000 -18.606700
O -39.390400 -8.729700 -21.651000
C -39.345000 -12.373600 -20.245700
C -38.955100 -7.872500 -18.024500
C -38.809300 -9.892300 -19.529100
C -38.541600 -9.213200 -20.910200
N -38.436300 -6.970000 -17.534300
H -38.238800 -13.804500 -21.143400
C -38.086900 -12.912800 -20.821800
H -37.802200 -12.354200 -21.548100
H -37.522100 -11.066400 -17.259600
H -37.406400 -12.928900 -20.144200
C -37.392300 -10.195600 -19.074000
N -37.219900 -9.250500 -21.149800
C -36.940200 -10.818300 -17.941000
H -36.855200 -8.954600 -21.869700
C -36.498800 -9.831500 -20.084700
C -35.582600 -11.061500 -17.853800
C -35.145900 -10.093800 -19.987800
F -35.091800 -11.660100 -16.741500
C -34.684700 -10.734100 -18.851200
H -34.561400 -9.846800 -20.667000
H -33.782900 -10.940300 -18.759100
H -35.911500 -14.700700 -17.553800
H -35.132900 -15.794200 -15.645900
C -35.009700 -14.906900 -17.461700
F -34.602500 -13.980900 -19.571400
C -34.548400 -15.547200 -16.325100
C -34.111800 -14.579500 -18.459100
C -33.195600 -15.809500 -16.228200
H -32.839100 -16.686400 -14.443200
C -32.754100 -14.822700 -18.371900
N -32.474500 -16.390500 -15.163100
C -32.302100 -15.445400 -17.238900
H -32.287900 -12.712100 -16.168700
H -32.172200 -14.574600 -19.053300
H -31.892100 -13.286800 -14.764800
C -31.607400 -12.728200 -15.491100
H -31.455600 -11.836500 -15.169500
N -31.258000 -18.671000 -18.778600
C -31.152800 -16.427800 -15.402700
C -30.885100 -15.748700 -16.783800
C -30.739300 -17.768500 -18.288400
C -30.349300 -13.267400 -16.067200
O -30.304000 -16.911300 -14.661900
C -30.094700 -16.663000 -17.706200
C -30.072100 -14.516500 -16.597400
N -29.206500 -12.556800 -16.187100
H -28.947900 -11.736300 -15.977700
C -28.759700 -16.489400 -18.005100
C -28.751100 -14.413200 -17.017400
H -28.227100 -18.087900 -19.064300
N -28.196500 -13.241000 -16.783800
O -28.033600 -15.409500 -17.628700
N -27.995600 -17.312100 -18.718100
H -27.237800 -17.018300 -18.967400
