33
Fragment
H -42.456500 -8.622700 -17.345500
N -41.698700 -8.328900 -17.594800
O -41.660800 -10.231500 -18.684200
N -41.497800 -12.400000 -19.529100
H -41.467200 -7.553100 -17.248600
C -40.943200 -11.227800 -19.295500
C -40.934600 -9.151600 -18.307800
H -40.746400 -13.904700 -20.335200
N -40.487800 -13.084200 -20.125800
C -39.622300 -11.124500 -19.715500
C -39.599700 -8.978000 -18.606700
O -39.390400 -8.729700 -21.651000
C -39.345000 -12.373600 -20.245700
C -38.955100 -7.872500 -18.024500
C -38.809300 -9.892300 -19.529100
C -38.541600 -9.213200 -20.910200
N -38.436300 -6.970000 -17.534300
H -38.238800 -13.804500 -21.143400
C -38.086900 -12.912800 -20.821800
H -37.802200 -12.354200 -21.548100
H -37.522100 -11.066400 -17.259600
H -37.406400 -12.928900 -20.144200
C -37.392300 -10.195600 -19.074000
N -37.219900 -9.250500 -21.149800
C -36.940200 -10.818300 -17.941000
H -36.855200 -8.954600 -21.869700
C -36.498800 -9.831500 -20.084700
C -35.582600 -11.061500 -17.853800
C -35.145900 -10.093800 -19.987800
F -35.091800 -11.660100 -16.741500
C -34.684700 -10.734100 -18.851200
H -34.561400 -9.846800 -20.667000
H -33.782900 -10.940300 -18.759100
33
Fragment
H -52.024000 -3.711700 -17.553800
H -51.245400 -4.805200 -15.645900
C -51.122200 -3.917900 -17.461700
F -50.715000 -2.991900 -19.571400
C -50.660900 -4.558200 -16.325100
C -50.224300 -3.590500 -18.459100
C -49.308100 -4.820500 -16.228200
H -48.951600 -5.697400 -14.443200
C -48.866600 -3.833700 -18.371900
N -48.587000 -5.401500 -15.163100
C -48.414600 -4.456400 -17.238900
H -48.400400 -1.723100 -16.168700
H -48.284700 -3.585600 -19.053300
H -48.004600 -2.297800 -14.764800
C -47.719900 -1.739200 -15.491100
H -47.568100 -0.847500 -15.169500
N -47.370500 -7.682000 -18.778600
C -47.265300 -5.438800 -15.402700
C -46.997600 -4.759700 -16.783800
C -46.851800 -6.779500 -18.288400
C -46.461800 -2.278400 -16.067200
O -46.416500 -5.922300 -14.661900
C -46.207200 -5.674000 -17.706200
C -46.184600 -3.527500 -16.597400
N -45.319000 -1.567800 -16.187100
H -45.060400 -0.747300 -15.977700
C -44.872200 -5.500400 -18.005100
C -44.863600 -3.424200 -17.017400
H -44.339600 -7.098900 -19.064300
N -44.309000 -2.252000 -16.783800
O -44.146100 -4.420500 -17.628700
N -44.108100 -6.323100 -18.718100
H -43.350300 -6.029300 -18.967400
66
Fragment
H -42.456500 -8.622700 -17.345500
N -41.698700 -8.328900 -17.594800
O -41.660800 -10.231500 -18.684200
N -41.497800 -12.400000 -19.529100
H -41.467200 -7.553100 -17.248600
C -40.943200 -11.227800 -19.295500
C -40.934600 -9.151600 -18.307800
H -40.746400 -13.904700 -20.335200
N -40.487800 -13.084200 -20.125800
C -39.622300 -11.124500 -19.715500
C -39.599700 -8.978000 -18.606700
O -39.390400 -8.729700 -21.651000
C -39.345000 -12.373600 -20.245700
C -38.955100 -7.872500 -18.024500
C -38.809300 -9.892300 -19.529100
C -38.541600 -9.213200 -20.910200
N -38.436300 -6.970000 -17.534300
H -38.238800 -13.804500 -21.143400
C -38.086900 -12.912800 -20.821800
H -37.802200 -12.354200 -21.548100
H -37.522100 -11.066400 -17.259600
H -37.406400 -12.928900 -20.144200
C -37.392300 -10.195600 -19.074000
N -37.219900 -9.250500 -21.149800
C -36.940200 -10.818300 -17.941000
H -36.855200 -8.954600 -21.869700
C -36.498800 -9.831500 -20.084700
C -35.582600 -11.061500 -17.853800
C -35.145900 -10.093800 -19.987800
F -35.091800 -11.660100 -16.741500
C -34.684700 -10.734100 -18.851200
H -34.561400 -9.846800 -20.667000
H -33.782900 -10.940300 -18.759100
H -52.024000 -3.711700 -17.553800
H -51.245400 -4.805200 -15.645900
C -51.122200 -3.917900 -17.461700
F -50.715000 -2.991900 -19.571400
C -50.660900 -4.558200 -16.325100
C -50.224300 -3.590500 -18.459100
C -49.308100 -4.820500 -16.228200
H -48.951600 -5.697400 -14.443200
C -48.866600 -3.833700 -18.371900
N -48.587000 -5.401500 -15.163100
C -48.414600 -4.456400 -17.238900
H -48.400400 -1.723100 -16.168700
H -48.284700 -3.585600 -19.053300
H -48.004600 -2.297800 -14.764800
C -47.719900 -1.739200 -15.491100
H -47.568100 -0.847500 -15.169500
N -47.370500 -7.682000 -18.778600
C -47.265300 -5.438800 -15.402700
C -46.997600 -4.759700 -16.783800
C -46.851800 -6.779500 -18.288400
C -46.461800 -2.278400 -16.067200
O -46.416500 -5.922300 -14.661900
C -46.207200 -5.674000 -17.706200
C -46.184600 -3.527500 -16.597400
N -45.319000 -1.567800 -16.187100
H -45.060400 -0.747300 -15.977700
C -44.872200 -5.500400 -18.005100
C -44.863600 -3.424200 -17.017400
H -44.339600 -7.098900 -19.064300
N -44.309000 -2.252000 -16.783800
O -44.146100 -4.420500 -17.628700
N -44.108100 -6.323100 -18.718100
H -43.350300 -6.029300 -18.967400
