33
Fragment
H -42.456500 -8.622700 -17.345500
N -41.698700 -8.328900 -17.594800
O -41.660800 -10.231500 -18.684200
N -41.497800 -12.400000 -19.529100
H -41.467200 -7.553100 -17.248600
C -40.943200 -11.227800 -19.295500
C -40.934600 -9.151600 -18.307800
H -40.746400 -13.904700 -20.335200
N -40.487800 -13.084200 -20.125800
C -39.622300 -11.124500 -19.715500
C -39.599700 -8.978000 -18.606700
O -39.390400 -8.729700 -21.651000
C -39.345000 -12.373600 -20.245700
C -38.955100 -7.872500 -18.024500
C -38.809300 -9.892300 -19.529100
C -38.541600 -9.213200 -20.910200
N -38.436300 -6.970000 -17.534300
H -38.238800 -13.804500 -21.143400
C -38.086900 -12.912800 -20.821800
H -37.802200 -12.354200 -21.548100
H -37.522100 -11.066400 -17.259600
H -37.406400 -12.928900 -20.144200
C -37.392300 -10.195600 -19.074000
N -37.219900 -9.250500 -21.149800
C -36.940200 -10.818300 -17.941000
H -36.855200 -8.954600 -21.869700
C -36.498800 -9.831500 -20.084700
C -35.582600 -11.061500 -17.853800
C -35.145900 -10.093800 -19.987800
F -35.091800 -11.660100 -16.741500
C -34.684700 -10.734100 -18.851200
H -34.561400 -9.846800 -20.667000
H -33.782900 -10.940300 -18.759100
3
Fragment
H -42.709600 -15.787500 -21.388300
O -41.997700 -15.356800 -21.182500
H -41.285900 -15.787500 -20.976800
36
Fragment
H -42.456500 -8.622700 -17.345500
N -41.698700 -8.328900 -17.594800
O -41.660800 -10.231500 -18.684200
N -41.497800 -12.400000 -19.529100
H -41.467200 -7.553100 -17.248600
C -40.943200 -11.227800 -19.295500
C -40.934600 -9.151600 -18.307800
H -40.746400 -13.904700 -20.335200
N -40.487800 -13.084200 -20.125800
C -39.622300 -11.124500 -19.715500
C -39.599700 -8.978000 -18.606700
O -39.390400 -8.729700 -21.651000
C -39.345000 -12.373600 -20.245700
C -38.955100 -7.872500 -18.024500
C -38.809300 -9.892300 -19.529100
C -38.541600 -9.213200 -20.910200
N -38.436300 -6.970000 -17.534300
H -38.238800 -13.804500 -21.143400
C -38.086900 -12.912800 -20.821800
H -37.802200 -12.354200 -21.548100
H -37.522100 -11.066400 -17.259600
H -37.406400 -12.928900 -20.144200
C -37.392300 -10.195600 -19.074000
N -37.219900 -9.250500 -21.149800
C -36.940200 -10.818300 -17.941000
H -36.855200 -8.954600 -21.869700
C -36.498800 -9.831500 -20.084700
C -35.582600 -11.061500 -17.853800
C -35.145900 -10.093800 -19.987800
F -35.091800 -11.660100 -16.741500
C -34.684700 -10.734100 -18.851200
H -34.561400 -9.846800 -20.667000
H -33.782900 -10.940300 -18.759100
H -42.709600 -15.787500 -21.388300
O -41.997700 -15.356800 -21.182500
H -41.285900 -15.787500 -20.976800
