33
Fragment
H -42.456500 -8.622700 -17.345500
N -41.698700 -8.328900 -17.594800
O -41.660800 -10.231500 -18.684200
N -41.497800 -12.400000 -19.529100
H -41.467200 -7.553100 -17.248600
C -40.943200 -11.227800 -19.295500
C -40.934600 -9.151600 -18.307800
H -40.746400 -13.904700 -20.335200
N -40.487800 -13.084200 -20.125800
C -39.622300 -11.124500 -19.715500
C -39.599700 -8.978000 -18.606700
O -39.390400 -8.729700 -21.651000
C -39.345000 -12.373600 -20.245700
C -38.955100 -7.872500 -18.024500
C -38.809300 -9.892300 -19.529100
C -38.541600 -9.213200 -20.910200
N -38.436300 -6.970000 -17.534300
H -38.238800 -13.804500 -21.143400
C -38.086900 -12.912800 -20.821800
H -37.802200 -12.354200 -21.548100
H -37.522100 -11.066400 -17.259600
H -37.406400 -12.928900 -20.144200
C -37.392300 -10.195600 -19.074000
N -37.219900 -9.250500 -21.149800
C -36.940200 -10.818300 -17.941000
H -36.855200 -8.954600 -21.869700
C -36.498800 -9.831500 -20.084700
C -35.582600 -11.061500 -17.853800
C -35.145900 -10.093800 -19.987800
F -35.091800 -11.660100 -16.741500
C -34.684700 -10.734100 -18.851200
H -34.561400 -9.846800 -20.667000
H -33.782900 -10.940300 -18.759100
33
Fragment
H -40.645200 -13.355300 -23.397600
N -39.887400 -13.649100 -23.647000
O -39.849400 -11.746500 -24.736300
N -39.686500 -9.578000 -25.581200
H -39.655800 -14.424900 -23.300800
C -39.131900 -10.750200 -25.347600
C -39.123300 -12.826400 -24.359900
H -38.935100 -8.073300 -26.387400
N -38.676500 -8.893800 -26.178000
C -37.810900 -10.853500 -25.767600
C -37.788300 -13.000000 -24.658900
O -37.579000 -13.248300 -27.703100
C -37.533700 -9.604400 -26.297800
C -37.143700 -14.105500 -24.076700
C -36.997900 -12.085700 -25.581200
C -36.730200 -12.764800 -26.962300
N -36.625000 -15.008000 -23.586400
H -36.427400 -8.173500 -27.195600
C -36.275600 -9.065200 -26.874000
H -35.990900 -9.623800 -27.600200
H -35.710800 -10.911600 -23.311800
H -35.595100 -9.049100 -26.196400
C -35.580900 -11.782400 -25.126100
N -35.408500 -12.727500 -27.202000
C -35.128900 -11.159700 -23.993100
H -35.043900 -13.023400 -27.921800
C -34.687400 -12.146500 -26.136800
C -33.771200 -10.916500 -23.906000
C -33.334600 -11.884200 -26.040000
F -33.280500 -10.317900 -22.793600
C -32.873300 -11.243900 -24.903400
H -32.750100 -12.131200 -26.719200
H -31.971500 -11.037700 -24.811300
66
Fragment
H -42.456500 -8.622700 -17.345500
N -41.698700 -8.328900 -17.594800
O -41.660800 -10.231500 -18.684200
N -41.497800 -12.400000 -19.529100
H -41.467200 -7.553100 -17.248600
C -40.943200 -11.227800 -19.295500
C -40.934600 -9.151600 -18.307800
H -40.746400 -13.904700 -20.335200
N -40.487800 -13.084200 -20.125800
C -39.622300 -11.124500 -19.715500
C -39.599700 -8.978000 -18.606700
O -39.390400 -8.729700 -21.651000
C -39.345000 -12.373600 -20.245700
C -38.955100 -7.872500 -18.024500
C -38.809300 -9.892300 -19.529100
C -38.541600 -9.213200 -20.910200
N -38.436300 -6.970000 -17.534300
H -38.238800 -13.804500 -21.143400
C -38.086900 -12.912800 -20.821800
H -37.802200 -12.354200 -21.548100
H -37.522100 -11.066400 -17.259600
H -37.406400 -12.928900 -20.144200
C -37.392300 -10.195600 -19.074000
N -37.219900 -9.250500 -21.149800
C -36.940200 -10.818300 -17.941000
H -36.855200 -8.954600 -21.869700
C -36.498800 -9.831500 -20.084700
C -35.582600 -11.061500 -17.853800
C -35.145900 -10.093800 -19.987800
F -35.091800 -11.660100 -16.741500
C -34.684700 -10.734100 -18.851200
H -34.561400 -9.846800 -20.667000
H -33.782900 -10.940300 -18.759100
H -40.645200 -13.355300 -23.397600
N -39.887400 -13.649100 -23.647000
O -39.849400 -11.746500 -24.736300
N -39.686500 -9.578000 -25.581200
H -39.655800 -14.424900 -23.300800
C -39.131900 -10.750200 -25.347600
C -39.123300 -12.826400 -24.359900
H -38.935100 -8.073300 -26.387400
N -38.676500 -8.893800 -26.178000
C -37.810900 -10.853500 -25.767600
C -37.788300 -13.000000 -24.658900
O -37.579000 -13.248300 -27.703100
C -37.533700 -9.604400 -26.297800
C -37.143700 -14.105500 -24.076700
C -36.997900 -12.085700 -25.581200
C -36.730200 -12.764800 -26.962300
N -36.625000 -15.008000 -23.586400
H -36.427400 -8.173500 -27.195600
C -36.275600 -9.065200 -26.874000
H -35.990900 -9.623800 -27.600200
H -35.710800 -10.911600 -23.311800
H -35.595100 -9.049100 -26.196400
C -35.580900 -11.782400 -25.126100
N -35.408500 -12.727500 -27.202000
C -35.128900 -11.159700 -23.993100
H -35.043900 -13.023400 -27.921800
C -34.687400 -12.146500 -26.136800
C -33.771200 -10.916500 -23.906000
C -33.334600 -11.884200 -26.040000
F -33.280500 -10.317900 -22.793600
C -32.873300 -11.243900 -24.903400
H -32.750100 -12.131200 -26.719200
H -31.971500 -11.037700 -24.811300
