11
Fragment
H -22.870800 -24.545900 -22.620700
N -22.288400 -23.945000 -22.423100
H -22.154300 -22.780700 -24.099600
C -21.877700 -22.950700 -23.228400
H -21.799900 -24.407700 -20.440500
C -21.641600 -23.840900 -21.266300
C -20.968000 -22.245000 -22.497700
N -20.819900 -22.815000 -21.263400
H -20.489000 -20.736200 -23.852100
C -20.244600 -21.078800 -22.916500
O -19.438800 -20.495000 -22.204900
50
Fragment
H -19.471900 -17.628500 -25.966500
C -18.694600 -17.868400 -26.417400
H -18.646100 -16.265500 -27.621000
O -18.574100 -19.784600 -25.071800
H -18.372800 -11.849300 -26.897700
C -18.200900 -17.055400 -27.411700
H -18.154600 -20.484800 -24.995700
H -18.038000 -13.135200 -28.785100
C -18.037200 -19.040200 -26.085100
C -17.781100 -12.565600 -26.874300
H -17.689700 -18.695300 -30.348900
C -17.579300 -13.348200 -28.004700
H -17.550500 -15.422100 -31.690100
O -17.293200 -12.041600 -24.641300
H -17.281500 -14.129600 -33.558400
H -17.093200 -20.025200 -32.135200
C -17.088700 -12.867500 -25.716100
C -17.034100 -17.401400 -28.115900
C -16.977800 -14.690700 -31.657900
C -16.916800 -18.494400 -30.826200
C -16.877600 -19.400900 -26.749800
C -16.826100 -13.914100 -32.776600
H -16.785100 -12.253400 -24.033700
C -16.718600 -14.435500 -28.007600
C -16.559300 -16.581600 -29.259500
C -16.558400 -19.304600 -31.890700
C -16.508200 -15.227900 -29.243400
H -16.427500 -20.183500 -26.527300
C -16.399300 -18.575400 -27.752800
H -16.335000 -12.190700 -34.409200
C -16.301400 -14.417200 -30.477700
C -16.219900 -13.936600 -25.691200
C -16.159400 -17.386400 -30.445500
C -16.030200 -14.712100 -26.818600
C -15.982400 -12.793200 -32.742900
O -15.829300 -11.959500 -33.805900
H -15.756900 -14.137300 -24.910800
H -15.621600 -18.820100 -28.199400
C -15.456800 -13.311700 -30.463100
H -15.436600 -15.428100 -26.787900
H -15.412900 -20.474200 -33.678500
C -15.394700 -19.028800 -32.584700
C -15.288200 -12.508000 -31.580300
C -15.010200 -17.123200 -31.187900
H -14.993100 -13.105800 -29.682700
O -14.945600 -19.803000 -33.617000
H -14.710800 -11.779700 -31.548100
C -14.624500 -17.918900 -32.242100
H -14.487500 -16.387300 -30.965300
H -13.854200 -17.718300 -32.723800
61
Fragment
H -22.870800 -24.545900 -22.620700
N -22.288400 -23.945000 -22.423100
H -22.154300 -22.780700 -24.099600
C -21.877700 -22.950700 -23.228400
H -21.799900 -24.407700 -20.440500
C -21.641600 -23.840900 -21.266300
C -20.968000 -22.245000 -22.497700
N -20.819900 -22.815000 -21.263400
H -20.489000 -20.736200 -23.852100
C -20.244600 -21.078800 -22.916500
O -19.438800 -20.495000 -22.204900
H -19.471900 -17.628500 -25.966500
C -18.694600 -17.868400 -26.417400
H -18.646100 -16.265500 -27.621000
O -18.574100 -19.784600 -25.071800
H -18.372800 -11.849300 -26.897700
C -18.200900 -17.055400 -27.411700
H -18.154600 -20.484800 -24.995700
H -18.038000 -13.135200 -28.785100
C -18.037200 -19.040200 -26.085100
C -17.781100 -12.565600 -26.874300
H -17.689700 -18.695300 -30.348900
C -17.579300 -13.348200 -28.004700
H -17.550500 -15.422100 -31.690100
O -17.293200 -12.041600 -24.641300
H -17.281500 -14.129600 -33.558400
H -17.093200 -20.025200 -32.135200
C -17.088700 -12.867500 -25.716100
C -17.034100 -17.401400 -28.115900
C -16.977800 -14.690700 -31.657900
C -16.916800 -18.494400 -30.826200
C -16.877600 -19.400900 -26.749800
C -16.826100 -13.914100 -32.776600
H -16.785100 -12.253400 -24.033700
C -16.718600 -14.435500 -28.007600
C -16.559300 -16.581600 -29.259500
C -16.558400 -19.304600 -31.890700
C -16.508200 -15.227900 -29.243400
H -16.427500 -20.183500 -26.527300
C -16.399300 -18.575400 -27.752800
H -16.335000 -12.190700 -34.409200
C -16.301400 -14.417200 -30.477700
C -16.219900 -13.936600 -25.691200
C -16.159400 -17.386400 -30.445500
C -16.030200 -14.712100 -26.818600
C -15.982400 -12.793200 -32.742900
O -15.829300 -11.959500 -33.805900
H -15.756900 -14.137300 -24.910800
H -15.621600 -18.820100 -28.199400
C -15.456800 -13.311700 -30.463100
H -15.436600 -15.428100 -26.787900
H -15.412900 -20.474200 -33.678500
C -15.394700 -19.028800 -32.584700
C -15.288200 -12.508000 -31.580300
C -15.010200 -17.123200 -31.187900
H -14.993100 -13.105800 -29.682700
O -14.945600 -19.803000 -33.617000
H -14.710800 -11.779700 -31.548100
C -14.624500 -17.918900 -32.242100
H -14.487500 -16.387300 -30.965300
H -13.854200 -17.718300 -32.723800
