30
Fragment
N -13.512000 -14.420900 -18.180500
C -12.541900 -14.152000 -18.725900
C -11.336900 -13.778700 -19.421800
H -11.299900 -15.356900 -20.675800
H -10.986500 -12.104400 -18.372900
C -10.842900 -14.574300 -20.455600
C -10.683900 -12.596900 -19.089100
C -9.716300 -14.181600 -21.150300
C -9.553300 -12.213400 -19.774900
H -9.391800 -14.673100 -21.903200
H -9.088100 -11.448400 -19.537000
C -9.063300 -12.999800 -20.806100
N -7.935000 -12.532200 -21.497000
H -7.794200 -11.725600 -21.447700
O -7.001300 -14.517900 -22.143600
C -7.001300 -13.292700 -22.143600
H -6.208500 -11.725600 -22.839600
N -6.067700 -12.532200 -22.790200
C -4.939400 -12.999800 -23.481100
H -4.914600 -11.448400 -24.750200
H -4.610900 -14.673100 -22.384000
C -4.449400 -12.213400 -24.512300
C -4.286400 -14.181600 -23.136900
C -3.318800 -12.596900 -25.198200
C -3.159800 -14.574300 -23.831600
H -3.016200 -12.104400 -25.914400
H -2.702800 -15.356900 -23.611400
C -2.665800 -13.778700 -24.865400
C -1.460800 -14.152000 -25.561300
N -0.490700 -14.420900 -26.106700
30
Fragment
N -19.993000 -19.040900 -18.180500
C -19.022900 -18.772000 -18.725900
C -17.817900 -18.398700 -19.421800
H -17.780900 -19.976900 -20.675800
H -17.467500 -16.724400 -18.372900
C -17.323900 -19.194300 -20.455600
C -17.164900 -17.216900 -19.089100
C -16.197300 -18.801600 -21.150300
C -16.034300 -16.833400 -19.774900
H -15.872800 -19.293100 -21.903200
H -15.569100 -16.068400 -19.537000
C -15.544300 -17.619800 -20.806100
N -14.416000 -17.152200 -21.497000
H -14.275200 -16.345600 -21.447700
O -13.482300 -19.137900 -22.143600
C -13.482300 -17.912700 -22.143600
H -12.689500 -16.345600 -22.839600
N -12.548700 -17.152200 -22.790200
C -11.420400 -17.619800 -23.481100
H -11.395600 -16.068400 -24.750200
H -11.091900 -19.293100 -22.384000
C -10.930400 -16.833400 -24.512300
C -10.767400 -18.801600 -23.136900
C -9.799800 -17.216900 -25.198200
C -9.640800 -19.194300 -23.831600
H -9.497200 -16.724400 -25.914400
H -9.183800 -19.976900 -23.611400
C -9.146800 -18.398700 -24.865400
C -7.941800 -18.772000 -25.561300
N -6.971700 -19.040900 -26.106700
60
Fragment
N -13.512000 -14.420900 -18.180500
C -12.541900 -14.152000 -18.725900
C -11.336900 -13.778700 -19.421800
H -11.299900 -15.356900 -20.675800
H -10.986500 -12.104400 -18.372900
C -10.842900 -14.574300 -20.455600
C -10.683900 -12.596900 -19.089100
C -9.716300 -14.181600 -21.150300
C -9.553300 -12.213400 -19.774900
H -9.391800 -14.673100 -21.903200
H -9.088100 -11.448400 -19.537000
C -9.063300 -12.999800 -20.806100
N -7.935000 -12.532200 -21.497000
H -7.794200 -11.725600 -21.447700
O -7.001300 -14.517900 -22.143600
C -7.001300 -13.292700 -22.143600
H -6.208500 -11.725600 -22.839600
N -6.067700 -12.532200 -22.790200
C -4.939400 -12.999800 -23.481100
H -4.914600 -11.448400 -24.750200
H -4.610900 -14.673100 -22.384000
C -4.449400 -12.213400 -24.512300
C -4.286400 -14.181600 -23.136900
C -3.318800 -12.596900 -25.198200
C -3.159800 -14.574300 -23.831600
H -3.016200 -12.104400 -25.914400
H -2.702800 -15.356900 -23.611400
C -2.665800 -13.778700 -24.865400
C -1.460800 -14.152000 -25.561300
N -0.490700 -14.420900 -26.106700
N -19.993000 -19.040900 -18.180500
C -19.022900 -18.772000 -18.725900
C -17.817900 -18.398700 -19.421800
H -17.780900 -19.976900 -20.675800
H -17.467500 -16.724400 -18.372900
C -17.323900 -19.194300 -20.455600
C -17.164900 -17.216900 -19.089100
C -16.197300 -18.801600 -21.150300
C -16.034300 -16.833400 -19.774900
H -15.872800 -19.293100 -21.903200
H -15.569100 -16.068400 -19.537000
C -15.544300 -17.619800 -20.806100
N -14.416000 -17.152200 -21.497000
H -14.275200 -16.345600 -21.447700
O -13.482300 -19.137900 -22.143600
C -13.482300 -17.912700 -22.143600
H -12.689500 -16.345600 -22.839600
N -12.548700 -17.152200 -22.790200
C -11.420400 -17.619800 -23.481100
H -11.395600 -16.068400 -24.750200
H -11.091900 -19.293100 -22.384000
C -10.930400 -16.833400 -24.512300
C -10.767400 -18.801600 -23.136900
C -9.799800 -17.216900 -25.198200
C -9.640800 -19.194300 -23.831600
H -9.497200 -16.724400 -25.914400
H -9.183800 -19.976900 -23.611400
C -9.146800 -18.398700 -24.865400
C -7.941800 -18.772000 -25.561300
N -6.971700 -19.040900 -26.106700
