30
Fragment
N -13.512000 -14.420900 -18.180500
C -12.541900 -14.152000 -18.725900
C -11.336900 -13.778700 -19.421800
H -11.299900 -15.356900 -20.675800
H -10.986500 -12.104400 -18.372900
C -10.842900 -14.574300 -20.455600
C -10.683900 -12.596900 -19.089100
C -9.716300 -14.181600 -21.150300
C -9.553300 -12.213400 -19.774900
H -9.391800 -14.673100 -21.903200
H -9.088100 -11.448400 -19.537000
C -9.063300 -12.999800 -20.806100
N -7.935000 -12.532200 -21.497000
H -7.794200 -11.725600 -21.447700
O -7.001300 -14.517900 -22.143600
C -7.001300 -13.292700 -22.143600
H -6.208500 -11.725600 -22.839600
N -6.067700 -12.532200 -22.790200
C -4.939400 -12.999800 -23.481100
H -4.914600 -11.448400 -24.750200
H -4.610900 -14.673100 -22.384000
C -4.449400 -12.213400 -24.512300
C -4.286400 -14.181600 -23.136900
C -3.318800 -12.596900 -25.198200
C -3.159800 -14.574300 -23.831600
H -3.016200 -12.104400 -25.914400
H -2.702800 -15.356900 -23.611400
C -2.665800 -13.778700 -24.865400
C -1.460800 -14.152000 -25.561300
N -0.490700 -14.420900 -26.106700
30
Fragment
N -17.066700 -13.299100 -11.853800
C -16.096700 -13.568000 -12.399200
C -14.891600 -13.941300 -13.095100
H -14.854600 -12.363100 -14.349100
H -14.541300 -15.615600 -12.046100
C -14.397600 -13.145700 -14.128900
C -14.238700 -15.123100 -12.762300
C -13.271100 -13.538400 -14.823600
C -13.108000 -15.506600 -13.448100
H -12.946600 -13.046900 -15.576400
H -12.642800 -16.271600 -13.210200
C -12.618000 -14.720200 -14.479400
N -11.489700 -15.187800 -15.170300
H -11.348900 -15.994400 -15.120900
C -10.556100 -14.427300 -15.816900
O -10.556100 -13.202100 -15.816900
H -9.763300 -15.994400 -16.512800
N -9.622500 -15.187800 -16.463500
C -8.494200 -14.720200 -17.154300
H -8.469400 -16.271600 -18.423500
H -8.165600 -13.046900 -16.057300
C -8.004200 -15.506600 -18.185600
C -7.841100 -13.538400 -16.810200
C -6.873500 -15.123100 -18.871400
C -6.714600 -13.145700 -17.504800
H -6.570900 -15.615600 -19.587600
H -6.257600 -12.363100 -17.284700
C -6.220600 -13.941300 -18.538600
C -5.015500 -13.568000 -19.234600
N -4.045500 -13.299100 -19.779900
60
Fragment
N -13.512000 -14.420900 -18.180500
C -12.541900 -14.152000 -18.725900
C -11.336900 -13.778700 -19.421800
H -11.299900 -15.356900 -20.675800
H -10.986500 -12.104400 -18.372900
C -10.842900 -14.574300 -20.455600
C -10.683900 -12.596900 -19.089100
C -9.716300 -14.181600 -21.150300
C -9.553300 -12.213400 -19.774900
H -9.391800 -14.673100 -21.903200
H -9.088100 -11.448400 -19.537000
C -9.063300 -12.999800 -20.806100
N -7.935000 -12.532200 -21.497000
H -7.794200 -11.725600 -21.447700
O -7.001300 -14.517900 -22.143600
C -7.001300 -13.292700 -22.143600
H -6.208500 -11.725600 -22.839600
N -6.067700 -12.532200 -22.790200
C -4.939400 -12.999800 -23.481100
H -4.914600 -11.448400 -24.750200
H -4.610900 -14.673100 -22.384000
C -4.449400 -12.213400 -24.512300
C -4.286400 -14.181600 -23.136900
C -3.318800 -12.596900 -25.198200
C -3.159800 -14.574300 -23.831600
H -3.016200 -12.104400 -25.914400
H -2.702800 -15.356900 -23.611400
C -2.665800 -13.778700 -24.865400
C -1.460800 -14.152000 -25.561300
N -0.490700 -14.420900 -26.106700
N -17.066700 -13.299100 -11.853800
C -16.096700 -13.568000 -12.399200
C -14.891600 -13.941300 -13.095100
H -14.854600 -12.363100 -14.349100
H -14.541300 -15.615600 -12.046100
C -14.397600 -13.145700 -14.128900
C -14.238700 -15.123100 -12.762300
C -13.271100 -13.538400 -14.823600
C -13.108000 -15.506600 -13.448100
H -12.946600 -13.046900 -15.576400
H -12.642800 -16.271600 -13.210200
C -12.618000 -14.720200 -14.479400
N -11.489700 -15.187800 -15.170300
H -11.348900 -15.994400 -15.120900
C -10.556100 -14.427300 -15.816900
O -10.556100 -13.202100 -15.816900
H -9.763300 -15.994400 -16.512800
N -9.622500 -15.187800 -16.463500
C -8.494200 -14.720200 -17.154300
H -8.469400 -16.271600 -18.423500
H -8.165600 -13.046900 -16.057300
C -8.004200 -15.506600 -18.185600
C -7.841100 -13.538400 -16.810200
C -6.873500 -15.123100 -18.871400
C -6.714600 -13.145700 -17.504800
H -6.570900 -15.615600 -19.587600
H -6.257600 -12.363100 -17.284700
C -6.220600 -13.941300 -18.538600
C -5.015500 -13.568000 -19.234600
N -4.045500 -13.299100 -19.779900
