30
Fragment
N -13.512000 -14.420900 -18.180500
C -12.541900 -14.152000 -18.725900
C -11.336900 -13.778700 -19.421800
H -11.299900 -15.356900 -20.675800
H -10.986500 -12.104400 -18.372900
C -10.842900 -14.574300 -20.455600
C -10.683900 -12.596900 -19.089100
C -9.716300 -14.181600 -21.150300
C -9.553300 -12.213400 -19.774900
H -9.391800 -14.673100 -21.903200
H -9.088100 -11.448400 -19.537000
C -9.063300 -12.999800 -20.806100
N -7.935000 -12.532200 -21.497000
H -7.794200 -11.725600 -21.447700
O -7.001300 -14.517900 -22.143600
C -7.001300 -13.292700 -22.143600
H -6.208500 -11.725600 -22.839600
N -6.067700 -12.532200 -22.790200
C -4.939400 -12.999800 -23.481100
H -4.914600 -11.448400 -24.750200
H -4.610900 -14.673100 -22.384000
C -4.449400 -12.213400 -24.512300
C -4.286400 -14.181600 -23.136900
C -3.318800 -12.596900 -25.198200
C -3.159800 -14.574300 -23.831600
H -3.016200 -12.104400 -25.914400
H -2.702800 -15.356900 -23.611400
C -2.665800 -13.778700 -24.865400
C -1.460800 -14.152000 -25.561300
N -0.490700 -14.420900 -26.106700
30
Fragment
N -23.547700 -17.919100 -11.853800
C -22.577700 -18.188000 -12.399200
C -21.372600 -18.561300 -13.095100
H -21.335600 -16.983100 -14.349100
H -21.022300 -20.235600 -12.046100
C -20.878600 -17.765700 -14.128900
C -20.719700 -19.743100 -12.762300
C -19.752100 -18.158400 -14.823600
C -19.589000 -20.126600 -13.448100
H -19.427600 -17.666900 -15.576400
H -19.123800 -20.891600 -13.210200
C -19.099000 -19.340200 -14.479400
N -17.970700 -19.807800 -15.170300
H -17.829900 -20.614400 -15.120900
C -17.037100 -19.047300 -15.816900
O -17.037100 -17.822100 -15.816900
H -16.244300 -20.614400 -16.512800
N -16.103500 -19.807800 -16.463500
C -14.975200 -19.340200 -17.154300
H -14.950400 -20.891600 -18.423500
H -14.646600 -17.666900 -16.057300
C -14.485200 -20.126600 -18.185600
C -14.322100 -18.158400 -16.810200
C -13.354500 -19.743100 -18.871400
C -13.195600 -17.765700 -17.504800
H -13.051900 -20.235600 -19.587600
H -12.738600 -16.983100 -17.284700
C -12.701600 -18.561300 -18.538600
C -11.496500 -18.188000 -19.234600
N -10.526500 -17.919100 -19.779900
60
Fragment
N -13.512000 -14.420900 -18.180500
C -12.541900 -14.152000 -18.725900
C -11.336900 -13.778700 -19.421800
H -11.299900 -15.356900 -20.675800
H -10.986500 -12.104400 -18.372900
C -10.842900 -14.574300 -20.455600
C -10.683900 -12.596900 -19.089100
C -9.716300 -14.181600 -21.150300
C -9.553300 -12.213400 -19.774900
H -9.391800 -14.673100 -21.903200
H -9.088100 -11.448400 -19.537000
C -9.063300 -12.999800 -20.806100
N -7.935000 -12.532200 -21.497000
H -7.794200 -11.725600 -21.447700
O -7.001300 -14.517900 -22.143600
C -7.001300 -13.292700 -22.143600
H -6.208500 -11.725600 -22.839600
N -6.067700 -12.532200 -22.790200
C -4.939400 -12.999800 -23.481100
H -4.914600 -11.448400 -24.750200
H -4.610900 -14.673100 -22.384000
C -4.449400 -12.213400 -24.512300
C -4.286400 -14.181600 -23.136900
C -3.318800 -12.596900 -25.198200
C -3.159800 -14.574300 -23.831600
H -3.016200 -12.104400 -25.914400
H -2.702800 -15.356900 -23.611400
C -2.665800 -13.778700 -24.865400
C -1.460800 -14.152000 -25.561300
N -0.490700 -14.420900 -26.106700
N -23.547700 -17.919100 -11.853800
C -22.577700 -18.188000 -12.399200
C -21.372600 -18.561300 -13.095100
H -21.335600 -16.983100 -14.349100
H -21.022300 -20.235600 -12.046100
C -20.878600 -17.765700 -14.128900
C -20.719700 -19.743100 -12.762300
C -19.752100 -18.158400 -14.823600
C -19.589000 -20.126600 -13.448100
H -19.427600 -17.666900 -15.576400
H -19.123800 -20.891600 -13.210200
C -19.099000 -19.340200 -14.479400
N -17.970700 -19.807800 -15.170300
H -17.829900 -20.614400 -15.120900
C -17.037100 -19.047300 -15.816900
O -17.037100 -17.822100 -15.816900
H -16.244300 -20.614400 -16.512800
N -16.103500 -19.807800 -16.463500
C -14.975200 -19.340200 -17.154300
H -14.950400 -20.891600 -18.423500
H -14.646600 -17.666900 -16.057300
C -14.485200 -20.126600 -18.185600
C -14.322100 -18.158400 -16.810200
C -13.354500 -19.743100 -18.871400
C -13.195600 -17.765700 -17.504800
H -13.051900 -20.235600 -19.587600
H -12.738600 -16.983100 -17.284700
C -12.701600 -18.561300 -18.538600
C -11.496500 -18.188000 -19.234600
N -10.526500 -17.919100 -19.779900
