30
Fragment
H -17.334500 -14.022900 -8.765400
H -17.334500 -11.693100 -8.765400
C -16.547100 -13.559400 -8.543600
C -16.547100 -12.156600 -8.543600
H -15.449400 -15.190400 -8.243000
H -15.449400 -10.525600 -8.243000
C -15.432100 -14.250900 -8.229600
C -15.432100 -11.465100 -8.229600
C -14.224900 -13.573400 -7.876600
C -14.224900 -12.142600 -7.876600
H -13.073400 -15.189200 -7.560200
H -13.073400 -10.526800 -7.560200
C -13.069100 -14.248600 -7.556600
C -13.069100 -11.467400 -7.556600
C -11.886000 -13.573000 -7.225000
C -11.886000 -12.143000 -7.225000
C -10.702900 -14.248600 -6.893400
C -10.702900 -11.467400 -6.893400
H -10.698600 -15.189200 -6.889800
H -10.698600 -10.526800 -6.889800
C -9.547100 -13.573400 -6.573400
C -9.547100 -12.142600 -6.573400
C -8.339900 -14.250900 -6.220400
C -8.339900 -11.465100 -6.220400
H -8.322600 -15.190400 -6.207000
H -8.322600 -10.525600 -6.207000
C -7.224900 -13.559400 -5.906400
C -7.224900 -12.156600 -5.906400
H -6.437500 -14.022900 -5.684600
H -6.437500 -11.693100 -5.684600
20
Fragment
N -21.864800 -21.446400 -11.932900
N -21.864800 -17.127600 -11.932900
C -21.254500 -20.494800 -11.763300
C -21.254500 -18.079200 -11.763300
C -20.520500 -19.287000 -11.561200
C -19.191400 -19.287000 -11.198000
H -18.922500 -21.332700 -11.120000
H -18.922500 -17.241300 -11.120000
C -18.475000 -20.513900 -11.006200
C -18.475000 -18.060100 -11.006200
C -17.183000 -20.513900 -10.668800
C -17.183000 -18.060100 -10.668800
H -16.735500 -21.332700 -10.555000
H -16.735500 -17.241300 -10.555000
C -16.466600 -19.287000 -10.477000
C -15.137500 -19.287000 -10.113800
C -14.403500 -20.494800 -9.911700
C -14.403500 -18.079200 -9.911700
N -13.793200 -21.446400 -9.742100
N -13.793200 -17.127600 -9.742100
50
Fragment
H -17.334500 -14.022900 -8.765400
H -17.334500 -11.693100 -8.765400
C -16.547100 -13.559400 -8.543600
C -16.547100 -12.156600 -8.543600
H -15.449400 -15.190400 -8.243000
H -15.449400 -10.525600 -8.243000
C -15.432100 -14.250900 -8.229600
C -15.432100 -11.465100 -8.229600
C -14.224900 -13.573400 -7.876600
C -14.224900 -12.142600 -7.876600
H -13.073400 -15.189200 -7.560200
H -13.073400 -10.526800 -7.560200
C -13.069100 -14.248600 -7.556600
C -13.069100 -11.467400 -7.556600
C -11.886000 -13.573000 -7.225000
C -11.886000 -12.143000 -7.225000
C -10.702900 -14.248600 -6.893400
C -10.702900 -11.467400 -6.893400
H -10.698600 -15.189200 -6.889800
H -10.698600 -10.526800 -6.889800
C -9.547100 -13.573400 -6.573400
C -9.547100 -12.142600 -6.573400
C -8.339900 -14.250900 -6.220400
C -8.339900 -11.465100 -6.220400
H -8.322600 -15.190400 -6.207000
H -8.322600 -10.525600 -6.207000
C -7.224900 -13.559400 -5.906400
C -7.224900 -12.156600 -5.906400
H -6.437500 -14.022900 -5.684600
H -6.437500 -11.693100 -5.684600
N -21.864800 -21.446400 -11.932900
N -21.864800 -17.127600 -11.932900
C -21.254500 -20.494800 -11.763300
C -21.254500 -18.079200 -11.763300
C -20.520500 -19.287000 -11.561200
C -19.191400 -19.287000 -11.198000
H -18.922500 -21.332700 -11.120000
H -18.922500 -17.241300 -11.120000
C -18.475000 -20.513900 -11.006200
C -18.475000 -18.060100 -11.006200
C -17.183000 -20.513900 -10.668800
C -17.183000 -18.060100 -10.668800
H -16.735500 -21.332700 -10.555000
H -16.735500 -17.241300 -10.555000
C -16.466600 -19.287000 -10.477000
C -15.137500 -19.287000 -10.113800
C -14.403500 -20.494800 -9.911700
C -14.403500 -18.079200 -9.911700
N -13.793200 -21.446400 -9.742100
N -13.793200 -17.127600 -9.742100
