30
Fragment
H -17.334500 -14.022900 -8.765400
H -17.334500 -11.693100 -8.765400
C -16.547100 -13.559400 -8.543600
C -16.547100 -12.156600 -8.543600
H -15.449400 -15.190400 -8.243000
H -15.449400 -10.525600 -8.243000
C -15.432100 -14.250900 -8.229600
C -15.432100 -11.465100 -8.229600
C -14.224900 -13.573400 -7.876600
C -14.224900 -12.142600 -7.876600
H -13.073400 -15.189200 -7.560200
H -13.073400 -10.526800 -7.560200
C -13.069100 -14.248600 -7.556600
C -13.069100 -11.467400 -7.556600
C -11.886000 -13.573000 -7.225000
C -11.886000 -12.143000 -7.225000
C -10.702900 -14.248600 -6.893400
C -10.702900 -11.467400 -6.893400
H -10.698600 -15.189200 -6.889800
H -10.698600 -10.526800 -6.889800
C -9.547100 -13.573400 -6.573400
C -9.547100 -12.142600 -6.573400
C -8.339900 -14.250900 -6.220400
C -8.339900 -11.465100 -6.220400
H -8.322600 -15.190400 -6.207000
H -8.322600 -10.525600 -6.207000
C -7.224900 -13.559400 -5.906400
C -7.224900 -12.156600 -5.906400
H -6.437500 -14.022900 -5.684600
H -6.437500 -11.693100 -5.684600
30
Fragment
H -11.391500 -20.451900 -8.765400
H -11.391500 -18.122100 -8.765400
C -10.604100 -19.988400 -8.543600
C -10.604100 -18.585600 -8.543600
H -9.506400 -21.619400 -8.243000
H -9.506400 -16.954600 -8.243000
C -9.489100 -20.679900 -8.229600
C -9.489100 -17.894100 -8.229600
C -8.281900 -20.002400 -7.876600
C -8.281900 -18.571600 -7.876600
H -7.130400 -21.618200 -7.560200
H -7.130400 -16.955800 -7.560200
C -7.126100 -20.677600 -7.556600
C -7.126100 -17.896400 -7.556600
C -5.943000 -20.002000 -7.225000
C -5.943000 -18.572000 -7.225000
C -4.759900 -20.677600 -6.893400
C -4.759900 -17.896400 -6.893400
H -4.755600 -21.618200 -6.889800
H -4.755600 -16.955800 -6.889800
C -3.604100 -20.002400 -6.573400
C -3.604100 -18.571600 -6.573400
C -2.396900 -20.679900 -6.220400
C -2.396900 -17.894100 -6.220400
H -2.379600 -21.619400 -6.207000
H -2.379600 -16.954600 -6.207000
C -1.281900 -19.988400 -5.906400
C -1.281900 -18.585600 -5.906400
H -0.494500 -20.451900 -5.684600
H -0.494500 -18.122100 -5.684600
60
Fragment
H -17.334500 -14.022900 -8.765400
H -17.334500 -11.693100 -8.765400
C -16.547100 -13.559400 -8.543600
C -16.547100 -12.156600 -8.543600
H -15.449400 -15.190400 -8.243000
H -15.449400 -10.525600 -8.243000
C -15.432100 -14.250900 -8.229600
C -15.432100 -11.465100 -8.229600
C -14.224900 -13.573400 -7.876600
C -14.224900 -12.142600 -7.876600
H -13.073400 -15.189200 -7.560200
H -13.073400 -10.526800 -7.560200
C -13.069100 -14.248600 -7.556600
C -13.069100 -11.467400 -7.556600
C -11.886000 -13.573000 -7.225000
C -11.886000 -12.143000 -7.225000
C -10.702900 -14.248600 -6.893400
C -10.702900 -11.467400 -6.893400
H -10.698600 -15.189200 -6.889800
H -10.698600 -10.526800 -6.889800
C -9.547100 -13.573400 -6.573400
C -9.547100 -12.142600 -6.573400
C -8.339900 -14.250900 -6.220400
C -8.339900 -11.465100 -6.220400
H -8.322600 -15.190400 -6.207000
H -8.322600 -10.525600 -6.207000
C -7.224900 -13.559400 -5.906400
C -7.224900 -12.156600 -5.906400
H -6.437500 -14.022900 -5.684600
H -6.437500 -11.693100 -5.684600
H -11.391500 -20.451900 -8.765400
H -11.391500 -18.122100 -8.765400
C -10.604100 -19.988400 -8.543600
C -10.604100 -18.585600 -8.543600
H -9.506400 -21.619400 -8.243000
H -9.506400 -16.954600 -8.243000
C -9.489100 -20.679900 -8.229600
C -9.489100 -17.894100 -8.229600
C -8.281900 -20.002400 -7.876600
C -8.281900 -18.571600 -7.876600
H -7.130400 -21.618200 -7.560200
H -7.130400 -16.955800 -7.560200
C -7.126100 -20.677600 -7.556600
C -7.126100 -17.896400 -7.556600
C -5.943000 -20.002000 -7.225000
C -5.943000 -18.572000 -7.225000
C -4.759900 -20.677600 -6.893400
C -4.759900 -17.896400 -6.893400
H -4.755600 -21.618200 -6.889800
H -4.755600 -16.955800 -6.889800
C -3.604100 -20.002400 -6.573400
C -3.604100 -18.571600 -6.573400
C -2.396900 -20.679900 -6.220400
C -2.396900 -17.894100 -6.220400
H -2.379600 -21.619400 -6.207000
H -2.379600 -16.954600 -6.207000
C -1.281900 -19.988400 -5.906400
C -1.281900 -18.585600 -5.906400
H -0.494500 -20.451900 -5.684600
H -0.494500 -18.122100 -5.684600
