30
Fragment
H -17.334500 -14.022900 -8.765400
H -17.334500 -11.693100 -8.765400
C -16.547100 -13.559400 -8.543600
C -16.547100 -12.156600 -8.543600
H -15.449400 -15.190400 -8.243000
H -15.449400 -10.525600 -8.243000
C -15.432100 -14.250900 -8.229600
C -15.432100 -11.465100 -8.229600
C -14.224900 -13.573400 -7.876600
C -14.224900 -12.142600 -7.876600
H -13.073400 -15.189200 -7.560200
H -13.073400 -10.526800 -7.560200
C -13.069100 -14.248600 -7.556600
C -13.069100 -11.467400 -7.556600
C -11.886000 -13.573000 -7.225000
C -11.886000 -12.143000 -7.225000
C -10.702900 -14.248600 -6.893400
C -10.702900 -11.467400 -6.893400
H -10.698600 -15.189200 -6.889800
H -10.698600 -10.526800 -6.889800
C -9.547100 -13.573400 -6.573400
C -9.547100 -12.142600 -6.573400
C -8.339900 -14.250900 -6.220400
C -8.339900 -11.465100 -6.220400
H -8.322600 -15.190400 -6.207000
H -8.322600 -10.525600 -6.207000
C -7.224900 -13.559400 -5.906400
C -7.224900 -12.156600 -5.906400
H -6.437500 -14.022900 -5.684600
H -6.437500 -11.693100 -5.684600
20
Fragment
N -9.978800 -8.588400 -4.707900
N -9.978800 -4.269600 -4.707900
C -9.368500 -7.636800 -4.538300
C -9.368500 -5.221200 -4.538300
C -8.634500 -6.429000 -4.336200
C -7.305400 -6.429000 -3.973000
H -7.036500 -8.474700 -3.895000
H -7.036500 -4.383300 -3.895000
C -6.589000 -7.655900 -3.781200
C -6.589000 -5.202100 -3.781200
C -5.297000 -7.655900 -3.443800
C -5.297000 -5.202100 -3.443800
H -4.849500 -8.474700 -3.330000
H -4.849500 -4.383300 -3.330000
C -4.580600 -6.429000 -3.252000
C -3.251500 -6.429000 -2.888800
C -2.517500 -7.636800 -2.686700
C -2.517500 -5.221200 -2.686700
N -1.907200 -8.588400 -2.517100
N -1.907200 -4.269600 -2.517100
50
Fragment
H -17.334500 -14.022900 -8.765400
H -17.334500 -11.693100 -8.765400
C -16.547100 -13.559400 -8.543600
C -16.547100 -12.156600 -8.543600
H -15.449400 -15.190400 -8.243000
H -15.449400 -10.525600 -8.243000
C -15.432100 -14.250900 -8.229600
C -15.432100 -11.465100 -8.229600
C -14.224900 -13.573400 -7.876600
C -14.224900 -12.142600 -7.876600
H -13.073400 -15.189200 -7.560200
H -13.073400 -10.526800 -7.560200
C -13.069100 -14.248600 -7.556600
C -13.069100 -11.467400 -7.556600
C -11.886000 -13.573000 -7.225000
C -11.886000 -12.143000 -7.225000
C -10.702900 -14.248600 -6.893400
C -10.702900 -11.467400 -6.893400
H -10.698600 -15.189200 -6.889800
H -10.698600 -10.526800 -6.889800
C -9.547100 -13.573400 -6.573400
C -9.547100 -12.142600 -6.573400
C -8.339900 -14.250900 -6.220400
C -8.339900 -11.465100 -6.220400
H -8.322600 -15.190400 -6.207000
H -8.322600 -10.525600 -6.207000
C -7.224900 -13.559400 -5.906400
C -7.224900 -12.156600 -5.906400
H -6.437500 -14.022900 -5.684600
H -6.437500 -11.693100 -5.684600
N -9.978800 -8.588400 -4.707900
N -9.978800 -4.269600 -4.707900
C -9.368500 -7.636800 -4.538300
C -9.368500 -5.221200 -4.538300
C -8.634500 -6.429000 -4.336200
C -7.305400 -6.429000 -3.973000
H -7.036500 -8.474700 -3.895000
H -7.036500 -4.383300 -3.895000
C -6.589000 -7.655900 -3.781200
C -6.589000 -5.202100 -3.781200
C -5.297000 -7.655900 -3.443800
C -5.297000 -5.202100 -3.443800
H -4.849500 -8.474700 -3.330000
H -4.849500 -4.383300 -3.330000
C -4.580600 -6.429000 -3.252000
C -3.251500 -6.429000 -2.888800
C -2.517500 -7.636800 -2.686700
C -2.517500 -5.221200 -2.686700
N -1.907200 -8.588400 -2.517100
N -1.907200 -4.269600 -2.517100
