29
Fragment
H -14.313700 -19.656700 -15.953400
N -13.566100 -18.563600 -17.419600
C -13.486100 -19.553400 -16.516600
H -12.532400 -17.683300 -18.883600
C -12.505500 -18.394000 -18.203100
H -12.410600 -20.998000 -15.758000
C -12.395800 -20.393600 -16.411400
C -11.381300 -19.183400 -18.178200
C -11.315400 -20.225600 -17.262200
H -10.680800 -18.947500 -18.709900
H -10.597500 -21.167500 -19.697500
C -10.132800 -21.087400 -17.148300
H -10.025600 -22.632200 -19.838600
C -9.743300 -21.670100 -19.617200
N -9.630800 -21.479000 -16.007600
N -9.359900 -21.543700 -18.195500
H -8.993900 -21.213800 -21.466500
C -8.663100 -21.235400 -20.579900
N -8.475800 -22.203600 -16.280000
H -8.349600 -20.257900 -20.305300
C -8.344700 -22.234400 -17.591000
H -7.911700 -23.171800 -20.923900
C -7.484200 -22.198900 -20.653700
N -7.358100 -22.900400 -18.255200
H -6.900700 -22.000100 -21.401400
H -6.797400 -23.171800 -17.711500
C -6.658600 -22.266800 -19.377400
H -6.314600 -21.337100 -19.078900
H -5.788100 -22.755500 -19.589000
29
Fragment
H -15.504700 -18.885800 -10.527100
N -14.757200 -19.978900 -11.993300
C -14.677200 -18.989100 -11.090300
H -13.723500 -20.859200 -13.457300
C -13.696500 -20.148500 -12.776800
H -13.601700 -17.544500 -10.331700
C -13.586800 -18.148900 -10.985000
C -12.572400 -19.359100 -12.751800
C -12.506500 -18.316900 -11.835900
H -11.871900 -19.595000 -13.283600
H -11.788600 -17.375000 -14.271200
C -11.323900 -17.455100 -11.721900
H -11.216700 -15.910300 -14.412300
C -10.934400 -16.872400 -14.190900
N -10.821900 -17.063500 -10.581300
N -10.551000 -16.998800 -12.769200
H -10.185000 -17.328700 -16.040200
C -9.854100 -17.307100 -15.153500
N -9.666900 -16.338900 -10.853700
H -9.540700 -18.284600 -14.879000
C -9.535800 -16.308100 -12.164700
H -9.102800 -15.370700 -15.497600
C -8.675300 -16.343600 -15.227300
N -8.549100 -15.642100 -12.828900
H -8.091800 -16.542400 -15.975100
H -7.988400 -15.370700 -12.285200
C -7.849700 -16.275700 -13.951100
H -7.505600 -17.205400 -13.652600
H -6.979200 -15.787000 -14.162700
58
Fragment
H -14.313700 -19.656700 -15.953400
N -13.566100 -18.563600 -17.419600
C -13.486100 -19.553400 -16.516600
H -12.532400 -17.683300 -18.883600
C -12.505500 -18.394000 -18.203100
H -12.410600 -20.998000 -15.758000
C -12.395800 -20.393600 -16.411400
C -11.381300 -19.183400 -18.178200
C -11.315400 -20.225600 -17.262200
H -10.680800 -18.947500 -18.709900
H -10.597500 -21.167500 -19.697500
C -10.132800 -21.087400 -17.148300
H -10.025600 -22.632200 -19.838600
C -9.743300 -21.670100 -19.617200
N -9.630800 -21.479000 -16.007600
N -9.359900 -21.543700 -18.195500
H -8.993900 -21.213800 -21.466500
C -8.663100 -21.235400 -20.579900
N -8.475800 -22.203600 -16.280000
H -8.349600 -20.257900 -20.305300
C -8.344700 -22.234400 -17.591000
H -7.911700 -23.171800 -20.923900
C -7.484200 -22.198900 -20.653700
N -7.358100 -22.900400 -18.255200
H -6.900700 -22.000100 -21.401400
H -6.797400 -23.171800 -17.711500
C -6.658600 -22.266800 -19.377400
H -6.314600 -21.337100 -19.078900
H -5.788100 -22.755500 -19.589000
H -15.504700 -18.885800 -10.527100
N -14.757200 -19.978900 -11.993300
C -14.677200 -18.989100 -11.090300
H -13.723500 -20.859200 -13.457300
C -13.696500 -20.148500 -12.776800
H -13.601700 -17.544500 -10.331700
C -13.586800 -18.148900 -10.985000
C -12.572400 -19.359100 -12.751800
C -12.506500 -18.316900 -11.835900
H -11.871900 -19.595000 -13.283600
H -11.788600 -17.375000 -14.271200
C -11.323900 -17.455100 -11.721900
H -11.216700 -15.910300 -14.412300
C -10.934400 -16.872400 -14.190900
N -10.821900 -17.063500 -10.581300
N -10.551000 -16.998800 -12.769200
H -10.185000 -17.328700 -16.040200
C -9.854100 -17.307100 -15.153500
N -9.666900 -16.338900 -10.853700
H -9.540700 -18.284600 -14.879000
C -9.535800 -16.308100 -12.164700
H -9.102800 -15.370700 -15.497600
C -8.675300 -16.343600 -15.227300
N -8.549100 -15.642100 -12.828900
H -8.091800 -16.542400 -15.975100
H -7.988400 -15.370700 -12.285200
C -7.849700 -16.275700 -13.951100
H -7.505600 -17.205400 -13.652600
H -6.979200 -15.787000 -14.162700
