29
Fragment
H -14.313700 -19.656700 -15.953400
N -13.566100 -18.563600 -17.419600
C -13.486100 -19.553400 -16.516600
H -12.532400 -17.683300 -18.883600
C -12.505500 -18.394000 -18.203100
H -12.410600 -20.998000 -15.758000
C -12.395800 -20.393600 -16.411400
C -11.381300 -19.183400 -18.178200
C -11.315400 -20.225600 -17.262200
H -10.680800 -18.947500 -18.709900
H -10.597500 -21.167500 -19.697500
C -10.132800 -21.087400 -17.148300
H -10.025600 -22.632200 -19.838600
C -9.743300 -21.670100 -19.617200
N -9.630800 -21.479000 -16.007600
N -9.359900 -21.543700 -18.195500
H -8.993900 -21.213800 -21.466500
C -8.663100 -21.235400 -20.579900
N -8.475800 -22.203600 -16.280000
H -8.349600 -20.257900 -20.305300
C -8.344700 -22.234400 -17.591000
H -7.911700 -23.171800 -20.923900
C -7.484200 -22.198900 -20.653700
N -7.358100 -22.900400 -18.255200
H -6.900700 -22.000100 -21.401400
H -6.797400 -23.171800 -17.711500
C -6.658600 -22.266800 -19.377400
H -6.314600 -21.337100 -19.078900
H -5.788100 -22.755500 -19.589000
29
Fragment
H -6.097600 -18.885800 -21.379700
N -5.350100 -19.978900 -22.845900
C -5.270100 -18.989100 -21.942900
H -4.316400 -20.859200 -24.309900
C -4.289400 -20.148500 -23.629400
H -4.194500 -17.544500 -21.184300
C -4.179700 -18.148900 -21.837700
C -3.165300 -19.359100 -23.604500
C -3.099400 -18.316900 -22.688500
H -2.464800 -19.595000 -24.136300
H -2.381500 -17.375000 -25.123900
C -1.916800 -17.455100 -22.574600
H -1.809600 -15.910300 -25.264900
C -1.527300 -16.872400 -25.043500
N -1.414800 -17.063500 -21.434000
N -1.143900 -16.998800 -23.621900
H -0.777800 -17.328700 -26.892800
C -0.447000 -17.307100 -26.006200
N -0.259800 -16.338900 -21.706400
H -0.133500 -18.284600 -25.731600
C -0.128700 -16.308100 -23.017400
H 0.304300 -15.370700 -26.350200
C 0.731800 -16.343600 -26.080000
N 0.858000 -15.642100 -23.681500
H 1.315400 -16.542400 -26.827700
H 1.418700 -15.370700 -23.137800
C 1.557400 -16.275700 -24.803700
H 1.901500 -17.205400 -24.505300
H 2.427900 -15.787000 -25.015300
58
Fragment
H -14.313700 -19.656700 -15.953400
N -13.566100 -18.563600 -17.419600
C -13.486100 -19.553400 -16.516600
H -12.532400 -17.683300 -18.883600
C -12.505500 -18.394000 -18.203100
H -12.410600 -20.998000 -15.758000
C -12.395800 -20.393600 -16.411400
C -11.381300 -19.183400 -18.178200
C -11.315400 -20.225600 -17.262200
H -10.680800 -18.947500 -18.709900
H -10.597500 -21.167500 -19.697500
C -10.132800 -21.087400 -17.148300
H -10.025600 -22.632200 -19.838600
C -9.743300 -21.670100 -19.617200
N -9.630800 -21.479000 -16.007600
N -9.359900 -21.543700 -18.195500
H -8.993900 -21.213800 -21.466500
C -8.663100 -21.235400 -20.579900
N -8.475800 -22.203600 -16.280000
H -8.349600 -20.257900 -20.305300
C -8.344700 -22.234400 -17.591000
H -7.911700 -23.171800 -20.923900
C -7.484200 -22.198900 -20.653700
N -7.358100 -22.900400 -18.255200
H -6.900700 -22.000100 -21.401400
H -6.797400 -23.171800 -17.711500
C -6.658600 -22.266800 -19.377400
H -6.314600 -21.337100 -19.078900
H -5.788100 -22.755500 -19.589000
H -6.097600 -18.885800 -21.379700
N -5.350100 -19.978900 -22.845900
C -5.270100 -18.989100 -21.942900
H -4.316400 -20.859200 -24.309900
C -4.289400 -20.148500 -23.629400
H -4.194500 -17.544500 -21.184300
C -4.179700 -18.148900 -21.837700
C -3.165300 -19.359100 -23.604500
C -3.099400 -18.316900 -22.688500
H -2.464800 -19.595000 -24.136300
H -2.381500 -17.375000 -25.123900
C -1.916800 -17.455100 -22.574600
H -1.809600 -15.910300 -25.264900
C -1.527300 -16.872400 -25.043500
N -1.414800 -17.063500 -21.434000
N -1.143900 -16.998800 -23.621900
H -0.777800 -17.328700 -26.892800
C -0.447000 -17.307100 -26.006200
N -0.259800 -16.338900 -21.706400
H -0.133500 -18.284600 -25.731600
C -0.128700 -16.308100 -23.017400
H 0.304300 -15.370700 -26.350200
C 0.731800 -16.343600 -26.080000
N 0.858000 -15.642100 -23.681500
H 1.315400 -16.542400 -26.827700
H 1.418700 -15.370700 -23.137800
C 1.557400 -16.275700 -24.803700
H 1.901500 -17.205400 -24.505300
H 2.427900 -15.787000 -25.015300
