29
Fragment
H -14.313700 -19.656700 -15.953400
N -13.566100 -18.563600 -17.419600
C -13.486100 -19.553400 -16.516600
H -12.532400 -17.683300 -18.883600
C -12.505500 -18.394000 -18.203100
H -12.410600 -20.998000 -15.758000
C -12.395800 -20.393600 -16.411400
C -11.381300 -19.183400 -18.178200
C -11.315400 -20.225600 -17.262200
H -10.680800 -18.947500 -18.709900
H -10.597500 -21.167500 -19.697500
C -10.132800 -21.087400 -17.148300
H -10.025600 -22.632200 -19.838600
C -9.743300 -21.670100 -19.617200
N -9.630800 -21.479000 -16.007600
N -9.359900 -21.543700 -18.195500
H -8.993900 -21.213800 -21.466500
C -8.663100 -21.235400 -20.579900
N -8.475800 -22.203600 -16.280000
H -8.349600 -20.257900 -20.305300
C -8.344700 -22.234400 -17.591000
H -7.911700 -23.171800 -20.923900
C -7.484200 -22.198900 -20.653700
N -7.358100 -22.900400 -18.255200
H -6.900700 -22.000100 -21.401400
H -6.797400 -23.171800 -17.711500
C -6.658600 -22.266800 -19.377400
H -6.314600 -21.337100 -19.078900
H -5.788100 -22.755500 -19.589000
29
Fragment
H -8.140400 -23.495500 -12.968900
H -7.614000 -24.913900 -13.479000
C -7.270000 -23.984200 -13.180500
H -7.131200 -23.079200 -14.846400
H -7.027900 -24.250900 -11.156500
N -6.570500 -23.350600 -14.302700
C -6.444400 -24.052100 -11.904300
H -6.016900 -23.079200 -11.634000
C -5.583900 -24.016600 -14.966900
H -5.579000 -25.993100 -12.252600
N -5.452800 -24.047400 -16.277900
C -5.265500 -25.015600 -11.978100
H -4.934700 -25.037200 -11.091400
N -4.568700 -24.707300 -14.362400
N -4.297800 -24.772000 -16.550300
C -4.185200 -24.580900 -12.940700
H -3.903000 -23.618800 -12.719300
C -3.795700 -25.163600 -15.409700
H -3.331100 -25.083500 -12.860400
H -3.247800 -27.303500 -13.848000
C -2.613200 -26.025400 -15.295700
C -2.547300 -27.067600 -14.379700
C -1.532800 -25.857400 -16.146600
H -1.518000 -25.253000 -16.799900
C -1.423100 -27.857000 -14.354800
H -1.396200 -28.567700 -13.674300
C -0.442500 -26.697600 -16.041300
N -0.362500 -27.687400 -15.138300
H 0.385100 -26.594300 -16.604500
58
Fragment
H -14.313700 -19.656700 -15.953400
N -13.566100 -18.563600 -17.419600
C -13.486100 -19.553400 -16.516600
H -12.532400 -17.683300 -18.883600
C -12.505500 -18.394000 -18.203100
H -12.410600 -20.998000 -15.758000
C -12.395800 -20.393600 -16.411400
C -11.381300 -19.183400 -18.178200
C -11.315400 -20.225600 -17.262200
H -10.680800 -18.947500 -18.709900
H -10.597500 -21.167500 -19.697500
C -10.132800 -21.087400 -17.148300
H -10.025600 -22.632200 -19.838600
C -9.743300 -21.670100 -19.617200
N -9.630800 -21.479000 -16.007600
N -9.359900 -21.543700 -18.195500
H -8.993900 -21.213800 -21.466500
C -8.663100 -21.235400 -20.579900
N -8.475800 -22.203600 -16.280000
H -8.349600 -20.257900 -20.305300
C -8.344700 -22.234400 -17.591000
H -7.911700 -23.171800 -20.923900
C -7.484200 -22.198900 -20.653700
N -7.358100 -22.900400 -18.255200
H -6.900700 -22.000100 -21.401400
H -6.797400 -23.171800 -17.711500
C -6.658600 -22.266800 -19.377400
H -6.314600 -21.337100 -19.078900
H -5.788100 -22.755500 -19.589000
H -8.140400 -23.495500 -12.968900
H -7.614000 -24.913900 -13.479000
C -7.270000 -23.984200 -13.180500
H -7.131200 -23.079200 -14.846400
H -7.027900 -24.250900 -11.156500
N -6.570500 -23.350600 -14.302700
C -6.444400 -24.052100 -11.904300
H -6.016900 -23.079200 -11.634000
C -5.583900 -24.016600 -14.966900
H -5.579000 -25.993100 -12.252600
N -5.452800 -24.047400 -16.277900
C -5.265500 -25.015600 -11.978100
H -4.934700 -25.037200 -11.091400
N -4.568700 -24.707300 -14.362400
N -4.297800 -24.772000 -16.550300
C -4.185200 -24.580900 -12.940700
H -3.903000 -23.618800 -12.719300
C -3.795700 -25.163600 -15.409700
H -3.331100 -25.083500 -12.860400
H -3.247800 -27.303500 -13.848000
C -2.613200 -26.025400 -15.295700
C -2.547300 -27.067600 -14.379700
C -1.532800 -25.857400 -16.146600
H -1.518000 -25.253000 -16.799900
C -1.423100 -27.857000 -14.354800
H -1.396200 -28.567700 -13.674300
C -0.442500 -26.697600 -16.041300
N -0.362500 -27.687400 -15.138300
H 0.385100 -26.594300 -16.604500
