29
Fragment
H -14.313700 -19.656700 -15.953400
N -13.566100 -18.563600 -17.419600
C -13.486100 -19.553400 -16.516600
H -12.532400 -17.683300 -18.883600
C -12.505500 -18.394000 -18.203100
H -12.410600 -20.998000 -15.758000
C -12.395800 -20.393600 -16.411400
C -11.381300 -19.183400 -18.178200
C -11.315400 -20.225600 -17.262200
H -10.680800 -18.947500 -18.709900
H -10.597500 -21.167500 -19.697500
C -10.132800 -21.087400 -17.148300
H -10.025600 -22.632200 -19.838600
C -9.743300 -21.670100 -19.617200
N -9.630800 -21.479000 -16.007600
N -9.359900 -21.543700 -18.195500
H -8.993900 -21.213800 -21.466500
C -8.663100 -21.235400 -20.579900
N -8.475800 -22.203600 -16.280000
H -8.349600 -20.257900 -20.305300
C -8.344700 -22.234400 -17.591000
H -7.911700 -23.171800 -20.923900
C -7.484200 -22.198900 -20.653700
N -7.358100 -22.900400 -18.255200
H -6.900700 -22.000100 -21.401400
H -6.797400 -23.171800 -17.711500
C -6.658600 -22.266800 -19.377400
H -6.314600 -21.337100 -19.078900
H -5.788100 -22.755500 -19.589000
29
Fragment
H -13.974400 -15.047000 -18.395200
H -13.447900 -13.628600 -18.905300
C -13.103900 -14.558300 -18.606800
H -12.965100 -15.463300 -20.272700
H -12.861800 -14.291600 -16.582800
N -12.404500 -15.191900 -19.729000
C -12.278300 -14.490400 -17.330600
H -11.850800 -15.463300 -17.060300
C -11.417800 -14.525900 -20.393200
H -11.412900 -12.549400 -17.678900
N -11.286700 -14.495100 -21.704200
C -11.099500 -13.526900 -17.404400
H -10.768600 -13.505300 -16.517700
N -10.402600 -13.835200 -19.788700
N -10.131700 -13.770500 -21.976600
C -10.019200 -13.961600 -18.367000
H -9.736900 -14.923700 -18.145600
C -9.629700 -13.378900 -20.836000
H -9.165000 -13.459000 -18.286700
H -9.081700 -11.239000 -19.274300
C -8.447100 -12.517100 -20.722000
C -8.381200 -11.474900 -19.806100
C -7.366800 -12.685100 -21.572900
H -7.351900 -13.289500 -22.226200
C -7.257100 -10.685500 -19.781100
H -7.230100 -9.974800 -19.100600
C -6.276400 -11.844900 -21.467600
N -6.196400 -10.855100 -20.564700
H -5.448900 -11.948200 -22.030900
58
Fragment
H -14.313700 -19.656700 -15.953400
N -13.566100 -18.563600 -17.419600
C -13.486100 -19.553400 -16.516600
H -12.532400 -17.683300 -18.883600
C -12.505500 -18.394000 -18.203100
H -12.410600 -20.998000 -15.758000
C -12.395800 -20.393600 -16.411400
C -11.381300 -19.183400 -18.178200
C -11.315400 -20.225600 -17.262200
H -10.680800 -18.947500 -18.709900
H -10.597500 -21.167500 -19.697500
C -10.132800 -21.087400 -17.148300
H -10.025600 -22.632200 -19.838600
C -9.743300 -21.670100 -19.617200
N -9.630800 -21.479000 -16.007600
N -9.359900 -21.543700 -18.195500
H -8.993900 -21.213800 -21.466500
C -8.663100 -21.235400 -20.579900
N -8.475800 -22.203600 -16.280000
H -8.349600 -20.257900 -20.305300
C -8.344700 -22.234400 -17.591000
H -7.911700 -23.171800 -20.923900
C -7.484200 -22.198900 -20.653700
N -7.358100 -22.900400 -18.255200
H -6.900700 -22.000100 -21.401400
H -6.797400 -23.171800 -17.711500
C -6.658600 -22.266800 -19.377400
H -6.314600 -21.337100 -19.078900
H -5.788100 -22.755500 -19.589000
H -13.974400 -15.047000 -18.395200
H -13.447900 -13.628600 -18.905300
C -13.103900 -14.558300 -18.606800
H -12.965100 -15.463300 -20.272700
H -12.861800 -14.291600 -16.582800
N -12.404500 -15.191900 -19.729000
C -12.278300 -14.490400 -17.330600
H -11.850800 -15.463300 -17.060300
C -11.417800 -14.525900 -20.393200
H -11.412900 -12.549400 -17.678900
N -11.286700 -14.495100 -21.704200
C -11.099500 -13.526900 -17.404400
H -10.768600 -13.505300 -16.517700
N -10.402600 -13.835200 -19.788700
N -10.131700 -13.770500 -21.976600
C -10.019200 -13.961600 -18.367000
H -9.736900 -14.923700 -18.145600
C -9.629700 -13.378900 -20.836000
H -9.165000 -13.459000 -18.286700
H -9.081700 -11.239000 -19.274300
C -8.447100 -12.517100 -20.722000
C -8.381200 -11.474900 -19.806100
C -7.366800 -12.685100 -21.572900
H -7.351900 -13.289500 -22.226200
C -7.257100 -10.685500 -19.781100
H -7.230100 -9.974800 -19.100600
C -6.276400 -11.844900 -21.467600
N -6.196400 -10.855100 -20.564700
H -5.448900 -11.948200 -22.030900
