25
Fragment
H -14.965200 -28.941100 -17.057400
H -14.965200 -27.286400 -17.057400
H -14.616300 -28.970000 -14.943100
H -14.616300 -27.257500 -14.943100
C -14.435000 -28.113800 -16.842900
C -14.212000 -28.113800 -15.335400
N -13.277500 -28.113800 -17.690500
H -13.044700 -30.078500 -17.507200
H -13.044700 -26.149000 -17.507200
N -12.849700 -28.113800 -14.855400
H -12.673000 -30.081700 -15.099200
H -12.673000 -26.145800 -15.099200
C -12.458400 -29.312000 -17.612400
C -12.458400 -26.915500 -17.612400
C -12.085200 -29.314600 -15.174900
C -12.085200 -26.912900 -15.174900
H -11.988900 -29.418200 -18.454300
H -11.988900 -26.809300 -18.454300
N -11.465400 -29.330400 -16.518400
N -11.465400 -26.897100 -16.518400
H -11.384300 -29.418200 -14.511800
H -11.384300 -26.809300 -14.511800
C -10.653100 -28.113800 -16.643500
H -10.207900 -28.113800 -17.505000
H -9.969700 -28.113800 -15.954200
25
Fragment
H -22.550200 -28.941100 -17.057400
H -22.550200 -27.286400 -17.057400
H -22.201300 -28.970000 -14.943100
H -22.201300 -27.257500 -14.943100
C -22.020000 -28.113800 -16.842900
C -21.797000 -28.113800 -15.335400
N -20.862500 -28.113800 -17.690500
H -20.629700 -30.078500 -17.507200
H -20.629700 -26.149000 -17.507200
N -20.434700 -28.113800 -14.855400
H -20.258000 -30.081700 -15.099200
H -20.258000 -26.145800 -15.099200
C -20.043400 -29.312000 -17.612400
C -20.043400 -26.915500 -17.612400
C -19.670200 -29.314600 -15.174900
C -19.670200 -26.912900 -15.174900
H -19.573900 -29.418200 -18.454300
H -19.573900 -26.809300 -18.454300
N -19.050400 -29.330400 -16.518400
N -19.050400 -26.897100 -16.518400
H -18.969300 -29.418200 -14.511800
H -18.969300 -26.809300 -14.511800
C -18.238100 -28.113800 -16.643500
H -17.792900 -28.113800 -17.505000
H -17.554700 -28.113800 -15.954200
50
Fragment
H -14.965200 -28.941100 -17.057400
H -14.965200 -27.286400 -17.057400
H -14.616300 -28.970000 -14.943100
H -14.616300 -27.257500 -14.943100
C -14.435000 -28.113800 -16.842900
C -14.212000 -28.113800 -15.335400
N -13.277500 -28.113800 -17.690500
H -13.044700 -30.078500 -17.507200
H -13.044700 -26.149000 -17.507200
N -12.849700 -28.113800 -14.855400
H -12.673000 -30.081700 -15.099200
H -12.673000 -26.145800 -15.099200
C -12.458400 -29.312000 -17.612400
C -12.458400 -26.915500 -17.612400
C -12.085200 -29.314600 -15.174900
C -12.085200 -26.912900 -15.174900
H -11.988900 -29.418200 -18.454300
H -11.988900 -26.809300 -18.454300
N -11.465400 -29.330400 -16.518400
N -11.465400 -26.897100 -16.518400
H -11.384300 -29.418200 -14.511800
H -11.384300 -26.809300 -14.511800
C -10.653100 -28.113800 -16.643500
H -10.207900 -28.113800 -17.505000
H -9.969700 -28.113800 -15.954200
H -22.550200 -28.941100 -17.057400
H -22.550200 -27.286400 -17.057400
H -22.201300 -28.970000 -14.943100
H -22.201300 -27.257500 -14.943100
C -22.020000 -28.113800 -16.842900
C -21.797000 -28.113800 -15.335400
N -20.862500 -28.113800 -17.690500
H -20.629700 -30.078500 -17.507200
H -20.629700 -26.149000 -17.507200
N -20.434700 -28.113800 -14.855400
H -20.258000 -30.081700 -15.099200
H -20.258000 -26.145800 -15.099200
C -20.043400 -29.312000 -17.612400
C -20.043400 -26.915500 -17.612400
C -19.670200 -29.314600 -15.174900
C -19.670200 -26.912900 -15.174900
H -19.573900 -29.418200 -18.454300
H -19.573900 -26.809300 -18.454300
N -19.050400 -29.330400 -16.518400
N -19.050400 -26.897100 -16.518400
H -18.969300 -29.418200 -14.511800
H -18.969300 -26.809300 -14.511800
C -18.238100 -28.113800 -16.643500
H -17.792900 -28.113800 -17.505000
H -17.554700 -28.113800 -15.954200
