25
Fragment
H -14.965200 -28.941100 -17.057400
H -14.965200 -27.286400 -17.057400
H -14.616300 -28.970000 -14.943100
H -14.616300 -27.257500 -14.943100
C -14.435000 -28.113800 -16.842900
C -14.212000 -28.113800 -15.335400
N -13.277500 -28.113800 -17.690500
H -13.044700 -30.078500 -17.507200
H -13.044700 -26.149000 -17.507200
N -12.849700 -28.113800 -14.855400
H -12.673000 -30.081700 -15.099200
H -12.673000 -26.145800 -15.099200
C -12.458400 -29.312000 -17.612400
C -12.458400 -26.915500 -17.612400
C -12.085200 -29.314600 -15.174900
C -12.085200 -26.912900 -15.174900
H -11.988900 -29.418200 -18.454300
H -11.988900 -26.809300 -18.454300
N -11.465400 -29.330400 -16.518400
N -11.465400 -26.897100 -16.518400
H -11.384300 -29.418200 -14.511800
H -11.384300 -26.809300 -14.511800
C -10.653100 -28.113800 -16.643500
H -10.207900 -28.113800 -17.505000
H -9.969700 -28.113800 -15.954200
14
Fragment
H -14.191500 -25.469500 -20.904600
O -13.665000 -24.909700 -20.359400
H -13.091700 -25.021200 -22.906200
C -12.535700 -24.532400 -21.036800
C -12.400700 -24.650000 -22.406000
H -11.581500 -23.885400 -19.385200
C -11.502700 -23.973500 -20.308100
C -11.252300 -24.221500 -23.039900
H -11.173500 -24.309600 -23.962800
C -10.354300 -23.545000 -20.942000
C -10.219300 -23.662600 -22.311200
H -9.663300 -23.173800 -20.441800
O -9.090000 -23.285300 -22.988600
H -8.563500 -22.725500 -22.443400
39
Fragment
H -14.965200 -28.941100 -17.057400
H -14.965200 -27.286400 -17.057400
H -14.616300 -28.970000 -14.943100
H -14.616300 -27.257500 -14.943100
C -14.435000 -28.113800 -16.842900
C -14.212000 -28.113800 -15.335400
N -13.277500 -28.113800 -17.690500
H -13.044700 -30.078500 -17.507200
H -13.044700 -26.149000 -17.507200
N -12.849700 -28.113800 -14.855400
H -12.673000 -30.081700 -15.099200
H -12.673000 -26.145800 -15.099200
C -12.458400 -29.312000 -17.612400
C -12.458400 -26.915500 -17.612400
C -12.085200 -29.314600 -15.174900
C -12.085200 -26.912900 -15.174900
H -11.988900 -29.418200 -18.454300
H -11.988900 -26.809300 -18.454300
N -11.465400 -29.330400 -16.518400
N -11.465400 -26.897100 -16.518400
H -11.384300 -29.418200 -14.511800
H -11.384300 -26.809300 -14.511800
C -10.653100 -28.113800 -16.643500
H -10.207900 -28.113800 -17.505000
H -9.969700 -28.113800 -15.954200
H -14.191500 -25.469500 -20.904600
O -13.665000 -24.909700 -20.359400
H -13.091700 -25.021200 -22.906200
C -12.535700 -24.532400 -21.036800
C -12.400700 -24.650000 -22.406000
H -11.581500 -23.885400 -19.385200
C -11.502700 -23.973500 -20.308100
C -11.252300 -24.221500 -23.039900
H -11.173500 -24.309600 -23.962800
C -10.354300 -23.545000 -20.942000
C -10.219300 -23.662600 -22.311200
H -9.663300 -23.173800 -20.441800
O -9.090000 -23.285300 -22.988600
H -8.563500 -22.725500 -22.443400
