25
Fragment
H -14.965200 -28.941100 -17.057400
H -14.965200 -27.286400 -17.057400
H -14.616300 -28.970000 -14.943100
H -14.616300 -27.257500 -14.943100
C -14.435000 -28.113800 -16.842900
C -14.212000 -28.113800 -15.335400
N -13.277500 -28.113800 -17.690500
H -13.044700 -30.078500 -17.507200
H -13.044700 -26.149000 -17.507200
N -12.849700 -28.113800 -14.855400
H -12.673000 -30.081700 -15.099200
H -12.673000 -26.145800 -15.099200
C -12.458400 -29.312000 -17.612400
C -12.458400 -26.915500 -17.612400
C -12.085200 -29.314600 -15.174900
C -12.085200 -26.912900 -15.174900
H -11.988900 -29.418200 -18.454300
H -11.988900 -26.809300 -18.454300
N -11.465400 -29.330400 -16.518400
N -11.465400 -26.897100 -16.518400
H -11.384300 -29.418200 -14.511800
H -11.384300 -26.809300 -14.511800
C -10.653100 -28.113800 -16.643500
H -10.207900 -28.113800 -17.505000
H -9.969700 -28.113800 -15.954200
14
Fragment
H -14.191500 -30.758000 -10.067600
O -13.665000 -31.317800 -9.522400
H -13.091700 -31.206300 -12.069200
C -12.535700 -31.695100 -10.199800
C -12.400700 -31.577500 -11.569000
H -11.581500 -32.342100 -8.548200
C -11.502700 -32.254000 -9.471100
C -11.252300 -32.006000 -12.202900
H -11.173500 -31.917900 -13.125800
C -10.354300 -32.682500 -10.105000
C -10.219300 -32.564900 -11.474200
H -9.663300 -33.053700 -9.604800
O -9.090000 -32.942200 -12.151600
H -8.563500 -33.502000 -11.606400
39
Fragment
H -14.965200 -28.941100 -17.057400
H -14.965200 -27.286400 -17.057400
H -14.616300 -28.970000 -14.943100
H -14.616300 -27.257500 -14.943100
C -14.435000 -28.113800 -16.842900
C -14.212000 -28.113800 -15.335400
N -13.277500 -28.113800 -17.690500
H -13.044700 -30.078500 -17.507200
H -13.044700 -26.149000 -17.507200
N -12.849700 -28.113800 -14.855400
H -12.673000 -30.081700 -15.099200
H -12.673000 -26.145800 -15.099200
C -12.458400 -29.312000 -17.612400
C -12.458400 -26.915500 -17.612400
C -12.085200 -29.314600 -15.174900
C -12.085200 -26.912900 -15.174900
H -11.988900 -29.418200 -18.454300
H -11.988900 -26.809300 -18.454300
N -11.465400 -29.330400 -16.518400
N -11.465400 -26.897100 -16.518400
H -11.384300 -29.418200 -14.511800
H -11.384300 -26.809300 -14.511800
C -10.653100 -28.113800 -16.643500
H -10.207900 -28.113800 -17.505000
H -9.969700 -28.113800 -15.954200
H -14.191500 -30.758000 -10.067600
O -13.665000 -31.317800 -9.522400
H -13.091700 -31.206300 -12.069200
C -12.535700 -31.695100 -10.199800
C -12.400700 -31.577500 -11.569000
H -11.581500 -32.342100 -8.548200
C -11.502700 -32.254000 -9.471100
C -11.252300 -32.006000 -12.202900
H -11.173500 -31.917900 -13.125800
C -10.354300 -32.682500 -10.105000
C -10.219300 -32.564900 -11.474200
H -9.663300 -33.053700 -9.604800
O -9.090000 -32.942200 -12.151600
H -8.563500 -33.502000 -11.606400
