25
Fragment
H -14.965200 -28.941100 -17.057400
H -14.965200 -27.286400 -17.057400
H -14.616300 -28.970000 -14.943100
H -14.616300 -27.257500 -14.943100
C -14.435000 -28.113800 -16.842900
C -14.212000 -28.113800 -15.335400
N -13.277500 -28.113800 -17.690500
H -13.044700 -30.078500 -17.507200
H -13.044700 -26.149000 -17.507200
N -12.849700 -28.113800 -14.855400
H -12.673000 -30.081700 -15.099200
H -12.673000 -26.145800 -15.099200
C -12.458400 -29.312000 -17.612400
C -12.458400 -26.915500 -17.612400
C -12.085200 -29.314600 -15.174900
C -12.085200 -26.912900 -15.174900
H -11.988900 -29.418200 -18.454300
H -11.988900 -26.809300 -18.454300
N -11.465400 -29.330400 -16.518400
N -11.465400 -26.897100 -16.518400
H -11.384300 -29.418200 -14.511800
H -11.384300 -26.809300 -14.511800
C -10.653100 -28.113800 -16.643500
H -10.207900 -28.113800 -17.505000
H -9.969700 -28.113800 -15.954200
14
Fragment
H -17.984000 -30.758000 -17.024900
O -17.457500 -31.317800 -17.570100
H -16.884200 -31.206300 -15.023300
C -16.328200 -31.695100 -16.892700
C -16.193200 -31.577500 -15.523500
H -15.374000 -32.342100 -18.544300
C -15.295200 -32.254000 -17.621400
C -15.044800 -32.006000 -14.889600
H -14.966000 -31.917900 -13.966700
C -14.146800 -32.682500 -16.987500
C -14.011800 -32.564900 -15.618300
H -13.455800 -33.053700 -17.487700
O -12.882500 -32.942200 -14.940900
H -12.356000 -33.502000 -15.486100
39
Fragment
H -14.965200 -28.941100 -17.057400
H -14.965200 -27.286400 -17.057400
H -14.616300 -28.970000 -14.943100
H -14.616300 -27.257500 -14.943100
C -14.435000 -28.113800 -16.842900
C -14.212000 -28.113800 -15.335400
N -13.277500 -28.113800 -17.690500
H -13.044700 -30.078500 -17.507200
H -13.044700 -26.149000 -17.507200
N -12.849700 -28.113800 -14.855400
H -12.673000 -30.081700 -15.099200
H -12.673000 -26.145800 -15.099200
C -12.458400 -29.312000 -17.612400
C -12.458400 -26.915500 -17.612400
C -12.085200 -29.314600 -15.174900
C -12.085200 -26.912900 -15.174900
H -11.988900 -29.418200 -18.454300
H -11.988900 -26.809300 -18.454300
N -11.465400 -29.330400 -16.518400
N -11.465400 -26.897100 -16.518400
H -11.384300 -29.418200 -14.511800
H -11.384300 -26.809300 -14.511800
C -10.653100 -28.113800 -16.643500
H -10.207900 -28.113800 -17.505000
H -9.969700 -28.113800 -15.954200
H -17.984000 -30.758000 -17.024900
O -17.457500 -31.317800 -17.570100
H -16.884200 -31.206300 -15.023300
C -16.328200 -31.695100 -16.892700
C -16.193200 -31.577500 -15.523500
H -15.374000 -32.342100 -18.544300
C -15.295200 -32.254000 -17.621400
C -15.044800 -32.006000 -14.889600
H -14.966000 -31.917900 -13.966700
C -14.146800 -32.682500 -16.987500
C -14.011800 -32.564900 -15.618300
H -13.455800 -33.053700 -17.487700
O -12.882500 -32.942200 -14.940900
H -12.356000 -33.502000 -15.486100
