25
Fragment
H -14.965200 -28.941100 -17.057400
H -14.965200 -27.286400 -17.057400
H -14.616300 -28.970000 -14.943100
H -14.616300 -27.257500 -14.943100
C -14.435000 -28.113800 -16.842900
C -14.212000 -28.113800 -15.335400
N -13.277500 -28.113800 -17.690500
H -13.044700 -30.078500 -17.507200
H -13.044700 -26.149000 -17.507200
N -12.849700 -28.113800 -14.855400
H -12.673000 -30.081700 -15.099200
H -12.673000 -26.145800 -15.099200
C -12.458400 -29.312000 -17.612400
C -12.458400 -26.915500 -17.612400
C -12.085200 -29.314600 -15.174900
C -12.085200 -26.912900 -15.174900
H -11.988900 -29.418200 -18.454300
H -11.988900 -26.809300 -18.454300
N -11.465400 -29.330400 -16.518400
N -11.465400 -26.897100 -16.518400
H -11.384300 -29.418200 -14.511800
H -11.384300 -26.809300 -14.511800
C -10.653100 -28.113800 -16.643500
H -10.207900 -28.113800 -17.505000
H -9.969700 -28.113800 -15.954200
14
Fragment
H -14.191500 -30.758000 -20.904600
O -13.665000 -31.317800 -20.359400
H -13.091700 -31.206300 -22.906200
C -12.535700 -31.695100 -21.036800
C -12.400700 -31.577500 -22.406000
H -11.581500 -32.342100 -19.385200
C -11.502700 -32.254000 -20.308100
C -11.252300 -32.006000 -23.039900
H -11.173500 -31.917900 -23.962800
C -10.354300 -32.682500 -20.942000
C -10.219300 -32.564900 -22.311200
H -9.663300 -33.053700 -20.441800
O -9.090000 -32.942200 -22.988600
H -8.563500 -33.502000 -22.443400
39
Fragment
H -14.965200 -28.941100 -17.057400
H -14.965200 -27.286400 -17.057400
H -14.616300 -28.970000 -14.943100
H -14.616300 -27.257500 -14.943100
C -14.435000 -28.113800 -16.842900
C -14.212000 -28.113800 -15.335400
N -13.277500 -28.113800 -17.690500
H -13.044700 -30.078500 -17.507200
H -13.044700 -26.149000 -17.507200
N -12.849700 -28.113800 -14.855400
H -12.673000 -30.081700 -15.099200
H -12.673000 -26.145800 -15.099200
C -12.458400 -29.312000 -17.612400
C -12.458400 -26.915500 -17.612400
C -12.085200 -29.314600 -15.174900
C -12.085200 -26.912900 -15.174900
H -11.988900 -29.418200 -18.454300
H -11.988900 -26.809300 -18.454300
N -11.465400 -29.330400 -16.518400
N -11.465400 -26.897100 -16.518400
H -11.384300 -29.418200 -14.511800
H -11.384300 -26.809300 -14.511800
C -10.653100 -28.113800 -16.643500
H -10.207900 -28.113800 -17.505000
H -9.969700 -28.113800 -15.954200
H -14.191500 -30.758000 -20.904600
O -13.665000 -31.317800 -20.359400
H -13.091700 -31.206300 -22.906200
C -12.535700 -31.695100 -21.036800
C -12.400700 -31.577500 -22.406000
H -11.581500 -32.342100 -19.385200
C -11.502700 -32.254000 -20.308100
C -11.252300 -32.006000 -23.039900
H -11.173500 -31.917900 -23.962800
C -10.354300 -32.682500 -20.942000
C -10.219300 -32.564900 -22.311200
H -9.663300 -33.053700 -20.441800
O -9.090000 -32.942200 -22.988600
H -8.563500 -33.502000 -22.443400
