25
Fragment
H -14.965200 -28.941100 -17.057400
H -14.965200 -27.286400 -17.057400
H -14.616300 -28.970000 -14.943100
H -14.616300 -27.257500 -14.943100
C -14.435000 -28.113800 -16.842900
C -14.212000 -28.113800 -15.335400
N -13.277500 -28.113800 -17.690500
H -13.044700 -30.078500 -17.507200
H -13.044700 -26.149000 -17.507200
N -12.849700 -28.113800 -14.855400
H -12.673000 -30.081700 -15.099200
H -12.673000 -26.145800 -15.099200
C -12.458400 -29.312000 -17.612400
C -12.458400 -26.915500 -17.612400
C -12.085200 -29.314600 -15.174900
C -12.085200 -26.912900 -15.174900
H -11.988900 -29.418200 -18.454300
H -11.988900 -26.809300 -18.454300
N -11.465400 -29.330400 -16.518400
N -11.465400 -26.897100 -16.518400
H -11.384300 -29.418200 -14.511800
H -11.384300 -26.809300 -14.511800
C -10.653100 -28.113800 -16.643500
H -10.207900 -28.113800 -17.505000
H -9.969700 -28.113800 -15.954200
25
Fragment
H -11.172700 -28.941100 -20.872100
H -11.172700 -27.286400 -20.872100
H -10.823800 -28.970000 -22.986400
H -10.823800 -27.257500 -22.986400
C -10.642500 -28.113800 -21.086600
C -10.419500 -28.113800 -22.594100
N -9.485000 -28.113800 -20.239000
H -9.252200 -30.078500 -20.422300
H -9.252200 -26.149000 -20.422300
N -9.057200 -28.113800 -23.074100
H -8.880500 -30.081700 -22.830300
H -8.880500 -26.145800 -22.830300
C -8.665900 -29.312000 -20.317100
C -8.665900 -26.915500 -20.317100
C -8.292700 -29.314600 -22.754600
C -8.292700 -26.912900 -22.754600
H -8.196400 -29.418200 -19.475200
H -8.196400 -26.809300 -19.475200
N -7.672900 -29.330400 -21.411100
N -7.672900 -26.897100 -21.411100
H -7.591800 -29.418200 -23.417700
H -7.591800 -26.809300 -23.417700
C -6.860600 -28.113800 -21.286000
H -6.415400 -28.113800 -20.424500
H -6.177200 -28.113800 -21.975300
50
Fragment
H -14.965200 -28.941100 -17.057400
H -14.965200 -27.286400 -17.057400
H -14.616300 -28.970000 -14.943100
H -14.616300 -27.257500 -14.943100
C -14.435000 -28.113800 -16.842900
C -14.212000 -28.113800 -15.335400
N -13.277500 -28.113800 -17.690500
H -13.044700 -30.078500 -17.507200
H -13.044700 -26.149000 -17.507200
N -12.849700 -28.113800 -14.855400
H -12.673000 -30.081700 -15.099200
H -12.673000 -26.145800 -15.099200
C -12.458400 -29.312000 -17.612400
C -12.458400 -26.915500 -17.612400
C -12.085200 -29.314600 -15.174900
C -12.085200 -26.912900 -15.174900
H -11.988900 -29.418200 -18.454300
H -11.988900 -26.809300 -18.454300
N -11.465400 -29.330400 -16.518400
N -11.465400 -26.897100 -16.518400
H -11.384300 -29.418200 -14.511800
H -11.384300 -26.809300 -14.511800
C -10.653100 -28.113800 -16.643500
H -10.207900 -28.113800 -17.505000
H -9.969700 -28.113800 -15.954200
H -11.172700 -28.941100 -20.872100
H -11.172700 -27.286400 -20.872100
H -10.823800 -28.970000 -22.986400
H -10.823800 -27.257500 -22.986400
C -10.642500 -28.113800 -21.086600
C -10.419500 -28.113800 -22.594100
N -9.485000 -28.113800 -20.239000
H -9.252200 -30.078500 -20.422300
H -9.252200 -26.149000 -20.422300
N -9.057200 -28.113800 -23.074100
H -8.880500 -30.081700 -22.830300
H -8.880500 -26.145800 -22.830300
C -8.665900 -29.312000 -20.317100
C -8.665900 -26.915500 -20.317100
C -8.292700 -29.314600 -22.754600
C -8.292700 -26.912900 -22.754600
H -8.196400 -29.418200 -19.475200
H -8.196400 -26.809300 -19.475200
N -7.672900 -29.330400 -21.411100
N -7.672900 -26.897100 -21.411100
H -7.591800 -29.418200 -23.417700
H -7.591800 -26.809300 -23.417700
C -6.860600 -28.113800 -21.286000
H -6.415400 -28.113800 -20.424500
H -6.177200 -28.113800 -21.975300
