25
Fragment
H -14.965200 -28.941100 -17.057400
H -14.965200 -27.286400 -17.057400
H -14.616300 -28.970000 -14.943100
H -14.616300 -27.257500 -14.943100
C -14.435000 -28.113800 -16.842900
C -14.212000 -28.113800 -15.335400
N -13.277500 -28.113800 -17.690500
H -13.044700 -30.078500 -17.507200
H -13.044700 -26.149000 -17.507200
N -12.849700 -28.113800 -14.855400
H -12.673000 -30.081700 -15.099200
H -12.673000 -26.145800 -15.099200
C -12.458400 -29.312000 -17.612400
C -12.458400 -26.915500 -17.612400
C -12.085200 -29.314600 -15.174900
C -12.085200 -26.912900 -15.174900
H -11.988900 -29.418200 -18.454300
H -11.988900 -26.809300 -18.454300
N -11.465400 -29.330400 -16.518400
N -11.465400 -26.897100 -16.518400
H -11.384300 -29.418200 -14.511800
H -11.384300 -26.809300 -14.511800
C -10.653100 -28.113800 -16.643500
H -10.207900 -28.113800 -17.505000
H -9.969700 -28.113800 -15.954200
25
Fragment
H -7.380200 -28.941100 -17.057400
H -7.380200 -27.286400 -17.057400
H -7.031300 -28.970000 -14.943100
H -7.031300 -27.257500 -14.943100
C -6.850000 -28.113800 -16.842900
C -6.627000 -28.113800 -15.335400
N -5.692500 -28.113800 -17.690500
H -5.459700 -30.078500 -17.507200
H -5.459700 -26.149000 -17.507200
N -5.264700 -28.113800 -14.855400
H -5.088000 -30.081700 -15.099200
H -5.088000 -26.145800 -15.099200
C -4.873400 -29.312000 -17.612400
C -4.873400 -26.915500 -17.612400
C -4.500200 -29.314600 -15.174900
C -4.500200 -26.912900 -15.174900
H -4.403900 -29.418200 -18.454300
H -4.403900 -26.809300 -18.454300
N -3.880400 -29.330400 -16.518400
N -3.880400 -26.897100 -16.518400
H -3.799300 -29.418200 -14.511800
H -3.799300 -26.809300 -14.511800
C -3.068100 -28.113800 -16.643500
H -2.622900 -28.113800 -17.505000
H -2.384700 -28.113800 -15.954200
50
Fragment
H -14.965200 -28.941100 -17.057400
H -14.965200 -27.286400 -17.057400
H -14.616300 -28.970000 -14.943100
H -14.616300 -27.257500 -14.943100
C -14.435000 -28.113800 -16.842900
C -14.212000 -28.113800 -15.335400
N -13.277500 -28.113800 -17.690500
H -13.044700 -30.078500 -17.507200
H -13.044700 -26.149000 -17.507200
N -12.849700 -28.113800 -14.855400
H -12.673000 -30.081700 -15.099200
H -12.673000 -26.145800 -15.099200
C -12.458400 -29.312000 -17.612400
C -12.458400 -26.915500 -17.612400
C -12.085200 -29.314600 -15.174900
C -12.085200 -26.912900 -15.174900
H -11.988900 -29.418200 -18.454300
H -11.988900 -26.809300 -18.454300
N -11.465400 -29.330400 -16.518400
N -11.465400 -26.897100 -16.518400
H -11.384300 -29.418200 -14.511800
H -11.384300 -26.809300 -14.511800
C -10.653100 -28.113800 -16.643500
H -10.207900 -28.113800 -17.505000
H -9.969700 -28.113800 -15.954200
H -7.380200 -28.941100 -17.057400
H -7.380200 -27.286400 -17.057400
H -7.031300 -28.970000 -14.943100
H -7.031300 -27.257500 -14.943100
C -6.850000 -28.113800 -16.842900
C -6.627000 -28.113800 -15.335400
N -5.692500 -28.113800 -17.690500
H -5.459700 -30.078500 -17.507200
H -5.459700 -26.149000 -17.507200
N -5.264700 -28.113800 -14.855400
H -5.088000 -30.081700 -15.099200
H -5.088000 -26.145800 -15.099200
C -4.873400 -29.312000 -17.612400
C -4.873400 -26.915500 -17.612400
C -4.500200 -29.314600 -15.174900
C -4.500200 -26.912900 -15.174900
H -4.403900 -29.418200 -18.454300
H -4.403900 -26.809300 -18.454300
N -3.880400 -29.330400 -16.518400
N -3.880400 -26.897100 -16.518400
H -3.799300 -29.418200 -14.511800
H -3.799300 -26.809300 -14.511800
C -3.068100 -28.113800 -16.643500
H -2.622900 -28.113800 -17.505000
H -2.384700 -28.113800 -15.954200
