27
Fragment
H -17.011800 -11.630600 -18.825400
H -16.801500 -10.631800 -20.245300
C -16.422200 -11.323100 -19.720900
H -16.180600 -12.170200 -20.193000
H -15.433900 -13.258000 -18.328800
O -15.219200 -10.733500 -19.213900
C -14.692100 -12.760100 -17.981200
C -14.457200 -11.458300 -18.324500
H -13.987500 -14.318100 -16.830400
C -13.829900 -13.407600 -17.106600
H -13.752100 -12.281700 -14.147300
C -13.376400 -10.779700 -17.790400
H -13.177900 -12.227400 -11.856200
H -13.173700 -9.854100 -18.050000
N -12.897700 -12.544000 -13.777100
N -12.814500 -12.769000 -12.400700
C -12.756700 -12.735000 -16.580400
C -12.532600 -11.423200 -16.916700
C -11.948000 -13.292400 -14.358100
N -11.833300 -13.393200 -15.691000
H -11.777700 -10.942500 -16.543000
C -11.742400 -13.546900 -12.105400
O -11.398400 -13.846100 -10.930200
H -11.390900 -14.083800 -16.020300
C -11.164700 -13.880900 -13.362400
C -10.041000 -14.687400 -13.605500
N -9.142600 -15.351000 -13.856400
27
Fragment
H -8.005500 -15.752000 -10.113900
H -7.795100 -14.753200 -11.533900
C -7.415900 -15.444600 -11.009500
H -7.174300 -16.291600 -11.481600
H -6.427500 -17.379400 -9.617400
O -6.212800 -14.854900 -10.502500
C -5.685700 -16.881500 -9.269800
C -5.450900 -15.579700 -9.613000
H -4.981100 -18.439500 -8.119000
C -4.823600 -17.529000 -8.395200
H -4.745800 -16.403100 -5.435900
C -4.370000 -14.901100 -9.079000
H -4.171500 -16.348800 -3.144800
H -4.167400 -13.975500 -9.338600
N -3.891300 -16.665500 -5.065700
N -3.808100 -16.890400 -3.689300
C -3.750300 -16.856500 -7.869000
C -3.526200 -15.544600 -8.205300
C -2.941600 -17.413800 -5.646700
N -2.826900 -17.514600 -6.979600
H -2.771400 -15.063900 -7.831600
C -2.736000 -17.668300 -3.394000
O -2.392000 -17.967500 -2.218800
H -2.384500 -18.205200 -7.308900
C -2.158400 -18.002300 -4.651000
C -1.034600 -18.808800 -4.894100
N -0.136200 -19.472400 -5.145000
54
Fragment
H -17.011800 -11.630600 -18.825400
H -16.801500 -10.631800 -20.245300
C -16.422200 -11.323100 -19.720900
H -16.180600 -12.170200 -20.193000
H -15.433900 -13.258000 -18.328800
O -15.219200 -10.733500 -19.213900
C -14.692100 -12.760100 -17.981200
C -14.457200 -11.458300 -18.324500
H -13.987500 -14.318100 -16.830400
C -13.829900 -13.407600 -17.106600
H -13.752100 -12.281700 -14.147300
C -13.376400 -10.779700 -17.790400
H -13.177900 -12.227400 -11.856200
H -13.173700 -9.854100 -18.050000
N -12.897700 -12.544000 -13.777100
N -12.814500 -12.769000 -12.400700
C -12.756700 -12.735000 -16.580400
C -12.532600 -11.423200 -16.916700
C -11.948000 -13.292400 -14.358100
N -11.833300 -13.393200 -15.691000
H -11.777700 -10.942500 -16.543000
C -11.742400 -13.546900 -12.105400
O -11.398400 -13.846100 -10.930200
H -11.390900 -14.083800 -16.020300
C -11.164700 -13.880900 -13.362400
C -10.041000 -14.687400 -13.605500
N -9.142600 -15.351000 -13.856400
H -8.005500 -15.752000 -10.113900
H -7.795100 -14.753200 -11.533900
C -7.415900 -15.444600 -11.009500
H -7.174300 -16.291600 -11.481600
H -6.427500 -17.379400 -9.617400
O -6.212800 -14.854900 -10.502500
C -5.685700 -16.881500 -9.269800
C -5.450900 -15.579700 -9.613000
H -4.981100 -18.439500 -8.119000
C -4.823600 -17.529000 -8.395200
H -4.745800 -16.403100 -5.435900
C -4.370000 -14.901100 -9.079000
H -4.171500 -16.348800 -3.144800
H -4.167400 -13.975500 -9.338600
N -3.891300 -16.665500 -5.065700
N -3.808100 -16.890400 -3.689300
C -3.750300 -16.856500 -7.869000
C -3.526200 -15.544600 -8.205300
C -2.941600 -17.413800 -5.646700
N -2.826900 -17.514600 -6.979600
H -2.771400 -15.063900 -7.831600
C -2.736000 -17.668300 -3.394000
O -2.392000 -17.967500 -2.218800
H -2.384500 -18.205200 -7.308900
C -2.158400 -18.002300 -4.651000
C -1.034600 -18.808800 -4.894100
N -0.136200 -19.472400 -5.145000
