27
Fragment
H -17.011800 -11.630600 -18.825400
H -16.801500 -10.631800 -20.245300
C -16.422200 -11.323100 -19.720900
H -16.180600 -12.170200 -20.193000
H -15.433900 -13.258000 -18.328800
O -15.219200 -10.733500 -19.213900
C -14.692100 -12.760100 -17.981200
C -14.457200 -11.458300 -18.324500
H -13.987500 -14.318100 -16.830400
C -13.829900 -13.407600 -17.106600
H -13.752100 -12.281700 -14.147300
C -13.376400 -10.779700 -17.790400
H -13.177900 -12.227400 -11.856200
H -13.173700 -9.854100 -18.050000
N -12.897700 -12.544000 -13.777100
N -12.814500 -12.769000 -12.400700
C -12.756700 -12.735000 -16.580400
C -12.532600 -11.423200 -16.916700
C -11.948000 -13.292400 -14.358100
N -11.833300 -13.393200 -15.691000
H -11.777700 -10.942500 -16.543000
C -11.742400 -13.546900 -12.105400
O -11.398400 -13.846100 -10.930200
H -11.390900 -14.083800 -16.020300
C -11.164700 -13.880900 -13.362400
C -10.041000 -14.687400 -13.605500
N -9.142600 -15.351000 -13.856400
27
Fragment
N -10.746900 -15.838800 -17.099600
O -10.542700 -19.208000 -19.115400
C -10.261500 -16.863300 -17.130100
C -9.862300 -19.175400 -18.068300
C -9.660700 -18.140200 -17.108300
N -9.120900 -20.254200 -17.628400
C -8.730200 -18.607500 -16.174500
H -8.709100 -20.819000 -18.241700
H -8.557600 -17.133900 -14.922600
H -8.510800 -18.328300 -12.474700
N -8.333800 -19.845200 -16.529900
N -8.282900 -18.007300 -15.057700
H -8.122900 -20.587100 -15.941900
C -7.624800 -18.651200 -12.811000
C -7.331000 -18.585200 -14.156000
H -6.955500 -19.332200 -10.941500
C -6.730400 -19.201900 -11.928500
C -6.114500 -19.051200 -14.591600
H -5.834300 -18.927900 -15.558600
C -5.522600 -19.699700 -12.368500
C -5.211000 -19.623700 -13.706500
O -4.719900 -20.257600 -11.414600
H -4.353700 -19.992300 -14.025400
H -3.613100 -21.505500 -12.413800
C -3.458500 -20.769200 -11.807400
H -2.933900 -21.121000 -10.871800
H -2.838100 -20.104000 -12.100100
54
Fragment
H -17.011800 -11.630600 -18.825400
H -16.801500 -10.631800 -20.245300
C -16.422200 -11.323100 -19.720900
H -16.180600 -12.170200 -20.193000
H -15.433900 -13.258000 -18.328800
O -15.219200 -10.733500 -19.213900
C -14.692100 -12.760100 -17.981200
C -14.457200 -11.458300 -18.324500
H -13.987500 -14.318100 -16.830400
C -13.829900 -13.407600 -17.106600
H -13.752100 -12.281700 -14.147300
C -13.376400 -10.779700 -17.790400
H -13.177900 -12.227400 -11.856200
H -13.173700 -9.854100 -18.050000
N -12.897700 -12.544000 -13.777100
N -12.814500 -12.769000 -12.400700
C -12.756700 -12.735000 -16.580400
C -12.532600 -11.423200 -16.916700
C -11.948000 -13.292400 -14.358100
N -11.833300 -13.393200 -15.691000
H -11.777700 -10.942500 -16.543000
C -11.742400 -13.546900 -12.105400
O -11.398400 -13.846100 -10.930200
H -11.390900 -14.083800 -16.020300
C -11.164700 -13.880900 -13.362400
C -10.041000 -14.687400 -13.605500
N -9.142600 -15.351000 -13.856400
N -10.746900 -15.838800 -17.099600
O -10.542700 -19.208000 -19.115400
C -10.261500 -16.863300 -17.130100
C -9.862300 -19.175400 -18.068300
C -9.660700 -18.140200 -17.108300
N -9.120900 -20.254200 -17.628400
C -8.730200 -18.607500 -16.174500
H -8.709100 -20.819000 -18.241700
H -8.557600 -17.133900 -14.922600
H -8.510800 -18.328300 -12.474700
N -8.333800 -19.845200 -16.529900
N -8.282900 -18.007300 -15.057700
H -8.122900 -20.587100 -15.941900
C -7.624800 -18.651200 -12.811000
C -7.331000 -18.585200 -14.156000
H -6.955500 -19.332200 -10.941500
C -6.730400 -19.201900 -11.928500
C -6.114500 -19.051200 -14.591600
H -5.834300 -18.927900 -15.558600
C -5.522600 -19.699700 -12.368500
C -5.211000 -19.623700 -13.706500
O -4.719900 -20.257600 -11.414600
H -4.353700 -19.992300 -14.025400
H -3.613100 -21.505500 -12.413800
C -3.458500 -20.769200 -11.807400
H -2.933900 -21.121000 -10.871800
H -2.838100 -20.104000 -12.100100
