27
Fragment
H -17.011800 -11.630600 -18.825400
H -16.801500 -10.631800 -20.245300
C -16.422200 -11.323100 -19.720900
H -16.180600 -12.170200 -20.193000
H -15.433900 -13.258000 -18.328800
O -15.219200 -10.733500 -19.213900
C -14.692100 -12.760100 -17.981200
C -14.457200 -11.458300 -18.324500
H -13.987500 -14.318100 -16.830400
C -13.829900 -13.407600 -17.106600
H -13.752100 -12.281700 -14.147300
C -13.376400 -10.779700 -17.790400
H -13.177900 -12.227400 -11.856200
H -13.173700 -9.854100 -18.050000
N -12.897700 -12.544000 -13.777100
N -12.814500 -12.769000 -12.400700
C -12.756700 -12.735000 -16.580400
C -12.532600 -11.423200 -16.916700
C -11.948000 -13.292400 -14.358100
N -11.833300 -13.393200 -15.691000
H -11.777700 -10.942500 -16.543000
C -11.742400 -13.546900 -12.105400
O -11.398400 -13.846100 -10.930200
H -11.390900 -14.083800 -16.020300
C -11.164700 -13.880900 -13.362400
C -10.041000 -14.687400 -13.605500
N -9.142600 -15.351000 -13.856400
27
Fragment
H -26.018200 -7.509100 -27.536800
H -25.807800 -6.510400 -28.956700
C -25.428600 -7.201700 -28.432300
H -25.187000 -8.048800 -28.904500
H -24.440300 -9.136600 -27.040200
O -24.225600 -6.612100 -27.925300
C -23.698400 -8.638700 -26.692600
C -23.463600 -7.336800 -27.035900
H -22.993800 -10.196600 -25.541900
C -22.836300 -9.286200 -25.818000
H -22.758500 -8.160300 -22.858700
C -22.382800 -6.658300 -26.501900
H -22.184300 -8.106000 -20.567600
H -22.180100 -5.732600 -26.761500
N -21.904100 -8.422600 -22.488500
N -21.820900 -8.647600 -21.112100
C -21.763100 -8.613600 -25.291800
C -21.539000 -7.301700 -25.628100
C -20.954300 -9.170900 -23.069600
N -20.839700 -9.271700 -24.402400
H -20.784100 -6.821000 -25.254400
C -20.748800 -9.425400 -20.816800
O -20.404800 -9.724700 -19.641600
H -20.397300 -9.962400 -24.731700
C -20.171100 -9.759500 -22.073800
C -19.047400 -10.566000 -22.316900
N -18.149000 -11.229500 -22.567800
54
Fragment
H -17.011800 -11.630600 -18.825400
H -16.801500 -10.631800 -20.245300
C -16.422200 -11.323100 -19.720900
H -16.180600 -12.170200 -20.193000
H -15.433900 -13.258000 -18.328800
O -15.219200 -10.733500 -19.213900
C -14.692100 -12.760100 -17.981200
C -14.457200 -11.458300 -18.324500
H -13.987500 -14.318100 -16.830400
C -13.829900 -13.407600 -17.106600
H -13.752100 -12.281700 -14.147300
C -13.376400 -10.779700 -17.790400
H -13.177900 -12.227400 -11.856200
H -13.173700 -9.854100 -18.050000
N -12.897700 -12.544000 -13.777100
N -12.814500 -12.769000 -12.400700
C -12.756700 -12.735000 -16.580400
C -12.532600 -11.423200 -16.916700
C -11.948000 -13.292400 -14.358100
N -11.833300 -13.393200 -15.691000
H -11.777700 -10.942500 -16.543000
C -11.742400 -13.546900 -12.105400
O -11.398400 -13.846100 -10.930200
H -11.390900 -14.083800 -16.020300
C -11.164700 -13.880900 -13.362400
C -10.041000 -14.687400 -13.605500
N -9.142600 -15.351000 -13.856400
H -26.018200 -7.509100 -27.536800
H -25.807800 -6.510400 -28.956700
C -25.428600 -7.201700 -28.432300
H -25.187000 -8.048800 -28.904500
H -24.440300 -9.136600 -27.040200
O -24.225600 -6.612100 -27.925300
C -23.698400 -8.638700 -26.692600
C -23.463600 -7.336800 -27.035900
H -22.993800 -10.196600 -25.541900
C -22.836300 -9.286200 -25.818000
H -22.758500 -8.160300 -22.858700
C -22.382800 -6.658300 -26.501900
H -22.184300 -8.106000 -20.567600
H -22.180100 -5.732600 -26.761500
N -21.904100 -8.422600 -22.488500
N -21.820900 -8.647600 -21.112100
C -21.763100 -8.613600 -25.291800
C -21.539000 -7.301700 -25.628100
C -20.954300 -9.170900 -23.069600
N -20.839700 -9.271700 -24.402400
H -20.784100 -6.821000 -25.254400
C -20.748800 -9.425400 -20.816800
O -20.404800 -9.724700 -19.641600
H -20.397300 -9.962400 -24.731700
C -20.171100 -9.759500 -22.073800
C -19.047400 -10.566000 -22.316900
N -18.149000 -11.229500 -22.567800
