27
Fragment
H -17.011800 -11.630600 -18.825400
H -16.801500 -10.631800 -20.245300
C -16.422200 -11.323100 -19.720900
H -16.180600 -12.170200 -20.193000
H -15.433900 -13.258000 -18.328800
O -15.219200 -10.733500 -19.213900
C -14.692100 -12.760100 -17.981200
C -14.457200 -11.458300 -18.324500
H -13.987500 -14.318100 -16.830400
C -13.829900 -13.407600 -17.106600
H -13.752100 -12.281700 -14.147300
C -13.376400 -10.779700 -17.790400
H -13.177900 -12.227400 -11.856200
H -13.173700 -9.854100 -18.050000
N -12.897700 -12.544000 -13.777100
N -12.814500 -12.769000 -12.400700
C -12.756700 -12.735000 -16.580400
C -12.532600 -11.423200 -16.916700
C -11.948000 -13.292400 -14.358100
N -11.833300 -13.393200 -15.691000
H -11.777700 -10.942500 -16.543000
C -11.742400 -13.546900 -12.105400
O -11.398400 -13.846100 -10.930200
H -11.390900 -14.083800 -16.020300
C -11.164700 -13.880900 -13.362400
C -10.041000 -14.687400 -13.605500
N -9.142600 -15.351000 -13.856400
27
Fragment
H -25.515900 -11.846600 -22.745500
H -25.420000 -10.829500 -23.973800
C -24.895500 -11.181300 -23.038200
H -24.740900 -10.445000 -22.431900
H -24.000200 -11.958200 -20.820300
O -23.634000 -11.692900 -23.431100
C -23.143000 -12.326800 -21.139100
C -22.831400 -12.250800 -22.477200
H -22.519700 -13.022600 -19.287100
C -22.239500 -12.899400 -20.254000
C -21.623600 -12.748600 -22.917100
H -21.398500 -12.618300 -23.904100
C -21.023000 -13.365300 -20.689600
C -20.729100 -13.299300 -22.034600
H -20.231000 -11.363400 -18.903800
N -20.071100 -13.943300 -19.788000
N -20.020200 -12.105400 -18.315700
H -19.843100 -13.622200 -22.370900
H -19.796400 -14.816600 -19.923000
H -19.644900 -11.131600 -16.603900
C -19.623800 -13.343100 -18.671200
N -19.233100 -11.696300 -17.217200
C -18.693300 -13.810300 -17.737300
C -18.491600 -12.775100 -16.777300
C -18.092500 -15.087200 -17.715500
O -17.811300 -12.742500 -15.730200
N -17.607100 -16.111800 -17.746000
54
Fragment
H -17.011800 -11.630600 -18.825400
H -16.801500 -10.631800 -20.245300
C -16.422200 -11.323100 -19.720900
H -16.180600 -12.170200 -20.193000
H -15.433900 -13.258000 -18.328800
O -15.219200 -10.733500 -19.213900
C -14.692100 -12.760100 -17.981200
C -14.457200 -11.458300 -18.324500
H -13.987500 -14.318100 -16.830400
C -13.829900 -13.407600 -17.106600
H -13.752100 -12.281700 -14.147300
C -13.376400 -10.779700 -17.790400
H -13.177900 -12.227400 -11.856200
H -13.173700 -9.854100 -18.050000
N -12.897700 -12.544000 -13.777100
N -12.814500 -12.769000 -12.400700
C -12.756700 -12.735000 -16.580400
C -12.532600 -11.423200 -16.916700
C -11.948000 -13.292400 -14.358100
N -11.833300 -13.393200 -15.691000
H -11.777700 -10.942500 -16.543000
C -11.742400 -13.546900 -12.105400
O -11.398400 -13.846100 -10.930200
H -11.390900 -14.083800 -16.020300
C -11.164700 -13.880900 -13.362400
C -10.041000 -14.687400 -13.605500
N -9.142600 -15.351000 -13.856400
H -25.515900 -11.846600 -22.745500
H -25.420000 -10.829500 -23.973800
C -24.895500 -11.181300 -23.038200
H -24.740900 -10.445000 -22.431900
H -24.000200 -11.958200 -20.820300
O -23.634000 -11.692900 -23.431100
C -23.143000 -12.326800 -21.139100
C -22.831400 -12.250800 -22.477200
H -22.519700 -13.022600 -19.287100
C -22.239500 -12.899400 -20.254000
C -21.623600 -12.748600 -22.917100
H -21.398500 -12.618300 -23.904100
C -21.023000 -13.365300 -20.689600
C -20.729100 -13.299300 -22.034600
H -20.231000 -11.363400 -18.903800
N -20.071100 -13.943300 -19.788000
N -20.020200 -12.105400 -18.315700
H -19.843100 -13.622200 -22.370900
H -19.796400 -14.816600 -19.923000
H -19.644900 -11.131600 -16.603900
C -19.623800 -13.343100 -18.671200
N -19.233100 -11.696300 -17.217200
C -18.693300 -13.810300 -17.737300
C -18.491600 -12.775100 -16.777300
C -18.092500 -15.087200 -17.715500
O -17.811300 -12.742500 -15.730200
N -17.607100 -16.111800 -17.746000
