27
Fragment
H -17.011800 -11.630600 -18.825400
H -16.801500 -10.631800 -20.245300
C -16.422200 -11.323100 -19.720900
H -16.180600 -12.170200 -20.193000
H -15.433900 -13.258000 -18.328800
O -15.219200 -10.733500 -19.213900
C -14.692100 -12.760100 -17.981200
C -14.457200 -11.458300 -18.324500
H -13.987500 -14.318100 -16.830400
C -13.829900 -13.407600 -17.106600
H -13.752100 -12.281700 -14.147300
C -13.376400 -10.779700 -17.790400
H -13.177900 -12.227400 -11.856200
H -13.173700 -9.854100 -18.050000
N -12.897700 -12.544000 -13.777100
N -12.814500 -12.769000 -12.400700
C -12.756700 -12.735000 -16.580400
C -12.532600 -11.423200 -16.916700
C -11.948000 -13.292400 -14.358100
N -11.833300 -13.393200 -15.691000
H -11.777700 -10.942500 -16.543000
C -11.742400 -13.546900 -12.105400
O -11.398400 -13.846100 -10.930200
H -11.390900 -14.083800 -16.020300
C -11.164700 -13.880900 -13.362400
C -10.041000 -14.687400 -13.605500
N -9.142600 -15.351000 -13.856400
27
Fragment
H -16.509500 -15.968000 -14.034100
H -16.413700 -14.950900 -15.262400
C -15.889100 -15.302800 -14.326800
H -15.734500 -14.566400 -13.720500
H -14.993900 -16.079600 -12.108900
O -14.627600 -15.814400 -14.719700
C -14.136600 -16.448300 -12.427700
C -13.825000 -16.372200 -13.765800
H -13.513300 -17.144100 -10.575700
C -13.233100 -17.020800 -11.542600
C -12.617200 -16.870100 -14.205700
H -12.392100 -16.739700 -15.192700
C -12.016600 -17.486800 -11.978200
C -11.722800 -17.420800 -13.323200
H -11.224700 -15.484800 -10.192300
N -11.064700 -18.064700 -11.076600
N -11.013800 -16.226800 -9.604300
H -10.836700 -17.743600 -13.659500
H -10.790000 -18.938100 -11.211600
H -10.638500 -15.253000 -7.892500
C -10.617400 -17.464500 -9.959800
N -10.226700 -15.817700 -8.505800
C -9.686900 -17.931700 -9.025900
C -9.485200 -16.896500 -8.065900
C -9.086100 -19.208700 -9.004100
O -8.804900 -16.864000 -7.018800
N -8.600700 -20.233200 -9.034600
54
Fragment
H -17.011800 -11.630600 -18.825400
H -16.801500 -10.631800 -20.245300
C -16.422200 -11.323100 -19.720900
H -16.180600 -12.170200 -20.193000
H -15.433900 -13.258000 -18.328800
O -15.219200 -10.733500 -19.213900
C -14.692100 -12.760100 -17.981200
C -14.457200 -11.458300 -18.324500
H -13.987500 -14.318100 -16.830400
C -13.829900 -13.407600 -17.106600
H -13.752100 -12.281700 -14.147300
C -13.376400 -10.779700 -17.790400
H -13.177900 -12.227400 -11.856200
H -13.173700 -9.854100 -18.050000
N -12.897700 -12.544000 -13.777100
N -12.814500 -12.769000 -12.400700
C -12.756700 -12.735000 -16.580400
C -12.532600 -11.423200 -16.916700
C -11.948000 -13.292400 -14.358100
N -11.833300 -13.393200 -15.691000
H -11.777700 -10.942500 -16.543000
C -11.742400 -13.546900 -12.105400
O -11.398400 -13.846100 -10.930200
H -11.390900 -14.083800 -16.020300
C -11.164700 -13.880900 -13.362400
C -10.041000 -14.687400 -13.605500
N -9.142600 -15.351000 -13.856400
H -16.509500 -15.968000 -14.034100
H -16.413700 -14.950900 -15.262400
C -15.889100 -15.302800 -14.326800
H -15.734500 -14.566400 -13.720500
H -14.993900 -16.079600 -12.108900
O -14.627600 -15.814400 -14.719700
C -14.136600 -16.448300 -12.427700
C -13.825000 -16.372200 -13.765800
H -13.513300 -17.144100 -10.575700
C -13.233100 -17.020800 -11.542600
C -12.617200 -16.870100 -14.205700
H -12.392100 -16.739700 -15.192700
C -12.016600 -17.486800 -11.978200
C -11.722800 -17.420800 -13.323200
H -11.224700 -15.484800 -10.192300
N -11.064700 -18.064700 -11.076600
N -11.013800 -16.226800 -9.604300
H -10.836700 -17.743600 -13.659500
H -10.790000 -18.938100 -11.211600
H -10.638500 -15.253000 -7.892500
C -10.617400 -17.464500 -9.959800
N -10.226700 -15.817700 -8.505800
C -9.686900 -17.931700 -9.025900
C -9.485200 -16.896500 -8.065900
C -9.086100 -19.208700 -9.004100
O -8.804900 -16.864000 -7.018800
N -8.600700 -20.233200 -9.034600
