19
Fragment
H -8.261600 -7.934000 -21.356600
H -8.211800 -8.652600 -16.784200
H -7.949900 -8.222400 -19.134300
N -7.808400 -8.530800 -21.351200
N -7.789800 -9.540600 -23.584200
C -7.748200 -9.074300 -22.514800
C -7.264300 -8.861600 -16.800300
H -7.216200 -9.279900 -14.727400
N -7.209200 -8.554800 -19.176000
C -6.897500 -8.965600 -20.431100
C -6.649600 -9.153100 -15.597700
C -6.537400 -8.864600 -17.978700
O -5.907900 -9.652200 -20.693400
C -5.309700 -9.440300 -15.549300
C -5.183300 -9.130900 -17.918200
H -4.834400 -9.625300 -14.708500
H -4.713300 -9.247100 -18.694400
C -4.587200 -9.419300 -16.707500
H -3.607400 -9.586400 -16.655100
32
Fragment
H -3.261400 -12.143500 -14.758300
C -2.287000 -12.357500 -14.821500
H -2.242000 -13.143100 -12.864300
H -1.944500 -11.672000 -16.760000
C -1.708800 -12.960300 -13.718500
C -1.559700 -12.140700 -15.958200
C -0.374000 -13.333300 -13.765500
H -0.372700 -14.043900 -11.897000
C -0.252400 -12.516100 -16.001300
N 0.130100 -13.942900 -12.593900
H 0.222500 -12.324800 -16.778800
C 0.363200 -13.112000 -14.909000
H 0.803600 -14.791900 -10.559900
H 1.318600 -13.453900 -14.904900
C 1.368500 -14.399000 -12.351700
N 1.474100 -14.862400 -11.033400
H 1.850400 -15.101700 -8.643000
O 2.295500 -14.434300 -13.138700
N 2.515300 -15.433900 -9.093600
C 2.598800 -15.255600 -10.402500
C 3.487300 -16.092800 -8.273000
H 3.497800 -14.661200 -6.860600
H 3.697200 -17.750200 -9.377500
O 3.718300 -15.464400 -11.077800
C 3.867300 -15.488400 -7.101400
C 3.957200 -17.348600 -8.589200
C 4.711000 -16.151400 -6.239100
C 4.796900 -18.007300 -7.713400
H 4.979200 -15.745700 -5.406400
H 5.137400 -18.875600 -7.994600
C 5.162100 -17.406400 -6.535000
H 5.731500 -17.847200 -5.945800
51
Fragment
H -8.261600 -7.934000 -21.356600
H -8.211800 -8.652600 -16.784200
H -7.949900 -8.222400 -19.134300
N -7.808400 -8.530800 -21.351200
N -7.789800 -9.540600 -23.584200
C -7.748200 -9.074300 -22.514800
C -7.264300 -8.861600 -16.800300
H -7.216200 -9.279900 -14.727400
N -7.209200 -8.554800 -19.176000
C -6.897500 -8.965600 -20.431100
C -6.649600 -9.153100 -15.597700
C -6.537400 -8.864600 -17.978700
O -5.907900 -9.652200 -20.693400
C -5.309700 -9.440300 -15.549300
C -5.183300 -9.130900 -17.918200
H -4.834400 -9.625300 -14.708500
H -4.713300 -9.247100 -18.694400
C -4.587200 -9.419300 -16.707500
H -3.607400 -9.586400 -16.655100
H -3.261400 -12.143500 -14.758300
C -2.287000 -12.357500 -14.821500
H -2.242000 -13.143100 -12.864300
H -1.944500 -11.672000 -16.760000
C -1.708800 -12.960300 -13.718500
C -1.559700 -12.140700 -15.958200
C -0.374000 -13.333300 -13.765500
H -0.372700 -14.043900 -11.897000
C -0.252400 -12.516100 -16.001300
N 0.130100 -13.942900 -12.593900
H 0.222500 -12.324800 -16.778800
C 0.363200 -13.112000 -14.909000
H 0.803600 -14.791900 -10.559900
H 1.318600 -13.453900 -14.904900
C 1.368500 -14.399000 -12.351700
N 1.474100 -14.862400 -11.033400
H 1.850400 -15.101700 -8.643000
O 2.295500 -14.434300 -13.138700
N 2.515300 -15.433900 -9.093600
C 2.598800 -15.255600 -10.402500
C 3.487300 -16.092800 -8.273000
H 3.497800 -14.661200 -6.860600
H 3.697200 -17.750200 -9.377500
O 3.718300 -15.464400 -11.077800
C 3.867300 -15.488400 -7.101400
C 3.957200 -17.348600 -8.589200
C 4.711000 -16.151400 -6.239100
C 4.796900 -18.007300 -7.713400
H 4.979200 -15.745700 -5.406400
H 5.137400 -18.875600 -7.994600
C 5.162100 -17.406400 -6.535000
H 5.731500 -17.847200 -5.945800
