21
Fragment
H -8.338700 -14.815100 -25.597600
H -7.711100 -9.738100 -26.008500
N -7.670900 -12.828600 -25.809200
C -7.649400 -14.064900 -25.253200
H -7.463400 -10.857400 -26.987400
C -7.093400 -10.188000 -26.373500
H -6.759200 -16.281400 -23.645800
C -6.700400 -12.253000 -25.129000
N -6.658800 -14.250800 -24.270100
H -6.542300 -9.644500 -26.922300
N -6.394600 -10.940800 -25.377600
C -6.222300 -15.379200 -23.475600
H -6.120400 -15.085500 -22.509100
C -6.015200 -13.091800 -24.130700
H -5.407000 -15.526200 -23.739000
C -5.326700 -10.478600 -24.532500
O -4.969900 -9.389700 -24.675700
C -4.929400 -12.699300 -23.252500
N -4.713700 -11.360900 -23.574300
O -4.263700 -13.309600 -22.407200
H -4.080500 -11.038500 -23.093000
8
Fragment
F -7.060200 -14.655100 -28.867800
F -6.688800 -12.711800 -29.253200
C -6.069400 -13.902900 -29.089500
C -5.270200 -14.063500 -27.917500
F -5.265000 -14.119700 -30.134600
O -4.906600 -14.919300 -27.031300
O -4.671000 -12.818100 -27.659600
H -4.174000 -12.945500 -26.918200
29
Fragment
H -8.338700 -14.815100 -25.597600
H -7.711100 -9.738100 -26.008500
N -7.670900 -12.828600 -25.809200
C -7.649400 -14.064900 -25.253200
H -7.463400 -10.857400 -26.987400
C -7.093400 -10.188000 -26.373500
H -6.759200 -16.281400 -23.645800
C -6.700400 -12.253000 -25.129000
N -6.658800 -14.250800 -24.270100
H -6.542300 -9.644500 -26.922300
N -6.394600 -10.940800 -25.377600
C -6.222300 -15.379200 -23.475600
H -6.120400 -15.085500 -22.509100
C -6.015200 -13.091800 -24.130700
H -5.407000 -15.526200 -23.739000
C -5.326700 -10.478600 -24.532500
O -4.969900 -9.389700 -24.675700
C -4.929400 -12.699300 -23.252500
N -4.713700 -11.360900 -23.574300
O -4.263700 -13.309600 -22.407200
H -4.080500 -11.038500 -23.093000
F -7.060200 -14.655100 -28.867800
F -6.688800 -12.711800 -29.253200
C -6.069400 -13.902900 -29.089500
C -5.270200 -14.063500 -27.917500
F -5.265000 -14.119700 -30.134600
O -4.906600 -14.919300 -27.031300
O -4.671000 -12.818100 -27.659600
H -4.174000 -12.945500 -26.918200
