21
Fragment
H -8.338700 -14.815100 -25.597600
H -7.711100 -9.738100 -26.008500
N -7.670900 -12.828600 -25.809200
C -7.649400 -14.064900 -25.253200
H -7.463400 -10.857400 -26.987400
C -7.093400 -10.188000 -26.373500
H -6.759200 -16.281400 -23.645800
C -6.700400 -12.253000 -25.129000
N -6.658800 -14.250800 -24.270100
H -6.542300 -9.644500 -26.922300
N -6.394600 -10.940800 -25.377600
C -6.222300 -15.379200 -23.475600
H -6.120400 -15.085500 -22.509100
C -6.015200 -13.091800 -24.130700
H -5.407000 -15.526200 -23.739000
C -5.326700 -10.478600 -24.532500
O -4.969900 -9.389700 -24.675700
C -4.929400 -12.699300 -23.252500
N -4.713700 -11.360900 -23.574300
O -4.263700 -13.309600 -22.407200
H -4.080500 -11.038500 -23.093000
8
Fragment
H -6.169100 -10.532800 -32.374600
O -5.672100 -10.660200 -31.633100
O -5.436500 -8.559000 -32.261500
F -5.078100 -9.358600 -29.158100
C -5.072900 -9.414900 -31.375200
C -4.273800 -9.575400 -30.203300
F -3.654300 -10.766500 -30.039500
F -3.282900 -8.823200 -30.424900
29
Fragment
H -8.338700 -14.815100 -25.597600
H -7.711100 -9.738100 -26.008500
N -7.670900 -12.828600 -25.809200
C -7.649400 -14.064900 -25.253200
H -7.463400 -10.857400 -26.987400
C -7.093400 -10.188000 -26.373500
H -6.759200 -16.281400 -23.645800
C -6.700400 -12.253000 -25.129000
N -6.658800 -14.250800 -24.270100
H -6.542300 -9.644500 -26.922300
N -6.394600 -10.940800 -25.377600
C -6.222300 -15.379200 -23.475600
H -6.120400 -15.085500 -22.509100
C -6.015200 -13.091800 -24.130700
H -5.407000 -15.526200 -23.739000
C -5.326700 -10.478600 -24.532500
O -4.969900 -9.389700 -24.675700
C -4.929400 -12.699300 -23.252500
N -4.713700 -11.360900 -23.574300
O -4.263700 -13.309600 -22.407200
H -4.080500 -11.038500 -23.093000
H -6.169100 -10.532800 -32.374600
O -5.672100 -10.660200 -31.633100
O -5.436500 -8.559000 -32.261500
F -5.078100 -9.358600 -29.158100
C -5.072900 -9.414900 -31.375200
C -4.273800 -9.575400 -30.203300
F -3.654300 -10.766500 -30.039500
F -3.282900 -8.823200 -30.424900
