11
Fragment
H -17.559900 -17.363000 -11.729300
H -17.494200 -20.401800 -13.093900
O -17.300200 -19.434700 -12.855200
H -17.020800 -17.508800 -13.120000
C -16.798100 -17.524100 -12.285300
O -16.344100 -15.356800 -11.647900
C -16.328900 -18.896100 -11.950200
C -15.773600 -16.544400 -12.037400
H -15.692600 -14.716500 -11.488500
O -15.569900 -19.315200 -11.297900
O -14.584900 -16.626200 -12.115900
21
Fragment
H -17.869100 -11.724200 -12.272400
H -17.002400 -13.057100 -12.076000
C -16.990000 -12.073300 -12.474800
O -16.923100 -9.202200 -12.479400
H -16.882300 -12.089300 -13.366300
C -15.991700 -9.847100 -11.859000
N -15.914800 -11.288800 -11.825200
H -15.009300 -8.285400 -11.212300
N -14.971900 -9.110600 -11.177300
C -14.841500 -11.908200 -11.129800
N -14.615600 -13.223200 -10.994200
C -13.870100 -9.616200 -10.488800
C -13.818600 -11.116900 -10.450500
C -13.468700 -13.256500 -10.238900
O -13.119900 -8.826300 -10.021500
H -13.008600 -14.104900 -9.950500
N -12.944400 -12.045300 -9.875600
H -11.884100 -11.150000 -8.395600
C -11.706700 -11.721600 -9.067000
H -11.390000 -12.632600 -8.684000
H -10.962800 -11.293200 -9.619900
32
Fragment
H -17.559900 -17.363000 -11.729300
H -17.494200 -20.401800 -13.093900
O -17.300200 -19.434700 -12.855200
H -17.020800 -17.508800 -13.120000
C -16.798100 -17.524100 -12.285300
O -16.344100 -15.356800 -11.647900
C -16.328900 -18.896100 -11.950200
C -15.773600 -16.544400 -12.037400
H -15.692600 -14.716500 -11.488500
O -15.569900 -19.315200 -11.297900
O -14.584900 -16.626200 -12.115900
H -17.869100 -11.724200 -12.272400
H -17.002400 -13.057100 -12.076000
C -16.990000 -12.073300 -12.474800
O -16.923100 -9.202200 -12.479400
H -16.882300 -12.089300 -13.366300
C -15.991700 -9.847100 -11.859000
N -15.914800 -11.288800 -11.825200
H -15.009300 -8.285400 -11.212300
N -14.971900 -9.110600 -11.177300
C -14.841500 -11.908200 -11.129800
N -14.615600 -13.223200 -10.994200
C -13.870100 -9.616200 -10.488800
C -13.818600 -11.116900 -10.450500
C -13.468700 -13.256500 -10.238900
O -13.119900 -8.826300 -10.021500
H -13.008600 -14.104900 -9.950500
N -12.944400 -12.045300 -9.875600
H -11.884100 -11.150000 -8.395600
C -11.706700 -11.721600 -9.067000
H -11.390000 -12.632600 -8.684000
H -10.962800 -11.293200 -9.619900
