11
Fragment
H -17.559900 -17.363000 -11.729300
H -17.494200 -20.401800 -13.093900
O -17.300200 -19.434700 -12.855200
H -17.020800 -17.508800 -13.120000
C -16.798100 -17.524100 -12.285300
O -16.344100 -15.356800 -11.647900
C -16.328900 -18.896100 -11.950200
C -15.773600 -16.544400 -12.037400
H -15.692600 -14.716500 -11.488500
O -15.569900 -19.315200 -11.297900
O -14.584900 -16.626200 -12.115900
21
Fragment
H -13.421500 -14.513900 -13.392300
H -12.994200 -13.174500 -14.328200
C -12.677600 -14.085500 -13.945200
H -12.500200 -14.657100 -14.616600
N -11.439900 -13.761800 -13.136600
H -11.375700 -11.702200 -13.061700
O -11.264400 -16.980800 -12.990700
C -10.915600 -12.550600 -12.773300
C -10.565700 -14.690200 -12.561700
C -10.514200 -16.190900 -12.523400
N -9.768700 -12.583900 -12.018000
C -9.542800 -13.898900 -11.882400
N -9.412400 -16.696500 -11.834900
H -9.375000 -17.521700 -11.799900
N -8.469400 -14.518300 -11.187000
C -8.392500 -15.960000 -11.153200
H -7.502000 -13.717800 -9.645900
O -7.461200 -16.604900 -10.532800
C -7.394200 -13.733800 -10.537400
H -7.381800 -12.750000 -10.936200
H -6.515100 -14.082900 -10.739800
32
Fragment
H -17.559900 -17.363000 -11.729300
H -17.494200 -20.401800 -13.093900
O -17.300200 -19.434700 -12.855200
H -17.020800 -17.508800 -13.120000
C -16.798100 -17.524100 -12.285300
O -16.344100 -15.356800 -11.647900
C -16.328900 -18.896100 -11.950200
C -15.773600 -16.544400 -12.037400
H -15.692600 -14.716500 -11.488500
O -15.569900 -19.315200 -11.297900
O -14.584900 -16.626200 -12.115900
H -13.421500 -14.513900 -13.392300
H -12.994200 -13.174500 -14.328200
C -12.677600 -14.085500 -13.945200
H -12.500200 -14.657100 -14.616600
N -11.439900 -13.761800 -13.136600
H -11.375700 -11.702200 -13.061700
O -11.264400 -16.980800 -12.990700
C -10.915600 -12.550600 -12.773300
C -10.565700 -14.690200 -12.561700
C -10.514200 -16.190900 -12.523400
N -9.768700 -12.583900 -12.018000
C -9.542800 -13.898900 -11.882400
N -9.412400 -16.696500 -11.834900
H -9.375000 -17.521700 -11.799900
N -8.469400 -14.518300 -11.187000
C -8.392500 -15.960000 -11.153200
H -7.502000 -13.717800 -9.645900
O -7.461200 -16.604900 -10.532800
C -7.394200 -13.733800 -10.537400
H -7.381800 -12.750000 -10.936200
H -6.515100 -14.082900 -10.739800
