21
Fragment
H -8.338700 -14.815100 -25.597600
H -7.711100 -9.738100 -26.008500
N -7.670900 -12.828600 -25.809200
C -7.649400 -14.064900 -25.253200
H -7.463400 -10.857400 -26.987400
C -7.093400 -10.188000 -26.373500
H -6.759200 -16.281400 -23.645800
C -6.700400 -12.253000 -25.129000
N -6.658800 -14.250800 -24.270100
H -6.542300 -9.644500 -26.922300
N -6.394600 -10.940800 -25.377600
C -6.222300 -15.379200 -23.475600
H -6.120400 -15.085500 -22.509100
C -6.015200 -13.091800 -24.130700
H -5.407000 -15.526200 -23.739000
C -5.326700 -10.478600 -24.532500
O -4.969900 -9.389700 -24.675700
C -4.929400 -12.699300 -23.252500
N -4.713700 -11.360900 -23.574300
O -4.263700 -13.309600 -22.407200
H -4.080500 -11.038500 -23.093000
21
Fragment
H -6.930300 -23.030600 -25.597600
H -6.302600 -17.953600 -26.008500
N -6.262400 -21.044100 -25.809200
C -6.240900 -22.280400 -25.253200
H -6.054900 -19.073000 -26.987400
C -5.684900 -18.403500 -26.373500
H -5.350700 -24.496900 -23.645800
C -5.291900 -20.468500 -25.129000
N -5.250300 -22.466300 -24.270100
H -5.133800 -17.860000 -26.922300
N -4.986100 -19.156300 -25.377600
C -4.813800 -23.594700 -23.475600
H -4.711900 -23.301000 -22.509100
C -4.606700 -21.307300 -24.130700
H -3.998500 -23.741700 -23.739000
C -3.918200 -18.694100 -24.532500
O -3.561400 -17.605200 -24.675700
C -3.520900 -20.914800 -23.252500
N -3.305300 -19.576400 -23.574300
O -2.855200 -21.525200 -22.407200
H -2.672000 -19.254000 -23.093000
42
Fragment
H -8.338700 -14.815100 -25.597600
H -7.711100 -9.738100 -26.008500
N -7.670900 -12.828600 -25.809200
C -7.649400 -14.064900 -25.253200
H -7.463400 -10.857400 -26.987400
C -7.093400 -10.188000 -26.373500
H -6.759200 -16.281400 -23.645800
C -6.700400 -12.253000 -25.129000
N -6.658800 -14.250800 -24.270100
H -6.542300 -9.644500 -26.922300
N -6.394600 -10.940800 -25.377600
C -6.222300 -15.379200 -23.475600
H -6.120400 -15.085500 -22.509100
C -6.015200 -13.091800 -24.130700
H -5.407000 -15.526200 -23.739000
C -5.326700 -10.478600 -24.532500
O -4.969900 -9.389700 -24.675700
C -4.929400 -12.699300 -23.252500
N -4.713700 -11.360900 -23.574300
O -4.263700 -13.309600 -22.407200
H -4.080500 -11.038500 -23.093000
H -6.930300 -23.030600 -25.597600
H -6.302600 -17.953600 -26.008500
N -6.262400 -21.044100 -25.809200
C -6.240900 -22.280400 -25.253200
H -6.054900 -19.073000 -26.987400
C -5.684900 -18.403500 -26.373500
H -5.350700 -24.496900 -23.645800
C -5.291900 -20.468500 -25.129000
N -5.250300 -22.466300 -24.270100
H -5.133800 -17.860000 -26.922300
N -4.986100 -19.156300 -25.377600
C -4.813800 -23.594700 -23.475600
H -4.711900 -23.301000 -22.509100
C -4.606700 -21.307300 -24.130700
H -3.998500 -23.741700 -23.739000
C -3.918200 -18.694100 -24.532500
O -3.561400 -17.605200 -24.675700
C -3.520900 -20.914800 -23.252500
N -3.305300 -19.576400 -23.574300
O -2.855200 -21.525200 -22.407200
H -2.672000 -19.254000 -23.093000
