11
Fragment
H -17.559900 -17.363000 -11.729300
H -17.494200 -20.401800 -13.093900
O -17.300200 -19.434700 -12.855200
H -17.020800 -17.508800 -13.120000
C -16.798100 -17.524100 -12.285300
O -16.344100 -15.356800 -11.647900
C -16.328900 -18.896100 -11.950200
C -15.773600 -16.544400 -12.037400
H -15.692600 -14.716500 -11.488500
O -15.569900 -19.315200 -11.297900
O -14.584900 -16.626200 -12.115900
21
Fragment
H -25.864000 -14.513900 -13.392300
H -25.436700 -13.174500 -14.328200
C -25.120100 -14.085500 -13.945200
H -24.942700 -14.657100 -14.616600
N -23.882300 -13.761800 -13.136600
H -23.818100 -11.702200 -13.061700
O -23.706800 -16.980800 -12.990700
C -23.358100 -12.550600 -12.773300
C -23.008200 -14.690200 -12.561700
C -22.956600 -16.190900 -12.523400
N -22.211100 -12.583900 -12.018000
C -21.985300 -13.898900 -11.882400
N -21.854900 -16.696500 -11.834900
H -21.817500 -17.521700 -11.799900
N -20.911900 -14.518300 -11.187000
C -20.835000 -15.960000 -11.153200
H -19.944500 -13.717800 -9.645900
O -19.903600 -16.604900 -10.532800
C -19.836700 -13.733800 -10.537400
H -19.824300 -12.750000 -10.936200
H -18.957600 -14.082900 -10.739800
32
Fragment
H -17.559900 -17.363000 -11.729300
H -17.494200 -20.401800 -13.093900
O -17.300200 -19.434700 -12.855200
H -17.020800 -17.508800 -13.120000
C -16.798100 -17.524100 -12.285300
O -16.344100 -15.356800 -11.647900
C -16.328900 -18.896100 -11.950200
C -15.773600 -16.544400 -12.037400
H -15.692600 -14.716500 -11.488500
O -15.569900 -19.315200 -11.297900
O -14.584900 -16.626200 -12.115900
H -25.864000 -14.513900 -13.392300
H -25.436700 -13.174500 -14.328200
C -25.120100 -14.085500 -13.945200
H -24.942700 -14.657100 -14.616600
N -23.882300 -13.761800 -13.136600
H -23.818100 -11.702200 -13.061700
O -23.706800 -16.980800 -12.990700
C -23.358100 -12.550600 -12.773300
C -23.008200 -14.690200 -12.561700
C -22.956600 -16.190900 -12.523400
N -22.211100 -12.583900 -12.018000
C -21.985300 -13.898900 -11.882400
N -21.854900 -16.696500 -11.834900
H -21.817500 -17.521700 -11.799900
N -20.911900 -14.518300 -11.187000
C -20.835000 -15.960000 -11.153200
H -19.944500 -13.717800 -9.645900
O -19.903600 -16.604900 -10.532800
C -19.836700 -13.733800 -10.537400
H -19.824300 -12.750000 -10.936200
H -18.957600 -14.082900 -10.739800
