11
Fragment
H -17.559900 -17.363000 -11.729300
H -17.494200 -20.401800 -13.093900
O -17.300200 -19.434700 -12.855200
H -17.020800 -17.508800 -13.120000
C -16.798100 -17.524100 -12.285300
O -16.344100 -15.356800 -11.647900
C -16.328900 -18.896100 -11.950200
C -15.773600 -16.544400 -12.037400
H -15.692600 -14.716500 -11.488500
O -15.569900 -19.315200 -11.297900
O -14.584900 -16.626200 -12.115900
11
Fragment
H -17.476500 -14.895900 -15.564700
H -17.410700 -11.857100 -16.929300
O -17.216700 -12.824200 -16.690600
H -16.937300 -14.750000 -16.955400
C -16.714600 -14.734800 -16.120700
O -16.260600 -16.902100 -15.483200
C -16.245500 -13.362800 -15.785600
C -15.690100 -15.714500 -15.872700
H -15.609100 -17.542400 -15.323800
O -15.486500 -12.943700 -15.133300
O -14.501400 -15.632700 -15.951300
22
Fragment
H -17.559900 -17.363000 -11.729300
H -17.494200 -20.401800 -13.093900
O -17.300200 -19.434700 -12.855200
H -17.020800 -17.508800 -13.120000
C -16.798100 -17.524100 -12.285300
O -16.344100 -15.356800 -11.647900
C -16.328900 -18.896100 -11.950200
C -15.773600 -16.544400 -12.037400
H -15.692600 -14.716500 -11.488500
O -15.569900 -19.315200 -11.297900
O -14.584900 -16.626200 -12.115900
H -17.476500 -14.895900 -15.564700
H -17.410700 -11.857100 -16.929300
O -17.216700 -12.824200 -16.690600
H -16.937300 -14.750000 -16.955400
C -16.714600 -14.734800 -16.120700
O -16.260600 -16.902100 -15.483200
C -16.245500 -13.362800 -15.785600
C -15.690100 -15.714500 -15.872700
H -15.609100 -17.542400 -15.323800
O -15.486500 -12.943700 -15.133300
O -14.501400 -15.632700 -15.951300
