21
Fragment
H -8.338700 -14.815100 -25.597600
H -7.711100 -9.738100 -26.008500
N -7.670900 -12.828600 -25.809200
C -7.649400 -14.064900 -25.253200
H -7.463400 -10.857400 -26.987400
C -7.093400 -10.188000 -26.373500
H -6.759200 -16.281400 -23.645800
C -6.700400 -12.253000 -25.129000
N -6.658800 -14.250800 -24.270100
H -6.542300 -9.644500 -26.922300
N -6.394600 -10.940800 -25.377600
C -6.222300 -15.379200 -23.475600
H -6.120400 -15.085500 -22.509100
C -6.015200 -13.091800 -24.130700
H -5.407000 -15.526200 -23.739000
C -5.326700 -10.478600 -24.532500
O -4.969900 -9.389700 -24.675700
C -4.929400 -12.699300 -23.252500
N -4.713700 -11.360900 -23.574300
O -4.263700 -13.309600 -22.407200
H -4.080500 -11.038500 -23.093000
21
Fragment
H -7.713000 -12.731900 -21.376500
O -7.529800 -10.460700 -22.062400
N -7.079800 -12.409500 -20.895200
C -6.864200 -11.071100 -21.217000
O -6.823600 -14.380700 -19.793800
C -6.466900 -13.291800 -19.937000
H -6.386500 -8.244100 -20.730500
C -5.778300 -10.678500 -20.338900
H -5.673200 -8.684900 -21.960400
C -5.571200 -8.391200 -20.993900
N -5.398900 -12.829500 -19.092000
H -5.251200 -14.125900 -17.547200
N -5.134700 -9.519500 -20.199400
C -5.093100 -11.517400 -19.340500
H -5.034300 -7.488900 -20.823700
C -4.700100 -13.582400 -18.096000
H -4.330100 -12.912900 -17.482200
C -4.144200 -9.705400 -19.216300
N -4.122600 -10.941700 -18.660300
H -4.082400 -14.032300 -18.461100
H -3.454800 -8.955200 -18.872000
42
Fragment
H -8.338700 -14.815100 -25.597600
H -7.711100 -9.738100 -26.008500
N -7.670900 -12.828600 -25.809200
C -7.649400 -14.064900 -25.253200
H -7.463400 -10.857400 -26.987400
C -7.093400 -10.188000 -26.373500
H -6.759200 -16.281400 -23.645800
C -6.700400 -12.253000 -25.129000
N -6.658800 -14.250800 -24.270100
H -6.542300 -9.644500 -26.922300
N -6.394600 -10.940800 -25.377600
C -6.222300 -15.379200 -23.475600
H -6.120400 -15.085500 -22.509100
C -6.015200 -13.091800 -24.130700
H -5.407000 -15.526200 -23.739000
C -5.326700 -10.478600 -24.532500
O -4.969900 -9.389700 -24.675700
C -4.929400 -12.699300 -23.252500
N -4.713700 -11.360900 -23.574300
O -4.263700 -13.309600 -22.407200
H -4.080500 -11.038500 -23.093000
H -7.713000 -12.731900 -21.376500
O -7.529800 -10.460700 -22.062400
N -7.079800 -12.409500 -20.895200
C -6.864200 -11.071100 -21.217000
O -6.823600 -14.380700 -19.793800
C -6.466900 -13.291800 -19.937000
H -6.386500 -8.244100 -20.730500
C -5.778300 -10.678500 -20.338900
H -5.673200 -8.684900 -21.960400
C -5.571200 -8.391200 -20.993900
N -5.398900 -12.829500 -19.092000
H -5.251200 -14.125900 -17.547200
N -5.134700 -9.519500 -20.199400
C -5.093100 -11.517400 -19.340500
H -5.034300 -7.488900 -20.823700
C -4.700100 -13.582400 -18.096000
H -4.330100 -12.912900 -17.482200
C -4.144200 -9.705400 -19.216300
N -4.122600 -10.941700 -18.660300
H -4.082400 -14.032300 -18.461100
H -3.454800 -8.955200 -18.872000
