40
Fragment
H -33.908100 -19.551600 -6.291400
H -33.190200 -20.519900 -7.292800
C -33.056800 -19.849000 -6.619200
H -32.545900 -20.219700 -5.895600
O -32.345500 -18.736800 -7.186300
H -31.181800 -17.418500 -8.995000
C -31.151200 -18.978900 -7.679700
O -30.788700 -16.589900 -13.107300
O -30.613800 -20.049600 -7.660800
C -30.573200 -17.740800 -8.311500
H -30.492100 -17.049200 -7.636200
H -30.404000 -17.833500 -11.477300
N -29.724600 -16.321600 -13.628500
O -29.676900 -15.589800 -14.600400
N -29.572300 -17.973200 -11.306800
H -29.467100 -19.613800 -10.106200
N -29.282200 -17.972000 -8.904000
C -29.097200 -18.707700 -10.149700
C -28.575600 -17.537500 -12.073900
N -28.544100 -16.802900 -13.188400
N -28.129000 -16.802900 -7.299400
C -28.097500 -17.537500 -8.413900
C -27.575900 -18.707700 -10.338100
N -27.390900 -17.972000 -11.583800
H -27.206000 -19.613800 -10.381600
N -27.100700 -17.973200 -9.181000
O -26.996200 -15.589800 -5.887400
N -26.948400 -16.321600 -6.859300
H -26.269100 -17.833500 -9.010500
H -26.181000 -17.049200 -12.851600
C -26.099900 -17.740800 -12.176300
O -26.059200 -20.049600 -12.827000
O -25.884300 -16.589900 -7.380500
C -25.521900 -18.978900 -12.808200
H -25.491300 -17.418500 -11.492800
O -24.327600 -18.736800 -13.301500
H -24.127200 -20.219700 -14.592200
C -23.616300 -19.849000 -13.868600
H -23.482900 -20.519900 -13.195000
H -22.765000 -19.551600 -14.196400
40
Fragment
H -40.503900 -15.030900 -10.389000
H -39.786000 -14.062600 -11.390400
C -39.652600 -14.733500 -10.716800
H -39.141700 -14.362800 -9.993100
O -38.941300 -15.845700 -11.283900
H -37.777600 -17.164000 -13.092500
C -37.747000 -15.603600 -11.777200
O -37.384600 -17.992600 -17.204800
O -37.209600 -14.532900 -11.758400
C -37.169000 -16.841700 -12.409100
H -37.087900 -17.533300 -11.733800
H -36.999800 -16.749000 -15.574800
N -36.320400 -18.260900 -17.726100
O -36.272700 -18.992700 -18.698000
N -36.168200 -16.609300 -15.404400
H -36.062900 -14.968700 -14.203800
N -35.878000 -16.610500 -13.001600
C -35.693000 -15.874800 -14.247200
C -35.171400 -17.045000 -16.171400
N -35.139900 -17.779600 -17.286000
N -34.724800 -17.779600 -11.397000
C -34.693300 -17.045000 -12.511500
C -34.171700 -15.874800 -14.435700
N -33.986700 -16.610500 -15.681400
H -33.801800 -14.968700 -14.479100
N -33.696500 -16.609300 -13.278600
O -33.592000 -18.992700 -9.984900
N -33.544300 -18.260900 -10.956900
H -32.864900 -16.749000 -13.108100
H -32.776800 -17.533300 -16.949200
C -32.695700 -16.841700 -16.273900
O -32.655100 -14.532900 -16.924600
O -32.480100 -17.992600 -11.478100
C -32.117700 -15.603600 -16.905700
H -32.087100 -17.164000 -15.590400
O -30.923400 -15.845700 -17.399100
H -30.723000 -14.362800 -18.689800
C -30.212100 -14.733500 -17.966200
H -30.078700 -14.062600 -17.292500
H -29.360800 -15.030900 -18.294000
80
Fragment
H -33.908100 -19.551600 -6.291400
H -33.190200 -20.519900 -7.292800
C -33.056800 -19.849000 -6.619200
H -32.545900 -20.219700 -5.895600
O -32.345500 -18.736800 -7.186300
H -31.181800 -17.418500 -8.995000
C -31.151200 -18.978900 -7.679700
O -30.788700 -16.589900 -13.107300
O -30.613800 -20.049600 -7.660800
C -30.573200 -17.740800 -8.311500
H -30.492100 -17.049200 -7.636200
H -30.404000 -17.833500 -11.477300
N -29.724600 -16.321600 -13.628500
O -29.676900 -15.589800 -14.600400
N -29.572300 -17.973200 -11.306800
H -29.467100 -19.613800 -10.106200
N -29.282200 -17.972000 -8.904000
C -29.097200 -18.707700 -10.149700
C -28.575600 -17.537500 -12.073900
N -28.544100 -16.802900 -13.188400
N -28.129000 -16.802900 -7.299400
C -28.097500 -17.537500 -8.413900
C -27.575900 -18.707700 -10.338100
N -27.390900 -17.972000 -11.583800
H -27.206000 -19.613800 -10.381600
N -27.100700 -17.973200 -9.181000
O -26.996200 -15.589800 -5.887400
N -26.948400 -16.321600 -6.859300
H -26.269100 -17.833500 -9.010500
H -26.181000 -17.049200 -12.851600
C -26.099900 -17.740800 -12.176300
O -26.059200 -20.049600 -12.827000
O -25.884300 -16.589900 -7.380500
C -25.521900 -18.978900 -12.808200
H -25.491300 -17.418500 -11.492800
O -24.327600 -18.736800 -13.301500
H -24.127200 -20.219700 -14.592200
C -23.616300 -19.849000 -13.868600
H -23.482900 -20.519900 -13.195000
H -22.765000 -19.551600 -14.196400
H -40.503900 -15.030900 -10.389000
H -39.786000 -14.062600 -11.390400
C -39.652600 -14.733500 -10.716800
H -39.141700 -14.362800 -9.993100
O -38.941300 -15.845700 -11.283900
H -37.777600 -17.164000 -13.092500
C -37.747000 -15.603600 -11.777200
O -37.384600 -17.992600 -17.204800
O -37.209600 -14.532900 -11.758400
C -37.169000 -16.841700 -12.409100
H -37.087900 -17.533300 -11.733800
H -36.999800 -16.749000 -15.574800
N -36.320400 -18.260900 -17.726100
O -36.272700 -18.992700 -18.698000
N -36.168200 -16.609300 -15.404400
H -36.062900 -14.968700 -14.203800
N -35.878000 -16.610500 -13.001600
C -35.693000 -15.874800 -14.247200
C -35.171400 -17.045000 -16.171400
N -35.139900 -17.779600 -17.286000
N -34.724800 -17.779600 -11.397000
C -34.693300 -17.045000 -12.511500
C -34.171700 -15.874800 -14.435700
N -33.986700 -16.610500 -15.681400
H -33.801800 -14.968700 -14.479100
N -33.696500 -16.609300 -13.278600
O -33.592000 -18.992700 -9.984900
N -33.544300 -18.260900 -10.956900
H -32.864900 -16.749000 -13.108100
H -32.776800 -17.533300 -16.949200
C -32.695700 -16.841700 -16.273900
O -32.655100 -14.532900 -16.924600
O -32.480100 -17.992600 -11.478100
C -32.117700 -15.603600 -16.905700
H -32.087100 -17.164000 -15.590400
O -30.923400 -15.845700 -17.399100
H -30.723000 -14.362800 -18.689800
C -30.212100 -14.733500 -17.966200
H -30.078700 -14.062600 -17.292500
H -29.360800 -15.030900 -18.294000
