40
Fragment
H -33.908100 -19.551600 -6.291400
H -33.190200 -20.519900 -7.292800
C -33.056800 -19.849000 -6.619200
H -32.545900 -20.219700 -5.895600
O -32.345500 -18.736800 -7.186300
H -31.181800 -17.418500 -8.995000
C -31.151200 -18.978900 -7.679700
O -30.788700 -16.589900 -13.107300
O -30.613800 -20.049600 -7.660800
C -30.573200 -17.740800 -8.311500
H -30.492100 -17.049200 -7.636200
H -30.404000 -17.833500 -11.477300
N -29.724600 -16.321600 -13.628500
O -29.676900 -15.589800 -14.600400
N -29.572300 -17.973200 -11.306800
H -29.467100 -19.613800 -10.106200
N -29.282200 -17.972000 -8.904000
C -29.097200 -18.707700 -10.149700
C -28.575600 -17.537500 -12.073900
N -28.544100 -16.802900 -13.188400
N -28.129000 -16.802900 -7.299400
C -28.097500 -17.537500 -8.413900
C -27.575900 -18.707700 -10.338100
N -27.390900 -17.972000 -11.583800
H -27.206000 -19.613800 -10.381600
N -27.100700 -17.973200 -9.181000
O -26.996200 -15.589800 -5.887400
N -26.948400 -16.321600 -6.859300
H -26.269100 -17.833500 -9.010500
H -26.181000 -17.049200 -12.851600
C -26.099900 -17.740800 -12.176300
O -26.059200 -20.049600 -12.827000
O -25.884300 -16.589900 -7.380500
C -25.521900 -18.978900 -12.808200
H -25.491300 -17.418500 -11.492800
O -24.327600 -18.736800 -13.301500
H -24.127200 -20.219700 -14.592200
C -23.616300 -19.849000 -13.868600
H -23.482900 -20.519900 -13.195000
H -22.765000 -19.551600 -14.196400
40
Fragment
H -43.108300 -15.030900 -2.193800
H -42.390400 -14.062600 -3.195300
C -42.257000 -14.733500 -2.521600
H -41.746100 -14.362800 -1.798000
O -41.545700 -15.845700 -3.088700
H -40.382000 -17.164000 -4.897400
C -40.351400 -15.603600 -3.582100
O -39.988900 -17.992600 -9.009700
O -39.814000 -14.532900 -3.563200
C -39.773400 -16.841700 -4.213900
H -39.692300 -17.533300 -3.538700
H -39.604200 -16.749000 -7.379700
N -38.924800 -18.260900 -9.530900
O -38.877000 -18.992700 -10.502900
N -38.772500 -16.609300 -7.209300
H -38.667200 -14.968700 -6.008700
N -38.482400 -16.610500 -4.806400
C -38.297400 -15.874800 -6.052100
C -37.775800 -17.045000 -7.976300
N -37.744300 -17.779600 -9.090900
N -37.329200 -17.779600 -3.201800
C -37.297700 -17.045000 -4.316400
C -36.776000 -15.874800 -6.240600
N -36.591100 -16.610500 -7.486200
H -36.406200 -14.968700 -6.284000
N -36.300900 -16.609300 -5.083400
O -36.196400 -18.992700 -1.789800
N -36.148600 -18.260900 -2.761800
H -35.469200 -16.749000 -4.913000
H -35.381100 -17.533300 -8.754000
C -35.300000 -16.841700 -8.078800
O -35.259400 -14.532900 -8.729400
O -35.084500 -17.992600 -3.283000
C -34.722000 -15.603600 -8.710600
H -34.691400 -17.164000 -7.395300
O -33.527800 -15.845700 -9.203900
H -33.327400 -14.362800 -10.494700
C -32.816500 -14.733500 -9.771000
H -32.683100 -14.062600 -9.097400
H -31.965200 -15.030900 -10.098900
80
Fragment
H -33.908100 -19.551600 -6.291400
H -33.190200 -20.519900 -7.292800
C -33.056800 -19.849000 -6.619200
H -32.545900 -20.219700 -5.895600
O -32.345500 -18.736800 -7.186300
H -31.181800 -17.418500 -8.995000
C -31.151200 -18.978900 -7.679700
O -30.788700 -16.589900 -13.107300
O -30.613800 -20.049600 -7.660800
C -30.573200 -17.740800 -8.311500
H -30.492100 -17.049200 -7.636200
H -30.404000 -17.833500 -11.477300
N -29.724600 -16.321600 -13.628500
O -29.676900 -15.589800 -14.600400
N -29.572300 -17.973200 -11.306800
H -29.467100 -19.613800 -10.106200
N -29.282200 -17.972000 -8.904000
C -29.097200 -18.707700 -10.149700
C -28.575600 -17.537500 -12.073900
N -28.544100 -16.802900 -13.188400
N -28.129000 -16.802900 -7.299400
C -28.097500 -17.537500 -8.413900
C -27.575900 -18.707700 -10.338100
N -27.390900 -17.972000 -11.583800
H -27.206000 -19.613800 -10.381600
N -27.100700 -17.973200 -9.181000
O -26.996200 -15.589800 -5.887400
N -26.948400 -16.321600 -6.859300
H -26.269100 -17.833500 -9.010500
H -26.181000 -17.049200 -12.851600
C -26.099900 -17.740800 -12.176300
O -26.059200 -20.049600 -12.827000
O -25.884300 -16.589900 -7.380500
C -25.521900 -18.978900 -12.808200
H -25.491300 -17.418500 -11.492800
O -24.327600 -18.736800 -13.301500
H -24.127200 -20.219700 -14.592200
C -23.616300 -19.849000 -13.868600
H -23.482900 -20.519900 -13.195000
H -22.765000 -19.551600 -14.196400
H -43.108300 -15.030900 -2.193800
H -42.390400 -14.062600 -3.195300
C -42.257000 -14.733500 -2.521600
H -41.746100 -14.362800 -1.798000
O -41.545700 -15.845700 -3.088700
H -40.382000 -17.164000 -4.897400
C -40.351400 -15.603600 -3.582100
O -39.988900 -17.992600 -9.009700
O -39.814000 -14.532900 -3.563200
C -39.773400 -16.841700 -4.213900
H -39.692300 -17.533300 -3.538700
H -39.604200 -16.749000 -7.379700
N -38.924800 -18.260900 -9.530900
O -38.877000 -18.992700 -10.502900
N -38.772500 -16.609300 -7.209300
H -38.667200 -14.968700 -6.008700
N -38.482400 -16.610500 -4.806400
C -38.297400 -15.874800 -6.052100
C -37.775800 -17.045000 -7.976300
N -37.744300 -17.779600 -9.090900
N -37.329200 -17.779600 -3.201800
C -37.297700 -17.045000 -4.316400
C -36.776000 -15.874800 -6.240600
N -36.591100 -16.610500 -7.486200
H -36.406200 -14.968700 -6.284000
N -36.300900 -16.609300 -5.083400
O -36.196400 -18.992700 -1.789800
N -36.148600 -18.260900 -2.761800
H -35.469200 -16.749000 -4.913000
H -35.381100 -17.533300 -8.754000
C -35.300000 -16.841700 -8.078800
O -35.259400 -14.532900 -8.729400
O -35.084500 -17.992600 -3.283000
C -34.722000 -15.603600 -8.710600
H -34.691400 -17.164000 -7.395300
O -33.527800 -15.845700 -9.203900
H -33.327400 -14.362800 -10.494700
C -32.816500 -14.733500 -9.771000
H -32.683100 -14.062600 -9.097400
H -31.965200 -15.030900 -10.098900
