40
Fragment
H -33.908100 -19.551600 -6.291400
H -33.190200 -20.519900 -7.292800
C -33.056800 -19.849000 -6.619200
H -32.545900 -20.219700 -5.895600
O -32.345500 -18.736800 -7.186300
H -31.181800 -17.418500 -8.995000
C -31.151200 -18.978900 -7.679700
O -30.788700 -16.589900 -13.107300
O -30.613800 -20.049600 -7.660800
C -30.573200 -17.740800 -8.311500
H -30.492100 -17.049200 -7.636200
H -30.404000 -17.833500 -11.477300
N -29.724600 -16.321600 -13.628500
O -29.676900 -15.589800 -14.600400
N -29.572300 -17.973200 -11.306800
H -29.467100 -19.613800 -10.106200
N -29.282200 -17.972000 -8.904000
C -29.097200 -18.707700 -10.149700
C -28.575600 -17.537500 -12.073900
N -28.544100 -16.802900 -13.188400
N -28.129000 -16.802900 -7.299400
C -28.097500 -17.537500 -8.413900
C -27.575900 -18.707700 -10.338100
N -27.390900 -17.972000 -11.583800
H -27.206000 -19.613800 -10.381600
N -27.100700 -17.973200 -9.181000
O -26.996200 -15.589800 -5.887400
N -26.948400 -16.321600 -6.859300
H -26.269100 -17.833500 -9.010500
H -26.181000 -17.049200 -12.851600
C -26.099900 -17.740800 -12.176300
O -26.059200 -20.049600 -12.827000
O -25.884300 -16.589900 -7.380500
C -25.521900 -18.978900 -12.808200
H -25.491300 -17.418500 -11.492800
O -24.327600 -18.736800 -13.301500
H -24.127200 -20.219700 -14.592200
C -23.616300 -19.849000 -13.868600
H -23.482900 -20.519900 -13.195000
H -22.765000 -19.551600 -14.196400
40
Fragment
H -31.303700 -19.551600 -14.486500
H -30.585800 -20.519900 -15.488000
C -30.452400 -19.849000 -14.814300
H -29.941500 -20.219700 -14.090700
O -29.741100 -18.736800 -15.381400
H -28.577500 -17.418500 -17.190100
C -28.546800 -18.978900 -15.874800
O -28.184400 -16.589900 -21.302400
O -28.009500 -20.049600 -15.855900
C -27.968800 -17.740800 -16.506600
H -27.887700 -17.049200 -15.831300
H -27.799600 -17.833500 -19.672400
N -27.120300 -16.321600 -21.823600
O -27.072500 -15.589800 -22.795600
N -26.968000 -17.973200 -19.501900
H -26.862700 -19.613800 -18.301400
N -26.677800 -17.972000 -17.099100
C -26.492800 -18.707700 -18.344800
C -25.971200 -17.537500 -20.269000
N -25.939700 -16.802900 -21.383500
N -25.524600 -16.802900 -15.494500
C -25.493100 -17.537500 -16.609100
C -24.971500 -18.707700 -18.533300
N -24.786500 -17.972000 -19.778900
H -24.601600 -19.613800 -18.576700
N -24.496400 -17.973200 -17.376100
O -24.391800 -15.589800 -14.082500
N -24.344100 -16.321600 -15.054400
H -23.664700 -17.833500 -17.205700
H -23.576600 -17.049200 -21.046700
C -23.495500 -17.740800 -20.371400
O -23.454900 -20.049600 -21.022100
O -23.280000 -16.589900 -15.575700
C -22.917500 -18.978900 -21.003300
H -22.886900 -17.418500 -19.688000
O -21.723200 -18.736800 -21.496600
H -21.522800 -20.219700 -22.787400
C -21.011900 -19.849000 -22.063700
H -20.878500 -20.519900 -21.390100
H -20.160600 -19.551600 -22.391500
80
Fragment
H -33.908100 -19.551600 -6.291400
H -33.190200 -20.519900 -7.292800
C -33.056800 -19.849000 -6.619200
H -32.545900 -20.219700 -5.895600
O -32.345500 -18.736800 -7.186300
H -31.181800 -17.418500 -8.995000
C -31.151200 -18.978900 -7.679700
O -30.788700 -16.589900 -13.107300
O -30.613800 -20.049600 -7.660800
C -30.573200 -17.740800 -8.311500
H -30.492100 -17.049200 -7.636200
H -30.404000 -17.833500 -11.477300
N -29.724600 -16.321600 -13.628500
O -29.676900 -15.589800 -14.600400
N -29.572300 -17.973200 -11.306800
H -29.467100 -19.613800 -10.106200
N -29.282200 -17.972000 -8.904000
C -29.097200 -18.707700 -10.149700
C -28.575600 -17.537500 -12.073900
N -28.544100 -16.802900 -13.188400
N -28.129000 -16.802900 -7.299400
C -28.097500 -17.537500 -8.413900
C -27.575900 -18.707700 -10.338100
N -27.390900 -17.972000 -11.583800
H -27.206000 -19.613800 -10.381600
N -27.100700 -17.973200 -9.181000
O -26.996200 -15.589800 -5.887400
N -26.948400 -16.321600 -6.859300
H -26.269100 -17.833500 -9.010500
H -26.181000 -17.049200 -12.851600
C -26.099900 -17.740800 -12.176300
O -26.059200 -20.049600 -12.827000
O -25.884300 -16.589900 -7.380500
C -25.521900 -18.978900 -12.808200
H -25.491300 -17.418500 -11.492800
O -24.327600 -18.736800 -13.301500
H -24.127200 -20.219700 -14.592200
C -23.616300 -19.849000 -13.868600
H -23.482900 -20.519900 -13.195000
H -22.765000 -19.551600 -14.196400
H -31.303700 -19.551600 -14.486500
H -30.585800 -20.519900 -15.488000
C -30.452400 -19.849000 -14.814300
H -29.941500 -20.219700 -14.090700
O -29.741100 -18.736800 -15.381400
H -28.577500 -17.418500 -17.190100
C -28.546800 -18.978900 -15.874800
O -28.184400 -16.589900 -21.302400
O -28.009500 -20.049600 -15.855900
C -27.968800 -17.740800 -16.506600
H -27.887700 -17.049200 -15.831300
H -27.799600 -17.833500 -19.672400
N -27.120300 -16.321600 -21.823600
O -27.072500 -15.589800 -22.795600
N -26.968000 -17.973200 -19.501900
H -26.862700 -19.613800 -18.301400
N -26.677800 -17.972000 -17.099100
C -26.492800 -18.707700 -18.344800
C -25.971200 -17.537500 -20.269000
N -25.939700 -16.802900 -21.383500
N -25.524600 -16.802900 -15.494500
C -25.493100 -17.537500 -16.609100
C -24.971500 -18.707700 -18.533300
N -24.786500 -17.972000 -19.778900
H -24.601600 -19.613800 -18.576700
N -24.496400 -17.973200 -17.376100
O -24.391800 -15.589800 -14.082500
N -24.344100 -16.321600 -15.054400
H -23.664700 -17.833500 -17.205700
H -23.576600 -17.049200 -21.046700
C -23.495500 -17.740800 -20.371400
O -23.454900 -20.049600 -21.022100
O -23.280000 -16.589900 -15.575700
C -22.917500 -18.978900 -21.003300
H -22.886900 -17.418500 -19.688000
O -21.723200 -18.736800 -21.496600
H -21.522800 -20.219700 -22.787400
C -21.011900 -19.849000 -22.063700
H -20.878500 -20.519900 -21.390100
H -20.160600 -19.551600 -22.391500
