40
Fragment
H -33.908100 -19.551600 -6.291400
H -33.190200 -20.519900 -7.292800
C -33.056800 -19.849000 -6.619200
H -32.545900 -20.219700 -5.895600
O -32.345500 -18.736800 -7.186300
H -31.181800 -17.418500 -8.995000
C -31.151200 -18.978900 -7.679700
O -30.788700 -16.589900 -13.107300
O -30.613800 -20.049600 -7.660800
C -30.573200 -17.740800 -8.311500
H -30.492100 -17.049200 -7.636200
H -30.404000 -17.833500 -11.477300
N -29.724600 -16.321600 -13.628500
O -29.676900 -15.589800 -14.600400
N -29.572300 -17.973200 -11.306800
H -29.467100 -19.613800 -10.106200
N -29.282200 -17.972000 -8.904000
C -29.097200 -18.707700 -10.149700
C -28.575600 -17.537500 -12.073900
N -28.544100 -16.802900 -13.188400
N -28.129000 -16.802900 -7.299400
C -28.097500 -17.537500 -8.413900
C -27.575900 -18.707700 -10.338100
N -27.390900 -17.972000 -11.583800
H -27.206000 -19.613800 -10.381600
N -27.100700 -17.973200 -9.181000
O -26.996200 -15.589800 -5.887400
N -26.948400 -16.321600 -6.859300
H -26.269100 -17.833500 -9.010500
H -26.181000 -17.049200 -12.851600
C -26.099900 -17.740800 -12.176300
O -26.059200 -20.049600 -12.827000
O -25.884300 -16.589900 -7.380500
C -25.521900 -18.978900 -12.808200
H -25.491300 -17.418500 -11.492800
O -24.327600 -18.736800 -13.301500
H -24.127200 -20.219700 -14.592200
C -23.616300 -19.849000 -13.868600
H -23.482900 -20.519900 -13.195000
H -22.765000 -19.551600 -14.196400
40
Fragment
H -26.010100 -12.635100 -6.291400
H -25.292200 -13.603400 -7.292800
C -25.158800 -12.932500 -6.619200
H -24.647900 -13.303200 -5.895600
O -24.447500 -11.820300 -7.186300
H -23.283800 -10.502000 -8.995000
C -23.253200 -12.062400 -7.679700
O -22.890700 -9.673400 -13.107300
O -22.715800 -13.133100 -7.660800
C -22.675200 -10.824300 -8.311500
H -22.594100 -10.132700 -7.636200
H -22.506000 -10.917000 -11.477300
N -21.826600 -9.405100 -13.628500
O -21.778900 -8.673300 -14.600400
N -21.674300 -11.056700 -11.306800
H -21.569100 -12.697300 -10.106200
N -21.384200 -11.055500 -8.904000
C -21.199200 -11.791200 -10.149700
C -20.677600 -10.621000 -12.073900
N -20.646100 -9.886400 -13.188400
N -20.231000 -9.886400 -7.299400
C -20.199500 -10.621000 -8.413900
C -19.677900 -11.791200 -10.338100
N -19.492900 -11.055500 -11.583800
H -19.308000 -12.697300 -10.381600
N -19.202700 -11.056700 -9.181000
O -19.098200 -8.673300 -5.887400
N -19.050400 -9.405100 -6.859300
H -18.371100 -10.917000 -9.010500
H -18.283000 -10.132700 -12.851600
C -18.201900 -10.824300 -12.176300
O -18.161200 -13.133100 -12.827000
O -17.986300 -9.673400 -7.380500
C -17.623900 -12.062400 -12.808200
H -17.593300 -10.502000 -11.492800
O -16.429600 -11.820300 -13.301500
H -16.229200 -13.303200 -14.592200
C -15.718300 -12.932500 -13.868600
H -15.584900 -13.603400 -13.195000
H -14.867000 -12.635100 -14.196400
80
Fragment
H -33.908100 -19.551600 -6.291400
H -33.190200 -20.519900 -7.292800
C -33.056800 -19.849000 -6.619200
H -32.545900 -20.219700 -5.895600
O -32.345500 -18.736800 -7.186300
H -31.181800 -17.418500 -8.995000
C -31.151200 -18.978900 -7.679700
O -30.788700 -16.589900 -13.107300
O -30.613800 -20.049600 -7.660800
C -30.573200 -17.740800 -8.311500
H -30.492100 -17.049200 -7.636200
H -30.404000 -17.833500 -11.477300
N -29.724600 -16.321600 -13.628500
O -29.676900 -15.589800 -14.600400
N -29.572300 -17.973200 -11.306800
H -29.467100 -19.613800 -10.106200
N -29.282200 -17.972000 -8.904000
C -29.097200 -18.707700 -10.149700
C -28.575600 -17.537500 -12.073900
N -28.544100 -16.802900 -13.188400
N -28.129000 -16.802900 -7.299400
C -28.097500 -17.537500 -8.413900
C -27.575900 -18.707700 -10.338100
N -27.390900 -17.972000 -11.583800
H -27.206000 -19.613800 -10.381600
N -27.100700 -17.973200 -9.181000
O -26.996200 -15.589800 -5.887400
N -26.948400 -16.321600 -6.859300
H -26.269100 -17.833500 -9.010500
H -26.181000 -17.049200 -12.851600
C -26.099900 -17.740800 -12.176300
O -26.059200 -20.049600 -12.827000
O -25.884300 -16.589900 -7.380500
C -25.521900 -18.978900 -12.808200
H -25.491300 -17.418500 -11.492800
O -24.327600 -18.736800 -13.301500
H -24.127200 -20.219700 -14.592200
C -23.616300 -19.849000 -13.868600
H -23.482900 -20.519900 -13.195000
H -22.765000 -19.551600 -14.196400
H -26.010100 -12.635100 -6.291400
H -25.292200 -13.603400 -7.292800
C -25.158800 -12.932500 -6.619200
H -24.647900 -13.303200 -5.895600
O -24.447500 -11.820300 -7.186300
H -23.283800 -10.502000 -8.995000
C -23.253200 -12.062400 -7.679700
O -22.890700 -9.673400 -13.107300
O -22.715800 -13.133100 -7.660800
C -22.675200 -10.824300 -8.311500
H -22.594100 -10.132700 -7.636200
H -22.506000 -10.917000 -11.477300
N -21.826600 -9.405100 -13.628500
O -21.778900 -8.673300 -14.600400
N -21.674300 -11.056700 -11.306800
H -21.569100 -12.697300 -10.106200
N -21.384200 -11.055500 -8.904000
C -21.199200 -11.791200 -10.149700
C -20.677600 -10.621000 -12.073900
N -20.646100 -9.886400 -13.188400
N -20.231000 -9.886400 -7.299400
C -20.199500 -10.621000 -8.413900
C -19.677900 -11.791200 -10.338100
N -19.492900 -11.055500 -11.583800
H -19.308000 -12.697300 -10.381600
N -19.202700 -11.056700 -9.181000
O -19.098200 -8.673300 -5.887400
N -19.050400 -9.405100 -6.859300
H -18.371100 -10.917000 -9.010500
H -18.283000 -10.132700 -12.851600
C -18.201900 -10.824300 -12.176300
O -18.161200 -13.133100 -12.827000
O -17.986300 -9.673400 -7.380500
C -17.623900 -12.062400 -12.808200
H -17.593300 -10.502000 -11.492800
O -16.429600 -11.820300 -13.301500
H -16.229200 -13.303200 -14.592200
C -15.718300 -12.932500 -13.868600
H -15.584900 -13.603400 -13.195000
H -14.867000 -12.635100 -14.196400
