40
Fragment
H -33.908100 -19.551600 -6.291400
H -33.190200 -20.519900 -7.292800
C -33.056800 -19.849000 -6.619200
H -32.545900 -20.219700 -5.895600
O -32.345500 -18.736800 -7.186300
H -31.181800 -17.418500 -8.995000
C -31.151200 -18.978900 -7.679700
O -30.788700 -16.589900 -13.107300
O -30.613800 -20.049600 -7.660800
C -30.573200 -17.740800 -8.311500
H -30.492100 -17.049200 -7.636200
H -30.404000 -17.833500 -11.477300
N -29.724600 -16.321600 -13.628500
O -29.676900 -15.589800 -14.600400
N -29.572300 -17.973200 -11.306800
H -29.467100 -19.613800 -10.106200
N -29.282200 -17.972000 -8.904000
C -29.097200 -18.707700 -10.149700
C -28.575600 -17.537500 -12.073900
N -28.544100 -16.802900 -13.188400
N -28.129000 -16.802900 -7.299400
C -28.097500 -17.537500 -8.413900
C -27.575900 -18.707700 -10.338100
N -27.390900 -17.972000 -11.583800
H -27.206000 -19.613800 -10.381600
N -27.100700 -17.973200 -9.181000
O -26.996200 -15.589800 -5.887400
N -26.948400 -16.321600 -6.859300
H -26.269100 -17.833500 -9.010500
H -26.181000 -17.049200 -12.851600
C -26.099900 -17.740800 -12.176300
O -26.059200 -20.049600 -12.827000
O -25.884300 -16.589900 -7.380500
C -25.521900 -18.978900 -12.808200
H -25.491300 -17.418500 -11.492800
O -24.327600 -18.736800 -13.301500
H -24.127200 -20.219700 -14.592200
C -23.616300 -19.849000 -13.868600
H -23.482900 -20.519900 -13.195000
H -22.765000 -19.551600 -14.196400
40
Fragment
H -35.210300 -21.947400 -2.193800
H -34.492400 -20.979100 -3.195300
C -34.359000 -21.650000 -2.521600
H -33.848100 -21.279300 -1.798000
O -33.647700 -22.762200 -3.088700
H -32.484000 -24.080500 -4.897400
C -32.453400 -22.520100 -3.582100
O -32.090900 -24.909100 -9.009700
O -31.916000 -21.449400 -3.563200
C -31.875400 -23.758200 -4.213900
H -31.794300 -24.449800 -3.538700
H -31.706200 -23.665500 -7.379700
N -31.026800 -25.177400 -9.530900
O -30.979000 -25.909200 -10.502900
N -30.874500 -23.525800 -7.209300
H -30.769200 -21.885200 -6.008700
N -30.584400 -23.527000 -4.806400
C -30.399400 -22.791300 -6.052100
C -29.877800 -23.961500 -7.976300
N -29.846300 -24.696100 -9.090900
N -29.431200 -24.696100 -3.201800
C -29.399700 -23.961500 -4.316400
C -28.878000 -22.791300 -6.240600
N -28.693100 -23.527000 -7.486200
H -28.508200 -21.885200 -6.284000
N -28.402900 -23.525800 -5.083400
O -28.298400 -25.909200 -1.789800
N -28.250600 -25.177400 -2.761800
H -27.571200 -23.665500 -4.913000
H -27.483100 -24.449800 -8.754000
C -27.402000 -23.758200 -8.078800
O -27.361400 -21.449400 -8.729400
O -27.186500 -24.909100 -3.283000
C -26.824000 -22.520100 -8.710600
H -26.793400 -24.080500 -7.395300
O -25.629800 -22.762200 -9.203900
H -25.429400 -21.279300 -10.494700
C -24.918500 -21.650000 -9.771000
H -24.785100 -20.979100 -9.097400
H -24.067200 -21.947400 -10.098900
80
Fragment
H -33.908100 -19.551600 -6.291400
H -33.190200 -20.519900 -7.292800
C -33.056800 -19.849000 -6.619200
H -32.545900 -20.219700 -5.895600
O -32.345500 -18.736800 -7.186300
H -31.181800 -17.418500 -8.995000
C -31.151200 -18.978900 -7.679700
O -30.788700 -16.589900 -13.107300
O -30.613800 -20.049600 -7.660800
C -30.573200 -17.740800 -8.311500
H -30.492100 -17.049200 -7.636200
H -30.404000 -17.833500 -11.477300
N -29.724600 -16.321600 -13.628500
O -29.676900 -15.589800 -14.600400
N -29.572300 -17.973200 -11.306800
H -29.467100 -19.613800 -10.106200
N -29.282200 -17.972000 -8.904000
C -29.097200 -18.707700 -10.149700
C -28.575600 -17.537500 -12.073900
N -28.544100 -16.802900 -13.188400
N -28.129000 -16.802900 -7.299400
C -28.097500 -17.537500 -8.413900
C -27.575900 -18.707700 -10.338100
N -27.390900 -17.972000 -11.583800
H -27.206000 -19.613800 -10.381600
N -27.100700 -17.973200 -9.181000
O -26.996200 -15.589800 -5.887400
N -26.948400 -16.321600 -6.859300
H -26.269100 -17.833500 -9.010500
H -26.181000 -17.049200 -12.851600
C -26.099900 -17.740800 -12.176300
O -26.059200 -20.049600 -12.827000
O -25.884300 -16.589900 -7.380500
C -25.521900 -18.978900 -12.808200
H -25.491300 -17.418500 -11.492800
O -24.327600 -18.736800 -13.301500
H -24.127200 -20.219700 -14.592200
C -23.616300 -19.849000 -13.868600
H -23.482900 -20.519900 -13.195000
H -22.765000 -19.551600 -14.196400
H -35.210300 -21.947400 -2.193800
H -34.492400 -20.979100 -3.195300
C -34.359000 -21.650000 -2.521600
H -33.848100 -21.279300 -1.798000
O -33.647700 -22.762200 -3.088700
H -32.484000 -24.080500 -4.897400
C -32.453400 -22.520100 -3.582100
O -32.090900 -24.909100 -9.009700
O -31.916000 -21.449400 -3.563200
C -31.875400 -23.758200 -4.213900
H -31.794300 -24.449800 -3.538700
H -31.706200 -23.665500 -7.379700
N -31.026800 -25.177400 -9.530900
O -30.979000 -25.909200 -10.502900
N -30.874500 -23.525800 -7.209300
H -30.769200 -21.885200 -6.008700
N -30.584400 -23.527000 -4.806400
C -30.399400 -22.791300 -6.052100
C -29.877800 -23.961500 -7.976300
N -29.846300 -24.696100 -9.090900
N -29.431200 -24.696100 -3.201800
C -29.399700 -23.961500 -4.316400
C -28.878000 -22.791300 -6.240600
N -28.693100 -23.527000 -7.486200
H -28.508200 -21.885200 -6.284000
N -28.402900 -23.525800 -5.083400
O -28.298400 -25.909200 -1.789800
N -28.250600 -25.177400 -2.761800
H -27.571200 -23.665500 -4.913000
H -27.483100 -24.449800 -8.754000
C -27.402000 -23.758200 -8.078800
O -27.361400 -21.449400 -8.729400
O -27.186500 -24.909100 -3.283000
C -26.824000 -22.520100 -8.710600
H -26.793400 -24.080500 -7.395300
O -25.629800 -22.762200 -9.203900
H -25.429400 -21.279300 -10.494700
C -24.918500 -21.650000 -9.771000
H -24.785100 -20.979100 -9.097400
H -24.067200 -21.947400 -10.098900
