20
Fragment
O -18.135800 -11.405900 -13.311900
H -17.733000 -12.107800 -15.608800
N -16.907200 -11.359700 -13.247000
C -16.816100 -11.952000 -15.613000
N -16.427400 -12.527000 -18.032900
O -16.289400 -11.165800 -12.198700
C -16.137100 -11.542100 -14.477700
C -16.049600 -12.116400 -16.755400
H -15.947500 -13.465800 -20.403800
C -15.306200 -12.537400 -18.727000
C -15.196500 -12.919900 -20.159800
H -15.186700 -12.128100 -20.702600
C -14.752600 -11.294300 -14.435300
C -14.652500 -11.871900 -16.726900
H -14.384300 -13.412700 -20.298100
H -14.353400 -11.020200 -13.641300
N -14.219700 -12.145100 -18.002300
C -13.989200 -11.457300 -15.568800
H -13.333700 -12.240000 -18.400200
H -13.072800 -11.298700 -15.564300
20
Fragment
H -12.081500 -9.223900 -17.035400
H -11.820700 -8.282600 -14.199600
C -11.165200 -9.065300 -17.031000
N -10.934600 -8.377600 -14.597400
H -10.801000 -9.502400 -18.958500
H -10.770000 -7.109900 -12.301600
C -10.501800 -8.650700 -15.872800
C -10.401700 -9.228300 -18.164500
H -9.967700 -8.394500 -11.897200
C -9.957900 -7.602700 -12.440000
C -9.848200 -7.985200 -13.872700
H -9.206800 -7.056800 -12.196000
C -9.104800 -8.406200 -15.844400
C -9.017200 -8.980500 -18.122100
O -8.865000 -9.356800 -20.401000
N -8.727000 -7.995600 -14.566900
C -8.338200 -8.570600 -16.986800
N -8.247200 -9.162900 -19.352700
H -7.421400 -8.414800 -16.991000
O -7.018600 -9.116700 -19.287900
40
Fragment
O -18.135800 -11.405900 -13.311900
H -17.733000 -12.107800 -15.608800
N -16.907200 -11.359700 -13.247000
C -16.816100 -11.952000 -15.613000
N -16.427400 -12.527000 -18.032900
O -16.289400 -11.165800 -12.198700
C -16.137100 -11.542100 -14.477700
C -16.049600 -12.116400 -16.755400
H -15.947500 -13.465800 -20.403800
C -15.306200 -12.537400 -18.727000
C -15.196500 -12.919900 -20.159800
H -15.186700 -12.128100 -20.702600
C -14.752600 -11.294300 -14.435300
C -14.652500 -11.871900 -16.726900
H -14.384300 -13.412700 -20.298100
H -14.353400 -11.020200 -13.641300
N -14.219700 -12.145100 -18.002300
C -13.989200 -11.457300 -15.568800
H -13.333700 -12.240000 -18.400200
H -13.072800 -11.298700 -15.564300
H -12.081500 -9.223900 -17.035400
H -11.820700 -8.282600 -14.199600
C -11.165200 -9.065300 -17.031000
N -10.934600 -8.377600 -14.597400
H -10.801000 -9.502400 -18.958500
H -10.770000 -7.109900 -12.301600
C -10.501800 -8.650700 -15.872800
C -10.401700 -9.228300 -18.164500
H -9.967700 -8.394500 -11.897200
C -9.957900 -7.602700 -12.440000
C -9.848200 -7.985200 -13.872700
H -9.206800 -7.056800 -12.196000
C -9.104800 -8.406200 -15.844400
C -9.017200 -8.980500 -18.122100
O -8.865000 -9.356800 -20.401000
N -8.727000 -7.995600 -14.566900
C -8.338200 -8.570600 -16.986800
N -8.247200 -9.162900 -19.352700
H -7.421400 -8.414800 -16.991000
O -7.018600 -9.116700 -19.287900
