20
Fragment
O -18.135800 -11.405900 -13.311900
H -17.733000 -12.107800 -15.608800
N -16.907200 -11.359700 -13.247000
C -16.816100 -11.952000 -15.613000
N -16.427400 -12.527000 -18.032900
O -16.289400 -11.165800 -12.198700
C -16.137100 -11.542100 -14.477700
C -16.049600 -12.116400 -16.755400
H -15.947500 -13.465800 -20.403800
C -15.306200 -12.537400 -18.727000
C -15.196500 -12.919900 -20.159800
H -15.186700 -12.128100 -20.702600
C -14.752600 -11.294300 -14.435300
C -14.652500 -11.871900 -16.726900
H -14.384300 -13.412700 -20.298100
H -14.353400 -11.020200 -13.641300
N -14.219700 -12.145100 -18.002300
C -13.989200 -11.457300 -15.568800
H -13.333700 -12.240000 -18.400200
H -13.072800 -11.298700 -15.564300
6
Fragment
H -17.839000 -15.529800 -11.992500
H -17.618900 -14.428000 -13.724000
H -17.151600 -14.226700 -11.456600
C -17.054100 -14.979500 -12.044100
O -16.885100 -14.523400 -13.370600
H -16.285900 -15.492600 -11.782000
26
Fragment
O -18.135800 -11.405900 -13.311900
H -17.733000 -12.107800 -15.608800
N -16.907200 -11.359700 -13.247000
C -16.816100 -11.952000 -15.613000
N -16.427400 -12.527000 -18.032900
O -16.289400 -11.165800 -12.198700
C -16.137100 -11.542100 -14.477700
C -16.049600 -12.116400 -16.755400
H -15.947500 -13.465800 -20.403800
C -15.306200 -12.537400 -18.727000
C -15.196500 -12.919900 -20.159800
H -15.186700 -12.128100 -20.702600
C -14.752600 -11.294300 -14.435300
C -14.652500 -11.871900 -16.726900
H -14.384300 -13.412700 -20.298100
H -14.353400 -11.020200 -13.641300
N -14.219700 -12.145100 -18.002300
C -13.989200 -11.457300 -15.568800
H -13.333700 -12.240000 -18.400200
H -13.072800 -11.298700 -15.564300
H -17.839000 -15.529800 -11.992500
H -17.618900 -14.428000 -13.724000
H -17.151600 -14.226700 -11.456600
C -17.054100 -14.979500 -12.044100
O -16.885100 -14.523400 -13.370600
H -16.285900 -15.492600 -11.782000
