28
Fragment
H -5.240500 -46.262100 -11.384000
C -4.279800 -46.449900 -11.746600
H -4.254700 -48.554500 -12.253200
H -4.130900 -43.714900 -11.334600
N -3.838200 -47.675700 -12.155000
C -3.276800 -45.593400 -11.978300
C -3.216400 -44.103400 -11.716900
H -3.061900 -43.714900 -12.620700
C -2.613000 -47.503800 -12.610800
H -2.447500 -41.772800 -10.953000
H -2.318200 -44.192500 -9.836500
N -2.209000 -46.246100 -12.525300
C -2.103000 -43.788200 -10.744500
H -2.007900 -39.130100 -10.613800
H -1.989000 -48.204200 -12.952800
N -1.935400 -42.339500 -10.581300
N -1.324100 -39.289300 -9.994800
H -1.193900 -44.192500 -10.945900
C -0.958300 -41.814200 -9.809600
H -0.847600 -37.410800 -9.659800
C -0.732800 -40.461000 -9.595500
C -0.585600 -38.302300 -9.459900
N -0.113500 -42.686500 -9.207600
C 0.328800 -40.072600 -8.832400
N 0.421300 -38.706700 -8.700200
C 0.904800 -42.199400 -8.459200
N 1.252000 -40.935400 -8.454300
H 1.442500 -42.919000 -7.879100
28
Fragment
H -10.747500 -46.262100 -11.384000
C -9.786800 -46.449900 -11.746600
H -9.761700 -48.554500 -12.253200
H -9.637900 -43.714900 -11.334600
N -9.345200 -47.675700 -12.155000
C -8.783800 -45.593400 -11.978300
C -8.723400 -44.103400 -11.716900
H -8.568900 -43.714900 -12.620700
C -8.120000 -47.503800 -12.610800
H -7.954500 -41.772800 -10.953000
H -7.825200 -44.192500 -9.836500
N -7.716000 -46.246100 -12.525300
C -7.610000 -43.788200 -10.744500
H -7.514900 -39.130100 -10.613800
H -7.496000 -48.204200 -12.952800
N -7.442400 -42.339500 -10.581300
N -6.831100 -39.289300 -9.994800
H -6.700900 -44.192500 -10.945900
C -6.465300 -41.814200 -9.809600
H -6.354600 -37.410800 -9.659800
C -6.239800 -40.461000 -9.595500
C -6.092600 -38.302300 -9.459900
N -5.620500 -42.686500 -9.207600
C -5.178200 -40.072600 -8.832400
N -5.085700 -38.706700 -8.700200
C -4.602200 -42.199400 -8.459200
N -4.255000 -40.935400 -8.454300
H -4.064500 -42.919000 -7.879100
56
Fragment
H -5.240500 -46.262100 -11.384000
C -4.279800 -46.449900 -11.746600
H -4.254700 -48.554500 -12.253200
H -4.130900 -43.714900 -11.334600
N -3.838200 -47.675700 -12.155000
C -3.276800 -45.593400 -11.978300
C -3.216400 -44.103400 -11.716900
H -3.061900 -43.714900 -12.620700
C -2.613000 -47.503800 -12.610800
H -2.447500 -41.772800 -10.953000
H -2.318200 -44.192500 -9.836500
N -2.209000 -46.246100 -12.525300
C -2.103000 -43.788200 -10.744500
H -2.007900 -39.130100 -10.613800
H -1.989000 -48.204200 -12.952800
N -1.935400 -42.339500 -10.581300
N -1.324100 -39.289300 -9.994800
H -1.193900 -44.192500 -10.945900
C -0.958300 -41.814200 -9.809600
H -0.847600 -37.410800 -9.659800
C -0.732800 -40.461000 -9.595500
C -0.585600 -38.302300 -9.459900
N -0.113500 -42.686500 -9.207600
C 0.328800 -40.072600 -8.832400
N 0.421300 -38.706700 -8.700200
C 0.904800 -42.199400 -8.459200
N 1.252000 -40.935400 -8.454300
H 1.442500 -42.919000 -7.879100
H -10.747500 -46.262100 -11.384000
C -9.786800 -46.449900 -11.746600
H -9.761700 -48.554500 -12.253200
H -9.637900 -43.714900 -11.334600
N -9.345200 -47.675700 -12.155000
C -8.783800 -45.593400 -11.978300
C -8.723400 -44.103400 -11.716900
H -8.568900 -43.714900 -12.620700
C -8.120000 -47.503800 -12.610800
H -7.954500 -41.772800 -10.953000
H -7.825200 -44.192500 -9.836500
N -7.716000 -46.246100 -12.525300
C -7.610000 -43.788200 -10.744500
H -7.514900 -39.130100 -10.613800
H -7.496000 -48.204200 -12.952800
N -7.442400 -42.339500 -10.581300
N -6.831100 -39.289300 -9.994800
H -6.700900 -44.192500 -10.945900
C -6.465300 -41.814200 -9.809600
H -6.354600 -37.410800 -9.659800
C -6.239800 -40.461000 -9.595500
C -6.092600 -38.302300 -9.459900
N -5.620500 -42.686500 -9.207600
C -5.178200 -40.072600 -8.832400
N -5.085700 -38.706700 -8.700200
C -4.602200 -42.199400 -8.459200
N -4.255000 -40.935400 -8.454300
H -4.064500 -42.919000 -7.879100
