28
Fragment
H -5.240500 -46.262100 -11.384000
C -4.279800 -46.449900 -11.746600
H -4.254700 -48.554500 -12.253200
H -4.130900 -43.714900 -11.334600
N -3.838200 -47.675700 -12.155000
C -3.276800 -45.593400 -11.978300
C -3.216400 -44.103400 -11.716900
H -3.061900 -43.714900 -12.620700
C -2.613000 -47.503800 -12.610800
H -2.447500 -41.772800 -10.953000
H -2.318200 -44.192500 -9.836500
N -2.209000 -46.246100 -12.525300
C -2.103000 -43.788200 -10.744500
H -2.007900 -39.130100 -10.613800
H -1.989000 -48.204200 -12.952800
N -1.935400 -42.339500 -10.581300
N -1.324100 -39.289300 -9.994800
H -1.193900 -44.192500 -10.945900
C -0.958300 -41.814200 -9.809600
H -0.847600 -37.410800 -9.659800
C -0.732800 -40.461000 -9.595500
C -0.585600 -38.302300 -9.459900
N -0.113500 -42.686500 -9.207600
C 0.328800 -40.072600 -8.832400
N 0.421300 -38.706700 -8.700200
C 0.904800 -42.199400 -8.459200
N 1.252000 -40.935400 -8.454300
H 1.442500 -42.919000 -7.879100
28
Fragment
H -6.545500 -52.598000 -13.320300
N -6.355100 -54.581600 -12.745000
C -6.007800 -53.317600 -12.740100
N -5.524300 -56.810300 -12.499100
C -5.431800 -55.444400 -12.367000
N -4.989500 -52.830500 -11.991800
C -4.517400 -57.214700 -11.739500
C -4.370200 -55.056000 -11.603800
H -4.255500 -58.106200 -11.539500
C -4.144700 -53.702800 -11.389700
H -3.909200 -51.324500 -10.253400
N -3.778900 -56.227700 -11.204600
N -3.167600 -53.177500 -10.618000
H -3.114000 -47.312800 -8.246500
H -3.095100 -56.386900 -10.585500
C -3.000000 -51.728800 -10.454800
N -2.894000 -49.270900 -8.674100
H -2.784800 -51.324500 -11.362800
H -2.655500 -53.744200 -10.246400
C -2.490000 -48.013200 -8.588600
H -2.041200 -51.802100 -8.578700
C -1.886600 -51.413600 -9.482500
C -1.826300 -49.923600 -9.221000
N -1.264800 -47.841300 -9.044300
H -0.972200 -51.802100 -9.864800
H -0.848300 -46.962500 -8.946100
C -0.823200 -49.067100 -9.452800
H 0.137500 -49.254900 -9.815300
56
Fragment
H -5.240500 -46.262100 -11.384000
C -4.279800 -46.449900 -11.746600
H -4.254700 -48.554500 -12.253200
H -4.130900 -43.714900 -11.334600
N -3.838200 -47.675700 -12.155000
C -3.276800 -45.593400 -11.978300
C -3.216400 -44.103400 -11.716900
H -3.061900 -43.714900 -12.620700
C -2.613000 -47.503800 -12.610800
H -2.447500 -41.772800 -10.953000
H -2.318200 -44.192500 -9.836500
N -2.209000 -46.246100 -12.525300
C -2.103000 -43.788200 -10.744500
H -2.007900 -39.130100 -10.613800
H -1.989000 -48.204200 -12.952800
N -1.935400 -42.339500 -10.581300
N -1.324100 -39.289300 -9.994800
H -1.193900 -44.192500 -10.945900
C -0.958300 -41.814200 -9.809600
H -0.847600 -37.410800 -9.659800
C -0.732800 -40.461000 -9.595500
C -0.585600 -38.302300 -9.459900
N -0.113500 -42.686500 -9.207600
C 0.328800 -40.072600 -8.832400
N 0.421300 -38.706700 -8.700200
C 0.904800 -42.199400 -8.459200
N 1.252000 -40.935400 -8.454300
H 1.442500 -42.919000 -7.879100
H -6.545500 -52.598000 -13.320300
N -6.355100 -54.581600 -12.745000
C -6.007800 -53.317600 -12.740100
N -5.524300 -56.810300 -12.499100
C -5.431800 -55.444400 -12.367000
N -4.989500 -52.830500 -11.991800
C -4.517400 -57.214700 -11.739500
C -4.370200 -55.056000 -11.603800
H -4.255500 -58.106200 -11.539500
C -4.144700 -53.702800 -11.389700
H -3.909200 -51.324500 -10.253400
N -3.778900 -56.227700 -11.204600
N -3.167600 -53.177500 -10.618000
H -3.114000 -47.312800 -8.246500
H -3.095100 -56.386900 -10.585500
C -3.000000 -51.728800 -10.454800
N -2.894000 -49.270900 -8.674100
H -2.784800 -51.324500 -11.362800
H -2.655500 -53.744200 -10.246400
C -2.490000 -48.013200 -8.588600
H -2.041200 -51.802100 -8.578700
C -1.886600 -51.413600 -9.482500
C -1.826300 -49.923600 -9.221000
N -1.264800 -47.841300 -9.044300
H -0.972200 -51.802100 -9.864800
H -0.848300 -46.962500 -8.946100
C -0.823200 -49.067100 -9.452800
H 0.137500 -49.254900 -9.815300
