28
Fragment
H -5.240500 -46.262100 -11.384000
C -4.279800 -46.449900 -11.746600
H -4.254700 -48.554500 -12.253200
H -4.130900 -43.714900 -11.334600
N -3.838200 -47.675700 -12.155000
C -3.276800 -45.593400 -11.978300
C -3.216400 -44.103400 -11.716900
H -3.061900 -43.714900 -12.620700
C -2.613000 -47.503800 -12.610800
H -2.447500 -41.772800 -10.953000
H -2.318200 -44.192500 -9.836500
N -2.209000 -46.246100 -12.525300
C -2.103000 -43.788200 -10.744500
H -2.007900 -39.130100 -10.613800
H -1.989000 -48.204200 -12.952800
N -1.935400 -42.339500 -10.581300
N -1.324100 -39.289300 -9.994800
H -1.193900 -44.192500 -10.945900
C -0.958300 -41.814200 -9.809600
H -0.847600 -37.410800 -9.659800
C -0.732800 -40.461000 -9.595500
C -0.585600 -38.302300 -9.459900
N -0.113500 -42.686500 -9.207600
C 0.328800 -40.072600 -8.832400
N 0.421300 -38.706700 -8.700200
C 0.904800 -42.199400 -8.459200
N 1.252000 -40.935400 -8.454300
H 1.442500 -42.919000 -7.879100
28
Fragment
H -0.718700 -33.335400 -7.850800
C 0.242100 -33.147600 -8.213300
H 0.267100 -31.043000 -8.720000
H 0.391000 -35.882600 -7.801400
N 0.683600 -31.921800 -8.621800
C 1.245100 -34.004100 -8.445100
C 1.305400 -35.494100 -8.183700
H 1.460000 -35.882600 -9.087500
C 1.908800 -32.093700 -9.077600
H 2.074400 -37.824700 -7.419800
H 2.203600 -35.405000 -6.303300
N 2.312800 -33.351400 -8.992100
C 2.418800 -35.809300 -7.211300
H 2.514000 -40.467400 -7.080600
H 2.532800 -31.393300 -9.419600
N 2.586400 -37.258000 -7.048100
N 3.197700 -40.308200 -6.461600
H 3.328000 -35.405000 -7.412700
C 3.563500 -37.783300 -6.276400
H 3.674300 -42.186700 -6.126600
C 3.789100 -39.136500 -6.062300
C 3.936300 -41.295200 -5.926600
N 4.408400 -36.911000 -5.674400
C 4.850600 -39.524900 -5.299100
N 4.943200 -40.890800 -5.167000
C 5.426700 -37.398100 -4.926000
N 5.773900 -38.662100 -4.921100
H 5.964300 -36.678500 -4.345900
56
Fragment
H -5.240500 -46.262100 -11.384000
C -4.279800 -46.449900 -11.746600
H -4.254700 -48.554500 -12.253200
H -4.130900 -43.714900 -11.334600
N -3.838200 -47.675700 -12.155000
C -3.276800 -45.593400 -11.978300
C -3.216400 -44.103400 -11.716900
H -3.061900 -43.714900 -12.620700
C -2.613000 -47.503800 -12.610800
H -2.447500 -41.772800 -10.953000
H -2.318200 -44.192500 -9.836500
N -2.209000 -46.246100 -12.525300
C -2.103000 -43.788200 -10.744500
H -2.007900 -39.130100 -10.613800
H -1.989000 -48.204200 -12.952800
N -1.935400 -42.339500 -10.581300
N -1.324100 -39.289300 -9.994800
H -1.193900 -44.192500 -10.945900
C -0.958300 -41.814200 -9.809600
H -0.847600 -37.410800 -9.659800
C -0.732800 -40.461000 -9.595500
C -0.585600 -38.302300 -9.459900
N -0.113500 -42.686500 -9.207600
C 0.328800 -40.072600 -8.832400
N 0.421300 -38.706700 -8.700200
C 0.904800 -42.199400 -8.459200
N 1.252000 -40.935400 -8.454300
H 1.442500 -42.919000 -7.879100
H -0.718700 -33.335400 -7.850800
C 0.242100 -33.147600 -8.213300
H 0.267100 -31.043000 -8.720000
H 0.391000 -35.882600 -7.801400
N 0.683600 -31.921800 -8.621800
C 1.245100 -34.004100 -8.445100
C 1.305400 -35.494100 -8.183700
H 1.460000 -35.882600 -9.087500
C 1.908800 -32.093700 -9.077600
H 2.074400 -37.824700 -7.419800
H 2.203600 -35.405000 -6.303300
N 2.312800 -33.351400 -8.992100
C 2.418800 -35.809300 -7.211300
H 2.514000 -40.467400 -7.080600
H 2.532800 -31.393300 -9.419600
N 2.586400 -37.258000 -7.048100
N 3.197700 -40.308200 -6.461600
H 3.328000 -35.405000 -7.412700
C 3.563500 -37.783300 -6.276400
H 3.674300 -42.186700 -6.126600
C 3.789100 -39.136500 -6.062300
C 3.936300 -41.295200 -5.926600
N 4.408400 -36.911000 -5.674400
C 4.850600 -39.524900 -5.299100
N 4.943200 -40.890800 -5.167000
C 5.426700 -37.398100 -4.926000
N 5.773900 -38.662100 -4.921100
H 5.964300 -36.678500 -4.345900
