36
Fragment
O -15.747700 -15.557200 -21.344200
O -15.410400 -12.264800 -21.337400
N -14.802900 -15.930400 -20.670800
O -14.801500 -16.763200 -19.790300
N -14.459000 -12.232300 -20.572900
H -14.373500 -14.100700 -22.278000
O -14.304900 -11.477500 -19.622400
C -13.542000 -14.154200 -21.820900
N -13.520900 -15.383300 -21.013500
N -13.395300 -13.090400 -20.843900
H -13.015200 -15.470800 -19.067600
H -12.904000 -13.290000 -18.891600
C -12.641900 -15.129700 -19.854400
H -12.583800 -14.055000 -23.649700
O -12.578800 -16.595900 -23.876800
C -12.546900 -13.556500 -19.750300
C -12.249800 -14.169600 -22.754700
N -11.757400 -16.571500 -22.965800
O -11.603000 -17.170600 -18.511900
N -11.397100 -15.334200 -22.507000
O -11.361000 -11.604600 -18.399800
N -11.338200 -13.111800 -22.350400
N -11.330000 -15.657800 -20.108400
O -11.209100 -12.393300 -24.467600
O -11.198800 -17.537000 -22.457300
N -11.160300 -13.185300 -19.955500
N -10.892900 -16.782000 -19.417500
N -10.727800 -11.994800 -19.361700
N -10.641900 -12.448400 -23.392600
C -10.628100 -15.175700 -21.278500
C -10.539100 -13.597000 -21.206000
O -9.815000 -17.254100 -19.755500
H -9.772500 -15.658000 -21.313400
O -9.719300 -11.482600 -19.828600
H -9.640200 -13.347100 -21.315800
O -9.573600 -11.942900 -23.092700
36
Fragment
O -7.479800 -15.557200 -21.344200
O -7.142500 -12.264800 -21.337400
N -6.535000 -15.930400 -20.670800
O -6.533600 -16.763200 -19.790300
N -6.191100 -12.232300 -20.572900
H -6.105500 -14.100700 -22.278000
O -6.037000 -11.477500 -19.622400
C -5.274100 -14.154200 -21.820900
N -5.252900 -15.383300 -21.013500
N -5.127400 -13.090400 -20.843900
H -4.747300 -15.470800 -19.067600
H -4.636000 -13.290000 -18.891600
C -4.374000 -15.129700 -19.854400
H -4.315900 -14.055000 -23.649700
O -4.310900 -16.595900 -23.876800
C -4.279000 -13.556500 -19.750300
C -3.981900 -14.169600 -22.754700
N -3.489400 -16.571500 -22.965800
O -3.335100 -17.170600 -18.511900
N -3.129200 -15.334200 -22.507000
O -3.093100 -11.604600 -18.399800
N -3.070300 -13.111800 -22.350400
N -3.062100 -15.657800 -20.108400
O -2.941200 -12.393300 -24.467600
O -2.930900 -17.537000 -22.457300
N -2.892400 -13.185300 -19.955500
N -2.625000 -16.782000 -19.417500
N -2.459900 -11.994800 -19.361700
N -2.373900 -12.448400 -23.392600
C -2.360200 -15.175700 -21.278500
C -2.271200 -13.597000 -21.206000
O -1.547100 -17.254100 -19.755500
H -1.504600 -15.658000 -21.313400
O -1.451400 -11.482600 -19.828600
H -1.372300 -13.347100 -21.315800
O -1.305700 -11.942900 -23.092700
72
Fragment
O -15.747700 -15.557200 -21.344200
O -15.410400 -12.264800 -21.337400
N -14.802900 -15.930400 -20.670800
O -14.801500 -16.763200 -19.790300
N -14.459000 -12.232300 -20.572900
H -14.373500 -14.100700 -22.278000
O -14.304900 -11.477500 -19.622400
C -13.542000 -14.154200 -21.820900
N -13.520900 -15.383300 -21.013500
N -13.395300 -13.090400 -20.843900
H -13.015200 -15.470800 -19.067600
H -12.904000 -13.290000 -18.891600
C -12.641900 -15.129700 -19.854400
H -12.583800 -14.055000 -23.649700
O -12.578800 -16.595900 -23.876800
C -12.546900 -13.556500 -19.750300
C -12.249800 -14.169600 -22.754700
N -11.757400 -16.571500 -22.965800
O -11.603000 -17.170600 -18.511900
N -11.397100 -15.334200 -22.507000
O -11.361000 -11.604600 -18.399800
N -11.338200 -13.111800 -22.350400
N -11.330000 -15.657800 -20.108400
O -11.209100 -12.393300 -24.467600
O -11.198800 -17.537000 -22.457300
N -11.160300 -13.185300 -19.955500
N -10.892900 -16.782000 -19.417500
N -10.727800 -11.994800 -19.361700
N -10.641900 -12.448400 -23.392600
C -10.628100 -15.175700 -21.278500
C -10.539100 -13.597000 -21.206000
O -9.815000 -17.254100 -19.755500
H -9.772500 -15.658000 -21.313400
O -9.719300 -11.482600 -19.828600
H -9.640200 -13.347100 -21.315800
O -9.573600 -11.942900 -23.092700
O -7.479800 -15.557200 -21.344200
O -7.142500 -12.264800 -21.337400
N -6.535000 -15.930400 -20.670800
O -6.533600 -16.763200 -19.790300
N -6.191100 -12.232300 -20.572900
H -6.105500 -14.100700 -22.278000
O -6.037000 -11.477500 -19.622400
C -5.274100 -14.154200 -21.820900
N -5.252900 -15.383300 -21.013500
N -5.127400 -13.090400 -20.843900
H -4.747300 -15.470800 -19.067600
H -4.636000 -13.290000 -18.891600
C -4.374000 -15.129700 -19.854400
H -4.315900 -14.055000 -23.649700
O -4.310900 -16.595900 -23.876800
C -4.279000 -13.556500 -19.750300
C -3.981900 -14.169600 -22.754700
N -3.489400 -16.571500 -22.965800
O -3.335100 -17.170600 -18.511900
N -3.129200 -15.334200 -22.507000
O -3.093100 -11.604600 -18.399800
N -3.070300 -13.111800 -22.350400
N -3.062100 -15.657800 -20.108400
O -2.941200 -12.393300 -24.467600
O -2.930900 -17.537000 -22.457300
N -2.892400 -13.185300 -19.955500
N -2.625000 -16.782000 -19.417500
N -2.459900 -11.994800 -19.361700
N -2.373900 -12.448400 -23.392600
C -2.360200 -15.175700 -21.278500
C -2.271200 -13.597000 -21.206000
O -1.547100 -17.254100 -19.755500
H -1.504600 -15.658000 -21.313400
O -1.451400 -11.482600 -19.828600
H -1.372300 -13.347100 -21.315800
O -1.305700 -11.942900 -23.092700
