36
Fragment
O -15.747700 -15.557200 -21.344200
O -15.410400 -12.264800 -21.337400
N -14.802900 -15.930400 -20.670800
O -14.801500 -16.763200 -19.790300
N -14.459000 -12.232300 -20.572900
H -14.373500 -14.100700 -22.278000
O -14.304900 -11.477500 -19.622400
C -13.542000 -14.154200 -21.820900
N -13.520900 -15.383300 -21.013500
N -13.395300 -13.090400 -20.843900
H -13.015200 -15.470800 -19.067600
H -12.904000 -13.290000 -18.891600
C -12.641900 -15.129700 -19.854400
H -12.583800 -14.055000 -23.649700
O -12.578800 -16.595900 -23.876800
C -12.546900 -13.556500 -19.750300
C -12.249800 -14.169600 -22.754700
N -11.757400 -16.571500 -22.965800
O -11.603000 -17.170600 -18.511900
N -11.397100 -15.334200 -22.507000
O -11.361000 -11.604600 -18.399800
N -11.338200 -13.111800 -22.350400
N -11.330000 -15.657800 -20.108400
O -11.209100 -12.393300 -24.467600
O -11.198800 -17.537000 -22.457300
N -11.160300 -13.185300 -19.955500
N -10.892900 -16.782000 -19.417500
N -10.727800 -11.994800 -19.361700
N -10.641900 -12.448400 -23.392600
C -10.628100 -15.175700 -21.278500
C -10.539100 -13.597000 -21.206000
O -9.815000 -17.254100 -19.755500
H -9.772500 -15.658000 -21.313400
O -9.719300 -11.482600 -19.828600
H -9.640200 -13.347100 -21.315800
O -9.573600 -11.942900 -23.092700
36
Fragment
O -16.231100 -17.651600 -23.842900
H -16.164400 -19.055900 -25.619800
O -16.085400 -17.191400 -27.106900
H -16.032200 -21.366800 -25.622100
O -15.989700 -22.962800 -27.180000
C -15.265600 -19.305800 -25.729600
C -15.176600 -20.884500 -25.657100
N -15.162800 -18.157200 -23.543000
N -15.076900 -17.703600 -27.573800
N -14.911700 -22.490700 -27.518100
N -14.644400 -18.894100 -26.980100
O -14.605800 -23.245800 -24.478300
O -14.595500 -18.102100 -22.467900
N -14.474700 -21.366600 -26.827200
N -14.466500 -18.820600 -24.585200
O -14.443700 -17.313300 -28.535800
N -14.407600 -21.043000 -24.428600
O -14.201700 -22.879400 -28.423700
N -14.047300 -22.280300 -23.969800
C -13.554800 -19.878400 -24.180900
C -13.257800 -19.265300 -27.185300
O -13.225900 -22.304600 -23.058700
H -13.220900 -19.763800 -23.285900
C -13.162800 -20.838500 -27.081100
H -12.900700 -18.998800 -28.044000
H -12.789500 -21.179500 -27.868000
N -12.409400 -18.799200 -26.091700
N -12.283800 -21.092100 -25.922000
C -12.262600 -19.863000 -25.114600
O -11.499800 -17.186300 -27.313200
H -11.431200 -19.809400 -24.657600
N -11.345700 -17.941100 -26.362700
O -11.003200 -22.472000 -27.145300
N -11.001700 -21.639200 -26.264800
O -10.394300 -17.973600 -25.598200
O -10.057000 -21.266000 -25.591400
72
Fragment
O -15.747700 -15.557200 -21.344200
O -15.410400 -12.264800 -21.337400
N -14.802900 -15.930400 -20.670800
O -14.801500 -16.763200 -19.790300
N -14.459000 -12.232300 -20.572900
H -14.373500 -14.100700 -22.278000
O -14.304900 -11.477500 -19.622400
C -13.542000 -14.154200 -21.820900
N -13.520900 -15.383300 -21.013500
N -13.395300 -13.090400 -20.843900
H -13.015200 -15.470800 -19.067600
H -12.904000 -13.290000 -18.891600
C -12.641900 -15.129700 -19.854400
H -12.583800 -14.055000 -23.649700
O -12.578800 -16.595900 -23.876800
C -12.546900 -13.556500 -19.750300
C -12.249800 -14.169600 -22.754700
N -11.757400 -16.571500 -22.965800
O -11.603000 -17.170600 -18.511900
N -11.397100 -15.334200 -22.507000
O -11.361000 -11.604600 -18.399800
N -11.338200 -13.111800 -22.350400
N -11.330000 -15.657800 -20.108400
O -11.209100 -12.393300 -24.467600
O -11.198800 -17.537000 -22.457300
N -11.160300 -13.185300 -19.955500
N -10.892900 -16.782000 -19.417500
N -10.727800 -11.994800 -19.361700
N -10.641900 -12.448400 -23.392600
C -10.628100 -15.175700 -21.278500
C -10.539100 -13.597000 -21.206000
O -9.815000 -17.254100 -19.755500
H -9.772500 -15.658000 -21.313400
O -9.719300 -11.482600 -19.828600
H -9.640200 -13.347100 -21.315800
O -9.573600 -11.942900 -23.092700
O -16.231100 -17.651600 -23.842900
H -16.164400 -19.055900 -25.619800
O -16.085400 -17.191400 -27.106900
H -16.032200 -21.366800 -25.622100
O -15.989700 -22.962800 -27.180000
C -15.265600 -19.305800 -25.729600
C -15.176600 -20.884500 -25.657100
N -15.162800 -18.157200 -23.543000
N -15.076900 -17.703600 -27.573800
N -14.911700 -22.490700 -27.518100
N -14.644400 -18.894100 -26.980100
O -14.605800 -23.245800 -24.478300
O -14.595500 -18.102100 -22.467900
N -14.474700 -21.366600 -26.827200
N -14.466500 -18.820600 -24.585200
O -14.443700 -17.313300 -28.535800
N -14.407600 -21.043000 -24.428600
O -14.201700 -22.879400 -28.423700
N -14.047300 -22.280300 -23.969800
C -13.554800 -19.878400 -24.180900
C -13.257800 -19.265300 -27.185300
O -13.225900 -22.304600 -23.058700
H -13.220900 -19.763800 -23.285900
C -13.162800 -20.838500 -27.081100
H -12.900700 -18.998800 -28.044000
H -12.789500 -21.179500 -27.868000
N -12.409400 -18.799200 -26.091700
N -12.283800 -21.092100 -25.922000
C -12.262600 -19.863000 -25.114600
O -11.499800 -17.186300 -27.313200
H -11.431200 -19.809400 -24.657600
N -11.345700 -17.941100 -26.362700
O -11.003200 -22.472000 -27.145300
N -11.001700 -21.639200 -26.264800
O -10.394300 -17.973600 -25.598200
O -10.057000 -21.266000 -25.591400
