36
Fragment
O -15.747700 -15.557200 -21.344200
O -15.410400 -12.264800 -21.337400
N -14.802900 -15.930400 -20.670800
O -14.801500 -16.763200 -19.790300
N -14.459000 -12.232300 -20.572900
H -14.373500 -14.100700 -22.278000
O -14.304900 -11.477500 -19.622400
C -13.542000 -14.154200 -21.820900
N -13.520900 -15.383300 -21.013500
N -13.395300 -13.090400 -20.843900
H -13.015200 -15.470800 -19.067600
H -12.904000 -13.290000 -18.891600
C -12.641900 -15.129700 -19.854400
H -12.583800 -14.055000 -23.649700
O -12.578800 -16.595900 -23.876800
C -12.546900 -13.556500 -19.750300
C -12.249800 -14.169600 -22.754700
N -11.757400 -16.571500 -22.965800
O -11.603000 -17.170600 -18.511900
N -11.397100 -15.334200 -22.507000
O -11.361000 -11.604600 -18.399800
N -11.338200 -13.111800 -22.350400
N -11.330000 -15.657800 -20.108400
O -11.209100 -12.393300 -24.467600
O -11.198800 -17.537000 -22.457300
N -11.160300 -13.185300 -19.955500
N -10.892900 -16.782000 -19.417500
N -10.727800 -11.994800 -19.361700
N -10.641900 -12.448400 -23.392600
C -10.628100 -15.175700 -21.278500
C -10.539100 -13.597000 -21.206000
O -9.815000 -17.254100 -19.755500
H -9.772500 -15.658000 -21.313400
O -9.719300 -11.482600 -19.828600
H -9.640200 -13.347100 -21.315800
O -9.573600 -11.942900 -23.092700
17
Fragment
H -18.279700 -14.934100 -15.477000
N -17.686100 -14.469200 -17.752600
N -17.630000 -14.849300 -13.136800
N -17.543000 -14.656700 -15.446100
C -16.951400 -14.506100 -16.665900
C -16.919700 -14.685600 -14.226800
O -16.780300 -14.290200 -18.798800
O -16.703600 -14.819200 -12.098700
C -15.572100 -14.364300 -17.032000
C -15.536900 -14.564700 -13.871200
N -15.490700 -14.229800 -18.331000
N -15.435600 -14.648500 -12.566800
C -14.403300 -14.367800 -16.169500
C -14.390500 -14.427400 -14.747300
N -13.174100 -14.296700 -16.612100
N -13.146600 -14.372300 -14.334600
O -12.384400 -14.289400 -15.480500
53
Fragment
O -15.747700 -15.557200 -21.344200
O -15.410400 -12.264800 -21.337400
N -14.802900 -15.930400 -20.670800
O -14.801500 -16.763200 -19.790300
N -14.459000 -12.232300 -20.572900
H -14.373500 -14.100700 -22.278000
O -14.304900 -11.477500 -19.622400
C -13.542000 -14.154200 -21.820900
N -13.520900 -15.383300 -21.013500
N -13.395300 -13.090400 -20.843900
H -13.015200 -15.470800 -19.067600
H -12.904000 -13.290000 -18.891600
C -12.641900 -15.129700 -19.854400
H -12.583800 -14.055000 -23.649700
O -12.578800 -16.595900 -23.876800
C -12.546900 -13.556500 -19.750300
C -12.249800 -14.169600 -22.754700
N -11.757400 -16.571500 -22.965800
O -11.603000 -17.170600 -18.511900
N -11.397100 -15.334200 -22.507000
O -11.361000 -11.604600 -18.399800
N -11.338200 -13.111800 -22.350400
N -11.330000 -15.657800 -20.108400
O -11.209100 -12.393300 -24.467600
O -11.198800 -17.537000 -22.457300
N -11.160300 -13.185300 -19.955500
N -10.892900 -16.782000 -19.417500
N -10.727800 -11.994800 -19.361700
N -10.641900 -12.448400 -23.392600
C -10.628100 -15.175700 -21.278500
C -10.539100 -13.597000 -21.206000
O -9.815000 -17.254100 -19.755500
H -9.772500 -15.658000 -21.313400
O -9.719300 -11.482600 -19.828600
H -9.640200 -13.347100 -21.315800
O -9.573600 -11.942900 -23.092700
H -18.279700 -14.934100 -15.477000
N -17.686100 -14.469200 -17.752600
N -17.630000 -14.849300 -13.136800
N -17.543000 -14.656700 -15.446100
C -16.951400 -14.506100 -16.665900
C -16.919700 -14.685600 -14.226800
O -16.780300 -14.290200 -18.798800
O -16.703600 -14.819200 -12.098700
C -15.572100 -14.364300 -17.032000
C -15.536900 -14.564700 -13.871200
N -15.490700 -14.229800 -18.331000
N -15.435600 -14.648500 -12.566800
C -14.403300 -14.367800 -16.169500
C -14.390500 -14.427400 -14.747300
N -13.174100 -14.296700 -16.612100
N -13.146600 -14.372300 -14.334600
O -12.384400 -14.289400 -15.480500
