36
Fragment
O -15.747700 -15.557200 -21.344200
O -15.410400 -12.264800 -21.337400
N -14.802900 -15.930400 -20.670800
O -14.801500 -16.763200 -19.790300
N -14.459000 -12.232300 -20.572900
H -14.373500 -14.100700 -22.278000
O -14.304900 -11.477500 -19.622400
C -13.542000 -14.154200 -21.820900
N -13.520900 -15.383300 -21.013500
N -13.395300 -13.090400 -20.843900
H -13.015200 -15.470800 -19.067600
H -12.904000 -13.290000 -18.891600
C -12.641900 -15.129700 -19.854400
H -12.583800 -14.055000 -23.649700
O -12.578800 -16.595900 -23.876800
C -12.546900 -13.556500 -19.750300
C -12.249800 -14.169600 -22.754700
N -11.757400 -16.571500 -22.965800
O -11.603000 -17.170600 -18.511900
N -11.397100 -15.334200 -22.507000
O -11.361000 -11.604600 -18.399800
N -11.338200 -13.111800 -22.350400
N -11.330000 -15.657800 -20.108400
O -11.209100 -12.393300 -24.467600
O -11.198800 -17.537000 -22.457300
N -11.160300 -13.185300 -19.955500
N -10.892900 -16.782000 -19.417500
N -10.727800 -11.994800 -19.361700
N -10.641900 -12.448400 -23.392600
C -10.628100 -15.175700 -21.278500
C -10.539100 -13.597000 -21.206000
O -9.815000 -17.254100 -19.755500
H -9.772500 -15.658000 -21.313400
O -9.719300 -11.482600 -19.828600
H -9.640200 -13.347100 -21.315800
O -9.573600 -11.942900 -23.092700
36
Fragment
O -24.015600 -15.557200 -21.344200
O -23.678300 -12.264800 -21.337400
N -23.070800 -15.930400 -20.670800
O -23.069400 -16.763200 -19.790300
N -22.726900 -12.232300 -20.572900
H -22.641400 -14.100700 -22.278000
O -22.572800 -11.477500 -19.622400
C -21.810000 -14.154200 -21.820900
N -21.788800 -15.383300 -21.013500
N -21.663200 -13.090400 -20.843900
H -21.283100 -15.470800 -19.067600
H -21.171900 -13.290000 -18.891600
C -20.909800 -15.129700 -19.854400
H -20.851700 -14.055000 -23.649700
O -20.846700 -16.595900 -23.876800
C -20.814800 -13.556500 -19.750300
C -20.517700 -14.169600 -22.754700
N -20.025300 -16.571500 -22.965800
O -19.870900 -17.170600 -18.511900
N -19.665000 -15.334200 -22.507000
O -19.628900 -11.604600 -18.399800
N -19.606100 -13.111800 -22.350400
N -19.597900 -15.657800 -20.108400
O -19.477100 -12.393300 -24.467600
O -19.466800 -17.537000 -22.457300
N -19.428200 -13.185300 -19.955500
N -19.160800 -16.782000 -19.417500
N -18.995700 -11.994800 -19.361700
N -18.909800 -12.448400 -23.392600
C -18.896000 -15.175700 -21.278500
C -18.807000 -13.597000 -21.206000
O -18.082900 -17.254100 -19.755500
H -18.040400 -15.658000 -21.313400
O -17.987200 -11.482600 -19.828600
H -17.908100 -13.347100 -21.315800
O -17.841500 -11.942900 -23.092700
72
Fragment
O -15.747700 -15.557200 -21.344200
O -15.410400 -12.264800 -21.337400
N -14.802900 -15.930400 -20.670800
O -14.801500 -16.763200 -19.790300
N -14.459000 -12.232300 -20.572900
H -14.373500 -14.100700 -22.278000
O -14.304900 -11.477500 -19.622400
C -13.542000 -14.154200 -21.820900
N -13.520900 -15.383300 -21.013500
N -13.395300 -13.090400 -20.843900
H -13.015200 -15.470800 -19.067600
H -12.904000 -13.290000 -18.891600
C -12.641900 -15.129700 -19.854400
H -12.583800 -14.055000 -23.649700
O -12.578800 -16.595900 -23.876800
C -12.546900 -13.556500 -19.750300
C -12.249800 -14.169600 -22.754700
N -11.757400 -16.571500 -22.965800
O -11.603000 -17.170600 -18.511900
N -11.397100 -15.334200 -22.507000
O -11.361000 -11.604600 -18.399800
N -11.338200 -13.111800 -22.350400
N -11.330000 -15.657800 -20.108400
O -11.209100 -12.393300 -24.467600
O -11.198800 -17.537000 -22.457300
N -11.160300 -13.185300 -19.955500
N -10.892900 -16.782000 -19.417500
N -10.727800 -11.994800 -19.361700
N -10.641900 -12.448400 -23.392600
C -10.628100 -15.175700 -21.278500
C -10.539100 -13.597000 -21.206000
O -9.815000 -17.254100 -19.755500
H -9.772500 -15.658000 -21.313400
O -9.719300 -11.482600 -19.828600
H -9.640200 -13.347100 -21.315800
O -9.573600 -11.942900 -23.092700
O -24.015600 -15.557200 -21.344200
O -23.678300 -12.264800 -21.337400
N -23.070800 -15.930400 -20.670800
O -23.069400 -16.763200 -19.790300
N -22.726900 -12.232300 -20.572900
H -22.641400 -14.100700 -22.278000
O -22.572800 -11.477500 -19.622400
C -21.810000 -14.154200 -21.820900
N -21.788800 -15.383300 -21.013500
N -21.663200 -13.090400 -20.843900
H -21.283100 -15.470800 -19.067600
H -21.171900 -13.290000 -18.891600
C -20.909800 -15.129700 -19.854400
H -20.851700 -14.055000 -23.649700
O -20.846700 -16.595900 -23.876800
C -20.814800 -13.556500 -19.750300
C -20.517700 -14.169600 -22.754700
N -20.025300 -16.571500 -22.965800
O -19.870900 -17.170600 -18.511900
N -19.665000 -15.334200 -22.507000
O -19.628900 -11.604600 -18.399800
N -19.606100 -13.111800 -22.350400
N -19.597900 -15.657800 -20.108400
O -19.477100 -12.393300 -24.467600
O -19.466800 -17.537000 -22.457300
N -19.428200 -13.185300 -19.955500
N -19.160800 -16.782000 -19.417500
N -18.995700 -11.994800 -19.361700
N -18.909800 -12.448400 -23.392600
C -18.896000 -15.175700 -21.278500
C -18.807000 -13.597000 -21.206000
O -18.082900 -17.254100 -19.755500
H -18.040400 -15.658000 -21.313400
O -17.987200 -11.482600 -19.828600
H -17.908100 -13.347100 -21.315800
O -17.841500 -11.942900 -23.092700
