36
Fragment
O -15.747700 -15.557200 -21.344200
O -15.410400 -12.264800 -21.337400
N -14.802900 -15.930400 -20.670800
O -14.801500 -16.763200 -19.790300
N -14.459000 -12.232300 -20.572900
H -14.373500 -14.100700 -22.278000
O -14.304900 -11.477500 -19.622400
C -13.542000 -14.154200 -21.820900
N -13.520900 -15.383300 -21.013500
N -13.395300 -13.090400 -20.843900
H -13.015200 -15.470800 -19.067600
H -12.904000 -13.290000 -18.891600
C -12.641900 -15.129700 -19.854400
H -12.583800 -14.055000 -23.649700
O -12.578800 -16.595900 -23.876800
C -12.546900 -13.556500 -19.750300
C -12.249800 -14.169600 -22.754700
N -11.757400 -16.571500 -22.965800
O -11.603000 -17.170600 -18.511900
N -11.397100 -15.334200 -22.507000
O -11.361000 -11.604600 -18.399800
N -11.338200 -13.111800 -22.350400
N -11.330000 -15.657800 -20.108400
O -11.209100 -12.393300 -24.467600
O -11.198800 -17.537000 -22.457300
N -11.160300 -13.185300 -19.955500
N -10.892900 -16.782000 -19.417500
N -10.727800 -11.994800 -19.361700
N -10.641900 -12.448400 -23.392600
C -10.628100 -15.175700 -21.278500
C -10.539100 -13.597000 -21.206000
O -9.815000 -17.254100 -19.755500
H -9.772500 -15.658000 -21.313400
O -9.719300 -11.482600 -19.828600
H -9.640200 -13.347100 -21.315800
O -9.573600 -11.942900 -23.092700
36
Fragment
O -16.231100 -6.234100 -23.842900
H -16.164400 -7.638300 -25.619800
O -16.085400 -5.773800 -27.106900
H -16.032200 -9.949200 -25.622100
O -15.989700 -11.545300 -27.180000
C -15.265600 -7.888300 -25.729600
C -15.176600 -9.467000 -25.657100
N -15.162800 -6.739700 -23.543000
N -15.076900 -6.286000 -27.573800
N -14.911700 -11.073200 -27.518100
N -14.644400 -7.476500 -26.980100
O -14.605800 -11.828200 -24.478300
O -14.595500 -6.684500 -22.467900
N -14.474700 -9.949000 -26.827200
N -14.466500 -7.403000 -24.585200
O -14.443700 -5.895800 -28.535800
N -14.407600 -9.625400 -24.428600
O -14.201700 -11.461800 -28.423700
N -14.047300 -10.862800 -23.969800
C -13.554800 -8.460900 -24.180900
C -13.257800 -7.847700 -27.185300
O -13.225900 -10.887100 -23.058700
H -13.220900 -8.346200 -23.285900
C -13.162800 -9.421000 -27.081100
H -12.900700 -7.581200 -28.044000
H -12.789500 -9.762000 -27.868000
N -12.409400 -7.381700 -26.091700
N -12.283800 -9.674500 -25.922000
C -12.262600 -8.445400 -25.114600
O -11.499800 -5.768700 -27.313200
H -11.431200 -8.391900 -24.657600
N -11.345700 -6.523500 -26.362700
O -11.003200 -11.054500 -27.145300
N -11.001700 -10.221700 -26.264800
O -10.394300 -6.556100 -25.598200
O -10.057000 -9.848400 -25.591400
72
Fragment
O -15.747700 -15.557200 -21.344200
O -15.410400 -12.264800 -21.337400
N -14.802900 -15.930400 -20.670800
O -14.801500 -16.763200 -19.790300
N -14.459000 -12.232300 -20.572900
H -14.373500 -14.100700 -22.278000
O -14.304900 -11.477500 -19.622400
C -13.542000 -14.154200 -21.820900
N -13.520900 -15.383300 -21.013500
N -13.395300 -13.090400 -20.843900
H -13.015200 -15.470800 -19.067600
H -12.904000 -13.290000 -18.891600
C -12.641900 -15.129700 -19.854400
H -12.583800 -14.055000 -23.649700
O -12.578800 -16.595900 -23.876800
C -12.546900 -13.556500 -19.750300
C -12.249800 -14.169600 -22.754700
N -11.757400 -16.571500 -22.965800
O -11.603000 -17.170600 -18.511900
N -11.397100 -15.334200 -22.507000
O -11.361000 -11.604600 -18.399800
N -11.338200 -13.111800 -22.350400
N -11.330000 -15.657800 -20.108400
O -11.209100 -12.393300 -24.467600
O -11.198800 -17.537000 -22.457300
N -11.160300 -13.185300 -19.955500
N -10.892900 -16.782000 -19.417500
N -10.727800 -11.994800 -19.361700
N -10.641900 -12.448400 -23.392600
C -10.628100 -15.175700 -21.278500
C -10.539100 -13.597000 -21.206000
O -9.815000 -17.254100 -19.755500
H -9.772500 -15.658000 -21.313400
O -9.719300 -11.482600 -19.828600
H -9.640200 -13.347100 -21.315800
O -9.573600 -11.942900 -23.092700
O -16.231100 -6.234100 -23.842900
H -16.164400 -7.638300 -25.619800
O -16.085400 -5.773800 -27.106900
H -16.032200 -9.949200 -25.622100
O -15.989700 -11.545300 -27.180000
C -15.265600 -7.888300 -25.729600
C -15.176600 -9.467000 -25.657100
N -15.162800 -6.739700 -23.543000
N -15.076900 -6.286000 -27.573800
N -14.911700 -11.073200 -27.518100
N -14.644400 -7.476500 -26.980100
O -14.605800 -11.828200 -24.478300
O -14.595500 -6.684500 -22.467900
N -14.474700 -9.949000 -26.827200
N -14.466500 -7.403000 -24.585200
O -14.443700 -5.895800 -28.535800
N -14.407600 -9.625400 -24.428600
O -14.201700 -11.461800 -28.423700
N -14.047300 -10.862800 -23.969800
C -13.554800 -8.460900 -24.180900
C -13.257800 -7.847700 -27.185300
O -13.225900 -10.887100 -23.058700
H -13.220900 -8.346200 -23.285900
C -13.162800 -9.421000 -27.081100
H -12.900700 -7.581200 -28.044000
H -12.789500 -9.762000 -27.868000
N -12.409400 -7.381700 -26.091700
N -12.283800 -9.674500 -25.922000
C -12.262600 -8.445400 -25.114600
O -11.499800 -5.768700 -27.313200
H -11.431200 -8.391900 -24.657600
N -11.345700 -6.523500 -26.362700
O -11.003200 -11.054500 -27.145300
N -11.001700 -10.221700 -26.264800
O -10.394300 -6.556100 -25.598200
O -10.057000 -9.848400 -25.591400
