36
Fragment
O -15.747700 -15.557200 -21.344200
O -15.410400 -12.264800 -21.337400
N -14.802900 -15.930400 -20.670800
O -14.801500 -16.763200 -19.790300
N -14.459000 -12.232300 -20.572900
H -14.373500 -14.100700 -22.278000
O -14.304900 -11.477500 -19.622400
C -13.542000 -14.154200 -21.820900
N -13.520900 -15.383300 -21.013500
N -13.395300 -13.090400 -20.843900
H -13.015200 -15.470800 -19.067600
H -12.904000 -13.290000 -18.891600
C -12.641900 -15.129700 -19.854400
H -12.583800 -14.055000 -23.649700
O -12.578800 -16.595900 -23.876800
C -12.546900 -13.556500 -19.750300
C -12.249800 -14.169600 -22.754700
N -11.757400 -16.571500 -22.965800
O -11.603000 -17.170600 -18.511900
N -11.397100 -15.334200 -22.507000
O -11.361000 -11.604600 -18.399800
N -11.338200 -13.111800 -22.350400
N -11.330000 -15.657800 -20.108400
O -11.209100 -12.393300 -24.467600
O -11.198800 -17.537000 -22.457300
N -11.160300 -13.185300 -19.955500
N -10.892900 -16.782000 -19.417500
N -10.727800 -11.994800 -19.361700
N -10.641900 -12.448400 -23.392600
C -10.628100 -15.175700 -21.278500
C -10.539100 -13.597000 -21.206000
O -9.815000 -17.254100 -19.755500
H -9.772500 -15.658000 -21.313400
O -9.719300 -11.482600 -19.828600
H -9.640200 -13.347100 -21.315800
O -9.573600 -11.942900 -23.092700
36
Fragment
O -15.980800 -6.234100 -12.109000
H -15.914200 -7.638300 -13.885900
O -15.835100 -5.773800 -15.373000
H -15.782000 -9.949200 -13.888200
O -15.739500 -11.545300 -15.446100
C -15.015400 -7.888300 -13.995700
C -14.926300 -9.467000 -13.923200
N -14.912600 -6.739700 -11.809100
N -14.826700 -6.286000 -15.839900
N -14.661500 -11.073200 -15.784200
N -14.394100 -7.476500 -15.246200
O -14.355600 -11.828200 -12.744400
O -14.345300 -6.684500 -10.734000
N -14.224500 -9.949000 -15.093300
N -14.216200 -7.403000 -12.851300
O -14.193400 -5.895800 -16.801900
N -14.157300 -9.625400 -12.694700
O -13.951400 -11.461800 -16.689800
N -13.797100 -10.862800 -12.235900
C -13.304600 -8.460900 -12.447000
C -13.007500 -7.847700 -15.451400
O -12.975700 -10.887100 -11.324800
H -12.970700 -8.346200 -11.552000
C -12.912500 -9.421000 -15.347200
H -12.650500 -7.581200 -16.310100
H -12.539200 -9.762000 -16.134100
N -12.159200 -7.381700 -14.357800
N -12.033600 -9.674500 -14.188200
C -12.012400 -8.445400 -13.380700
O -11.249500 -5.768700 -15.579300
H -11.181000 -8.391900 -12.923700
N -11.095500 -6.523500 -14.628800
O -10.752900 -11.054500 -15.411400
N -10.751500 -10.221700 -14.530900
O -10.144100 -6.556100 -13.864300
O -9.806800 -9.848400 -13.857500
72
Fragment
O -15.747700 -15.557200 -21.344200
O -15.410400 -12.264800 -21.337400
N -14.802900 -15.930400 -20.670800
O -14.801500 -16.763200 -19.790300
N -14.459000 -12.232300 -20.572900
H -14.373500 -14.100700 -22.278000
O -14.304900 -11.477500 -19.622400
C -13.542000 -14.154200 -21.820900
N -13.520900 -15.383300 -21.013500
N -13.395300 -13.090400 -20.843900
H -13.015200 -15.470800 -19.067600
H -12.904000 -13.290000 -18.891600
C -12.641900 -15.129700 -19.854400
H -12.583800 -14.055000 -23.649700
O -12.578800 -16.595900 -23.876800
C -12.546900 -13.556500 -19.750300
C -12.249800 -14.169600 -22.754700
N -11.757400 -16.571500 -22.965800
O -11.603000 -17.170600 -18.511900
N -11.397100 -15.334200 -22.507000
O -11.361000 -11.604600 -18.399800
N -11.338200 -13.111800 -22.350400
N -11.330000 -15.657800 -20.108400
O -11.209100 -12.393300 -24.467600
O -11.198800 -17.537000 -22.457300
N -11.160300 -13.185300 -19.955500
N -10.892900 -16.782000 -19.417500
N -10.727800 -11.994800 -19.361700
N -10.641900 -12.448400 -23.392600
C -10.628100 -15.175700 -21.278500
C -10.539100 -13.597000 -21.206000
O -9.815000 -17.254100 -19.755500
H -9.772500 -15.658000 -21.313400
O -9.719300 -11.482600 -19.828600
H -9.640200 -13.347100 -21.315800
O -9.573600 -11.942900 -23.092700
O -15.980800 -6.234100 -12.109000
H -15.914200 -7.638300 -13.885900
O -15.835100 -5.773800 -15.373000
H -15.782000 -9.949200 -13.888200
O -15.739500 -11.545300 -15.446100
C -15.015400 -7.888300 -13.995700
C -14.926300 -9.467000 -13.923200
N -14.912600 -6.739700 -11.809100
N -14.826700 -6.286000 -15.839900
N -14.661500 -11.073200 -15.784200
N -14.394100 -7.476500 -15.246200
O -14.355600 -11.828200 -12.744400
O -14.345300 -6.684500 -10.734000
N -14.224500 -9.949000 -15.093300
N -14.216200 -7.403000 -12.851300
O -14.193400 -5.895800 -16.801900
N -14.157300 -9.625400 -12.694700
O -13.951400 -11.461800 -16.689800
N -13.797100 -10.862800 -12.235900
C -13.304600 -8.460900 -12.447000
C -13.007500 -7.847700 -15.451400
O -12.975700 -10.887100 -11.324800
H -12.970700 -8.346200 -11.552000
C -12.912500 -9.421000 -15.347200
H -12.650500 -7.581200 -16.310100
H -12.539200 -9.762000 -16.134100
N -12.159200 -7.381700 -14.357800
N -12.033600 -9.674500 -14.188200
C -12.012400 -8.445400 -13.380700
O -11.249500 -5.768700 -15.579300
H -11.181000 -8.391900 -12.923700
N -11.095500 -6.523500 -14.628800
O -10.752900 -11.054500 -15.411400
N -10.751500 -10.221700 -14.530900
O -10.144100 -6.556100 -13.864300
O -9.806800 -9.848400 -13.857500
