33
Fragment
H -17.242000 -10.467700 -7.607300
H -16.995600 -8.357400 -9.036500
H -16.887400 -11.837800 -8.354600
C -16.543900 -10.959600 -8.088100
H -16.182000 -12.592600 -9.946200
C -16.141600 -10.190800 -9.306600
C -16.091700 -8.703500 -9.189700
O -15.893100 -14.871500 -10.243300
N -15.892600 -12.065500 -10.588700
N -15.846900 -10.677600 -10.451700
H -15.765600 -11.076500 -7.504100
H -15.732100 -8.322600 -10.018000
H -15.514500 -8.454100 -8.438000
C -15.463400 -12.542400 -11.773900
N -15.371900 -14.990100 -11.366100
H -15.275500 -10.841600 -12.911500
N -15.206000 -11.793000 -12.838100
C -15.185500 -13.877500 -12.142700
O -15.008800 -16.111900 -11.818400
N -14.744300 -12.553600 -13.920300
C -14.727400 -13.803700 -13.496500
N -14.305600 -14.864300 -14.234800
H -14.262900 -15.670300 -13.884100
H -14.111400 -17.358700 -15.243700
N -13.945200 -14.643200 -15.550400
H -13.526600 -16.051400 -18.178700
C -13.459100 -15.655600 -16.175000
H -13.255800 -14.508000 -17.853700
C -13.255400 -17.017400 -15.577700
C -13.044700 -15.429300 -17.594600
H -12.906200 -17.625500 -16.262200
H -12.616400 -16.957200 -14.837300
H -12.080300 -15.580200 -17.681600
33
Fragment
H -23.466000 -4.451300 -2.212900
H -22.929900 -3.074400 -5.057200
H -22.640100 -2.406100 -3.632200
C -22.501600 -4.602200 -2.299800
C -22.290900 -3.014100 -4.316700
H -22.290500 -5.523600 -2.040800
C -22.087200 -4.375900 -3.719500
H -22.019700 -3.980100 -1.715700
N -21.601000 -5.388400 -4.344000
H -21.434900 -2.672800 -4.650700
H -21.283400 -4.361200 -6.010300
N -21.240700 -5.167200 -5.659700
C -20.818900 -6.227800 -6.398000
N -20.802000 -7.478000 -5.974100
O -20.537500 -3.919700 -8.076000
C -20.360800 -6.154100 -7.751800
N -20.340300 -8.238600 -7.056400
H -20.270800 -9.189900 -6.982900
N -20.174300 -5.041400 -8.528300
C -20.082900 -7.489100 -8.120500
H -20.031800 -11.577400 -11.456400
H -19.814200 -11.708900 -9.876400
H -19.780700 -8.955000 -12.390400
N -19.699400 -9.354000 -9.442700
N -19.653600 -7.966100 -9.305700
O -19.653200 -5.160100 -9.651100
C -19.454600 -11.328000 -10.704700
C -19.404700 -9.840700 -10.587800
H -19.364200 -7.438900 -9.948200
C -19.002400 -9.071900 -11.806400
H -18.658900 -8.193700 -11.539900
H -18.550700 -11.674200 -10.858000
H -18.304300 -9.563800 -12.287100
66
Fragment
H -17.242000 -10.467700 -7.607300
H -16.995600 -8.357400 -9.036500
H -16.887400 -11.837800 -8.354600
C -16.543900 -10.959600 -8.088100
H -16.182000 -12.592600 -9.946200
C -16.141600 -10.190800 -9.306600
C -16.091700 -8.703500 -9.189700
O -15.893100 -14.871500 -10.243300
N -15.892600 -12.065500 -10.588700
N -15.846900 -10.677600 -10.451700
H -15.765600 -11.076500 -7.504100
H -15.732100 -8.322600 -10.018000
H -15.514500 -8.454100 -8.438000
C -15.463400 -12.542400 -11.773900
N -15.371900 -14.990100 -11.366100
H -15.275500 -10.841600 -12.911500
N -15.206000 -11.793000 -12.838100
C -15.185500 -13.877500 -12.142700
O -15.008800 -16.111900 -11.818400
N -14.744300 -12.553600 -13.920300
C -14.727400 -13.803700 -13.496500
N -14.305600 -14.864300 -14.234800
H -14.262900 -15.670300 -13.884100
H -14.111400 -17.358700 -15.243700
N -13.945200 -14.643200 -15.550400
H -13.526600 -16.051400 -18.178700
C -13.459100 -15.655600 -16.175000
H -13.255800 -14.508000 -17.853700
C -13.255400 -17.017400 -15.577700
C -13.044700 -15.429300 -17.594600
H -12.906200 -17.625500 -16.262200
H -12.616400 -16.957200 -14.837300
H -12.080300 -15.580200 -17.681600
H -23.466000 -4.451300 -2.212900
H -22.929900 -3.074400 -5.057200
H -22.640100 -2.406100 -3.632200
C -22.501600 -4.602200 -2.299800
C -22.290900 -3.014100 -4.316700
H -22.290500 -5.523600 -2.040800
C -22.087200 -4.375900 -3.719500
H -22.019700 -3.980100 -1.715700
N -21.601000 -5.388400 -4.344000
H -21.434900 -2.672800 -4.650700
H -21.283400 -4.361200 -6.010300
N -21.240700 -5.167200 -5.659700
C -20.818900 -6.227800 -6.398000
N -20.802000 -7.478000 -5.974100
O -20.537500 -3.919700 -8.076000
C -20.360800 -6.154100 -7.751800
N -20.340300 -8.238600 -7.056400
H -20.270800 -9.189900 -6.982900
N -20.174300 -5.041400 -8.528300
C -20.082900 -7.489100 -8.120500
H -20.031800 -11.577400 -11.456400
H -19.814200 -11.708900 -9.876400
H -19.780700 -8.955000 -12.390400
N -19.699400 -9.354000 -9.442700
N -19.653600 -7.966100 -9.305700
O -19.653200 -5.160100 -9.651100
C -19.454600 -11.328000 -10.704700
C -19.404700 -9.840700 -10.587800
H -19.364200 -7.438900 -9.948200
C -19.002400 -9.071900 -11.806400
H -18.658900 -8.193700 -11.539900
H -18.550700 -11.674200 -10.858000
H -18.304300 -9.563800 -12.287100
