33
Fragment
H -17.242000 -10.467700 -7.607300
H -16.995600 -8.357400 -9.036500
H -16.887400 -11.837800 -8.354600
C -16.543900 -10.959600 -8.088100
H -16.182000 -12.592600 -9.946200
C -16.141600 -10.190800 -9.306600
C -16.091700 -8.703500 -9.189700
O -15.893100 -14.871500 -10.243300
N -15.892600 -12.065500 -10.588700
N -15.846900 -10.677600 -10.451700
H -15.765600 -11.076500 -7.504100
H -15.732100 -8.322600 -10.018000
H -15.514500 -8.454100 -8.438000
C -15.463400 -12.542400 -11.773900
N -15.371900 -14.990100 -11.366100
H -15.275500 -10.841600 -12.911500
N -15.206000 -11.793000 -12.838100
C -15.185500 -13.877500 -12.142700
O -15.008800 -16.111900 -11.818400
N -14.744300 -12.553600 -13.920300
C -14.727400 -13.803700 -13.496500
N -14.305600 -14.864300 -14.234800
H -14.262900 -15.670300 -13.884100
H -14.111400 -17.358700 -15.243700
N -13.945200 -14.643200 -15.550400
H -13.526600 -16.051400 -18.178700
C -13.459100 -15.655600 -16.175000
H -13.255800 -14.508000 -17.853700
C -13.255400 -17.017400 -15.577700
C -13.044700 -15.429300 -17.594600
H -12.906200 -17.625500 -16.262200
H -12.616400 -16.957200 -14.837300
H -12.080300 -15.580200 -17.681600
33
Fragment
H -16.985300 -13.756600 -2.212900
H -16.449200 -12.379600 -5.057200
H -16.159500 -11.711300 -3.632200
C -16.020900 -13.907500 -2.299800
C -15.810300 -12.319400 -4.316700
H -15.809800 -14.828800 -2.040800
C -15.606600 -13.681200 -3.719500
H -15.539000 -13.285400 -1.715700
N -15.120400 -14.693600 -4.344000
H -14.954300 -11.978100 -4.650700
H -14.802700 -13.666500 -6.010300
N -14.760000 -14.472500 -5.659700
C -14.338200 -15.533100 -6.398000
N -14.321400 -16.783200 -5.974100
O -14.056900 -13.224900 -8.076000
C -13.880200 -15.459300 -7.751800
N -13.859600 -17.543800 -7.056400
H -13.790200 -18.495200 -6.982900
N -13.693700 -14.346700 -8.528300
C -13.602300 -16.794400 -8.120500
H -13.551100 -20.882700 -11.456400
H -13.333500 -21.014200 -9.876400
H -13.300000 -18.260300 -12.390400
N -13.218700 -18.659200 -9.442700
N -13.173000 -17.271300 -9.305700
O -13.172500 -14.465300 -9.651100
C -12.974000 -20.633300 -10.704700
C -12.924000 -19.146000 -10.587800
H -12.883600 -16.744200 -9.948200
C -12.521800 -18.377200 -11.806400
H -12.178300 -17.499000 -11.539900
H -12.070000 -20.979400 -10.858000
H -11.823600 -18.869100 -12.287100
66
Fragment
H -17.242000 -10.467700 -7.607300
H -16.995600 -8.357400 -9.036500
H -16.887400 -11.837800 -8.354600
C -16.543900 -10.959600 -8.088100
H -16.182000 -12.592600 -9.946200
C -16.141600 -10.190800 -9.306600
C -16.091700 -8.703500 -9.189700
O -15.893100 -14.871500 -10.243300
N -15.892600 -12.065500 -10.588700
N -15.846900 -10.677600 -10.451700
H -15.765600 -11.076500 -7.504100
H -15.732100 -8.322600 -10.018000
H -15.514500 -8.454100 -8.438000
C -15.463400 -12.542400 -11.773900
N -15.371900 -14.990100 -11.366100
H -15.275500 -10.841600 -12.911500
N -15.206000 -11.793000 -12.838100
C -15.185500 -13.877500 -12.142700
O -15.008800 -16.111900 -11.818400
N -14.744300 -12.553600 -13.920300
C -14.727400 -13.803700 -13.496500
N -14.305600 -14.864300 -14.234800
H -14.262900 -15.670300 -13.884100
H -14.111400 -17.358700 -15.243700
N -13.945200 -14.643200 -15.550400
H -13.526600 -16.051400 -18.178700
C -13.459100 -15.655600 -16.175000
H -13.255800 -14.508000 -17.853700
C -13.255400 -17.017400 -15.577700
C -13.044700 -15.429300 -17.594600
H -12.906200 -17.625500 -16.262200
H -12.616400 -16.957200 -14.837300
H -12.080300 -15.580200 -17.681600
H -16.985300 -13.756600 -2.212900
H -16.449200 -12.379600 -5.057200
H -16.159500 -11.711300 -3.632200
C -16.020900 -13.907500 -2.299800
C -15.810300 -12.319400 -4.316700
H -15.809800 -14.828800 -2.040800
C -15.606600 -13.681200 -3.719500
H -15.539000 -13.285400 -1.715700
N -15.120400 -14.693600 -4.344000
H -14.954300 -11.978100 -4.650700
H -14.802700 -13.666500 -6.010300
N -14.760000 -14.472500 -5.659700
C -14.338200 -15.533100 -6.398000
N -14.321400 -16.783200 -5.974100
O -14.056900 -13.224900 -8.076000
C -13.880200 -15.459300 -7.751800
N -13.859600 -17.543800 -7.056400
H -13.790200 -18.495200 -6.982900
N -13.693700 -14.346700 -8.528300
C -13.602300 -16.794400 -8.120500
H -13.551100 -20.882700 -11.456400
H -13.333500 -21.014200 -9.876400
H -13.300000 -18.260300 -12.390400
N -13.218700 -18.659200 -9.442700
N -13.173000 -17.271300 -9.305700
O -13.172500 -14.465300 -9.651100
C -12.974000 -20.633300 -10.704700
C -12.924000 -19.146000 -10.587800
H -12.883600 -16.744200 -9.948200
C -12.521800 -18.377200 -11.806400
H -12.178300 -17.499000 -11.539900
H -12.070000 -20.979400 -10.858000
H -11.823600 -18.869100 -12.287100
