33
Fragment
H -17.242000 -10.467700 -7.607300
H -16.995600 -8.357400 -9.036500
H -16.887400 -11.837800 -8.354600
C -16.543900 -10.959600 -8.088100
H -16.182000 -12.592600 -9.946200
C -16.141600 -10.190800 -9.306600
C -16.091700 -8.703500 -9.189700
O -15.893100 -14.871500 -10.243300
N -15.892600 -12.065500 -10.588700
N -15.846900 -10.677600 -10.451700
H -15.765600 -11.076500 -7.504100
H -15.732100 -8.322600 -10.018000
H -15.514500 -8.454100 -8.438000
C -15.463400 -12.542400 -11.773900
N -15.371900 -14.990100 -11.366100
H -15.275500 -10.841600 -12.911500
N -15.206000 -11.793000 -12.838100
C -15.185500 -13.877500 -12.142700
O -15.008800 -16.111900 -11.818400
N -14.744300 -12.553600 -13.920300
C -14.727400 -13.803700 -13.496500
N -14.305600 -14.864300 -14.234800
H -14.262900 -15.670300 -13.884100
H -14.111400 -17.358700 -15.243700
N -13.945200 -14.643200 -15.550400
H -13.526600 -16.051400 -18.178700
C -13.459100 -15.655600 -16.175000
H -13.255800 -14.508000 -17.853700
C -13.255400 -17.017400 -15.577700
C -13.044700 -15.429300 -17.594600
H -12.906200 -17.625500 -16.262200
H -12.616400 -16.957200 -14.837300
H -12.080300 -15.580200 -17.681600
33
Fragment
H -21.192200 -0.452000 2.339900
H -20.945800 1.658400 0.910800
H -20.837500 -1.822000 1.592600
C -20.494000 -0.943800 1.859100
H -20.132200 -2.576800 0.001000
C -20.091800 -0.175100 0.640600
C -20.041800 1.312300 0.757500
O -19.843300 -4.855700 -0.296100
N -19.842800 -2.049700 -0.641500
N -19.797100 -0.661800 -0.504500
H -19.715800 -1.060800 2.443100
H -19.682300 1.693200 -0.070800
H -19.464700 1.561700 1.509200
C -19.413500 -2.526700 -1.826700
N -19.322100 -4.974300 -1.418900
H -19.225600 -0.825900 -2.964300
N -19.156200 -1.777200 -2.890900
C -19.135600 -3.861700 -2.195500
O -18.958900 -6.096100 -1.871200
N -18.694400 -2.537800 -3.973100
C -18.677600 -3.787900 -3.549300
N -18.255800 -4.848500 -4.287500
H -18.213100 -5.654500 -3.936900
H -18.061500 -7.342900 -5.296500
N -17.895400 -4.627400 -5.603200
H -17.476700 -6.035600 -8.231500
C -17.409200 -5.639900 -6.227800
H -17.205900 -4.492200 -7.906400
C -17.205500 -7.001700 -5.630500
C -16.994800 -5.413500 -7.647400
H -16.856300 -7.609700 -6.315000
H -16.566600 -6.941400 -4.890100
H -16.030500 -5.564400 -7.734400
66
Fragment
H -17.242000 -10.467700 -7.607300
H -16.995600 -8.357400 -9.036500
H -16.887400 -11.837800 -8.354600
C -16.543900 -10.959600 -8.088100
H -16.182000 -12.592600 -9.946200
C -16.141600 -10.190800 -9.306600
C -16.091700 -8.703500 -9.189700
O -15.893100 -14.871500 -10.243300
N -15.892600 -12.065500 -10.588700
N -15.846900 -10.677600 -10.451700
H -15.765600 -11.076500 -7.504100
H -15.732100 -8.322600 -10.018000
H -15.514500 -8.454100 -8.438000
C -15.463400 -12.542400 -11.773900
N -15.371900 -14.990100 -11.366100
H -15.275500 -10.841600 -12.911500
N -15.206000 -11.793000 -12.838100
C -15.185500 -13.877500 -12.142700
O -15.008800 -16.111900 -11.818400
N -14.744300 -12.553600 -13.920300
C -14.727400 -13.803700 -13.496500
N -14.305600 -14.864300 -14.234800
H -14.262900 -15.670300 -13.884100
H -14.111400 -17.358700 -15.243700
N -13.945200 -14.643200 -15.550400
H -13.526600 -16.051400 -18.178700
C -13.459100 -15.655600 -16.175000
H -13.255800 -14.508000 -17.853700
C -13.255400 -17.017400 -15.577700
C -13.044700 -15.429300 -17.594600
H -12.906200 -17.625500 -16.262200
H -12.616400 -16.957200 -14.837300
H -12.080300 -15.580200 -17.681600
H -21.192200 -0.452000 2.339900
H -20.945800 1.658400 0.910800
H -20.837500 -1.822000 1.592600
C -20.494000 -0.943800 1.859100
H -20.132200 -2.576800 0.001000
C -20.091800 -0.175100 0.640600
C -20.041800 1.312300 0.757500
O -19.843300 -4.855700 -0.296100
N -19.842800 -2.049700 -0.641500
N -19.797100 -0.661800 -0.504500
H -19.715800 -1.060800 2.443100
H -19.682300 1.693200 -0.070800
H -19.464700 1.561700 1.509200
C -19.413500 -2.526700 -1.826700
N -19.322100 -4.974300 -1.418900
H -19.225600 -0.825900 -2.964300
N -19.156200 -1.777200 -2.890900
C -19.135600 -3.861700 -2.195500
O -18.958900 -6.096100 -1.871200
N -18.694400 -2.537800 -3.973100
C -18.677600 -3.787900 -3.549300
N -18.255800 -4.848500 -4.287500
H -18.213100 -5.654500 -3.936900
H -18.061500 -7.342900 -5.296500
N -17.895400 -4.627400 -5.603200
H -17.476700 -6.035600 -8.231500
C -17.409200 -5.639900 -6.227800
H -17.205900 -4.492200 -7.906400
C -17.205500 -7.001700 -5.630500
C -16.994800 -5.413500 -7.647400
H -16.856300 -7.609700 -6.315000
H -16.566600 -6.941400 -4.890100
H -16.030500 -5.564400 -7.734400
