30
Fragment
H -15.483200 -12.919300 -11.495400
H -15.257000 -11.758500 -9.507300
C -14.472300 -12.960800 -11.494700
C -14.337600 -11.655900 -9.380200
H -14.195100 -12.159800 -8.281500
H -14.119100 -10.834700 -9.215800
N -13.912200 -13.708300 -12.480600
C -13.696200 -12.463600 -10.488700
C -12.590300 -13.950200 -12.523900
C -12.349400 -12.770400 -10.555900
H -12.287100 -14.895400 -7.601300
O -12.281300 -14.139300 -8.235200
O -12.098600 -14.595000 -13.477600
N -11.793700 -13.494600 -11.511100
H -11.766900 -11.693300 -9.028900
C -11.391100 -12.297800 -9.478100
C -11.066100 -13.442900 -8.476600
H -10.907100 -11.961900 -6.913700
H -10.766700 -13.663000 -11.458100
C -10.496500 -12.872400 -7.179000
H -10.425000 -13.532200 -6.420400
H -10.309600 -10.975800 -10.523800
N -10.141100 -11.769900 -10.032000
O -10.074800 -15.585400 -8.913800
C -10.060600 -14.389900 -9.082000
H -9.371900 -12.600300 -7.227600
C -9.075300 -12.477900 -10.272700
N -9.026000 -13.795800 -9.802500
H -8.126600 -14.239600 -9.963200
O -8.083600 -12.035900 -10.886300
30
Fragment
H -15.285000 -11.735700 -18.969700
H -15.058800 -10.575000 -16.981600
C -14.274100 -11.777300 -18.969000
C -14.139500 -10.472400 -16.854500
H -13.997000 -10.976300 -15.755800
H -13.920900 -9.651200 -16.690100
N -13.714000 -12.524800 -19.954800
C -13.498000 -11.280100 -17.962900
C -12.392100 -12.766600 -19.998200
C -12.151200 -11.586900 -18.030200
H -12.089000 -13.711900 -15.075600
O -12.083100 -12.955800 -15.709400
O -11.900500 -13.411500 -20.951900
N -11.595600 -12.311100 -18.985400
H -11.568800 -10.509800 -16.503200
C -11.192900 -11.114300 -16.952400
C -10.868000 -12.259400 -15.950900
H -10.708900 -10.778400 -14.388000
H -10.568600 -12.479500 -18.932400
C -10.298300 -11.688900 -14.653300
H -10.226900 -12.348700 -13.894700
H -10.111400 -9.792200 -17.998100
N -9.942900 -10.586400 -17.506300
O -9.876700 -14.401900 -16.388100
C -9.862500 -13.206400 -16.556300
H -9.173700 -11.416700 -14.701900
C -8.877100 -11.294400 -17.746900
N -8.827800 -12.612300 -17.276800
H -7.928400 -13.056100 -17.437500
O -7.885400 -10.852300 -18.360600
60
Fragment
H -15.483200 -12.919300 -11.495400
H -15.257000 -11.758500 -9.507300
C -14.472300 -12.960800 -11.494700
C -14.337600 -11.655900 -9.380200
H -14.195100 -12.159800 -8.281500
H -14.119100 -10.834700 -9.215800
N -13.912200 -13.708300 -12.480600
C -13.696200 -12.463600 -10.488700
C -12.590300 -13.950200 -12.523900
C -12.349400 -12.770400 -10.555900
H -12.287100 -14.895400 -7.601300
O -12.281300 -14.139300 -8.235200
O -12.098600 -14.595000 -13.477600
N -11.793700 -13.494600 -11.511100
H -11.766900 -11.693300 -9.028900
C -11.391100 -12.297800 -9.478100
C -11.066100 -13.442900 -8.476600
H -10.907100 -11.961900 -6.913700
H -10.766700 -13.663000 -11.458100
C -10.496500 -12.872400 -7.179000
H -10.425000 -13.532200 -6.420400
H -10.309600 -10.975800 -10.523800
N -10.141100 -11.769900 -10.032000
O -10.074800 -15.585400 -8.913800
C -10.060600 -14.389900 -9.082000
H -9.371900 -12.600300 -7.227600
C -9.075300 -12.477900 -10.272700
N -9.026000 -13.795800 -9.802500
H -8.126600 -14.239600 -9.963200
O -8.083600 -12.035900 -10.886300
H -15.285000 -11.735700 -18.969700
H -15.058800 -10.575000 -16.981600
C -14.274100 -11.777300 -18.969000
C -14.139500 -10.472400 -16.854500
H -13.997000 -10.976300 -15.755800
H -13.920900 -9.651200 -16.690100
N -13.714000 -12.524800 -19.954800
C -13.498000 -11.280100 -17.962900
C -12.392100 -12.766600 -19.998200
C -12.151200 -11.586900 -18.030200
H -12.089000 -13.711900 -15.075600
O -12.083100 -12.955800 -15.709400
O -11.900500 -13.411500 -20.951900
N -11.595600 -12.311100 -18.985400
H -11.568800 -10.509800 -16.503200
C -11.192900 -11.114300 -16.952400
C -10.868000 -12.259400 -15.950900
H -10.708900 -10.778400 -14.388000
H -10.568600 -12.479500 -18.932400
C -10.298300 -11.688900 -14.653300
H -10.226900 -12.348700 -13.894700
H -10.111400 -9.792200 -17.998100
N -9.942900 -10.586400 -17.506300
O -9.876700 -14.401900 -16.388100
C -9.862500 -13.206400 -16.556300
H -9.173700 -11.416700 -14.701900
C -8.877100 -11.294400 -17.746900
N -8.827800 -12.612300 -17.276800
H -7.928400 -13.056100 -17.437500
O -7.885400 -10.852300 -18.360600
