14
Fragment
H -9.553700 -23.997900 -12.968300
H -9.222500 -24.933100 -10.731500
C -8.609700 -24.460500 -12.719200
H -8.487000 -23.413400 -14.963400
C -8.425700 -24.983200 -11.456400
O -7.754900 -24.046300 -14.947300
C -7.606700 -24.513900 -13.666600
C -7.202700 -25.586100 -11.117500
O -7.054500 -26.053700 -9.836800
C -6.383700 -25.116800 -13.327600
H -6.322400 -26.686600 -9.820700
C -6.199700 -25.639500 -12.064900
H -5.586900 -25.166900 -14.052600
H -5.255700 -26.102100 -11.815800
14
Fragment
H -15.609700 -23.997900 -12.968300
H -15.278500 -24.933100 -10.731500
C -14.665700 -24.460500 -12.719200
H -14.543000 -23.413400 -14.963400
C -14.481700 -24.983200 -11.456400
O -13.810900 -24.046300 -14.947300
C -13.662700 -24.513900 -13.666600
C -13.258700 -25.586100 -11.117500
O -13.110500 -26.053700 -9.836800
C -12.439700 -25.116800 -13.327600
H -12.378400 -26.686600 -9.820700
C -12.255700 -25.639500 -12.064900
H -11.642900 -25.166900 -14.052600
H -11.311700 -26.102100 -11.815800
28
Fragment
H -9.553700 -23.997900 -12.968300
H -9.222500 -24.933100 -10.731500
C -8.609700 -24.460500 -12.719200
H -8.487000 -23.413400 -14.963400
C -8.425700 -24.983200 -11.456400
O -7.754900 -24.046300 -14.947300
C -7.606700 -24.513900 -13.666600
C -7.202700 -25.586100 -11.117500
O -7.054500 -26.053700 -9.836800
C -6.383700 -25.116800 -13.327600
H -6.322400 -26.686600 -9.820700
C -6.199700 -25.639500 -12.064900
H -5.586900 -25.166900 -14.052600
H -5.255700 -26.102100 -11.815800
H -15.609700 -23.997900 -12.968300
H -15.278500 -24.933100 -10.731500
C -14.665700 -24.460500 -12.719200
H -14.543000 -23.413400 -14.963400
C -14.481700 -24.983200 -11.456400
O -13.810900 -24.046300 -14.947300
C -13.662700 -24.513900 -13.666600
C -13.258700 -25.586100 -11.117500
O -13.110500 -26.053700 -9.836800
C -12.439700 -25.116800 -13.327600
H -12.378400 -26.686600 -9.820700
C -12.255700 -25.639500 -12.064900
H -11.642900 -25.166900 -14.052600
H -11.311700 -26.102100 -11.815800
