14
Fragment
H -9.553700 -23.997900 -12.968300
H -9.222500 -24.933100 -10.731500
C -8.609700 -24.460500 -12.719200
H -8.487000 -23.413400 -14.963400
C -8.425700 -24.983200 -11.456400
O -7.754900 -24.046300 -14.947300
C -7.606700 -24.513900 -13.666600
C -7.202700 -25.586100 -11.117500
O -7.054500 -26.053700 -9.836800
C -6.383700 -25.116800 -13.327600
H -6.322400 -26.686600 -9.820700
C -6.199700 -25.639500 -12.064900
H -5.586900 -25.166900 -14.052600
H -5.255700 -26.102100 -11.815800
14
Fragment
H -7.200100 -23.997900 -19.164300
H -6.868800 -24.933100 -16.927500
C -6.256100 -24.460500 -18.915200
H -6.133300 -23.413400 -21.159400
C -6.072000 -24.983200 -17.652500
O -5.401200 -24.046300 -21.143300
C -5.253100 -24.513900 -19.862600
C -4.849100 -25.586100 -17.313600
O -4.700900 -26.053700 -16.032800
C -4.030100 -25.116800 -19.523700
H -3.968800 -26.686600 -16.016700
C -3.846000 -25.639500 -18.260900
H -3.233300 -25.166900 -20.248600
H -2.902000 -26.102100 -18.011800
28
Fragment
H -9.553700 -23.997900 -12.968300
H -9.222500 -24.933100 -10.731500
C -8.609700 -24.460500 -12.719200
H -8.487000 -23.413400 -14.963400
C -8.425700 -24.983200 -11.456400
O -7.754900 -24.046300 -14.947300
C -7.606700 -24.513900 -13.666600
C -7.202700 -25.586100 -11.117500
O -7.054500 -26.053700 -9.836800
C -6.383700 -25.116800 -13.327600
H -6.322400 -26.686600 -9.820700
C -6.199700 -25.639500 -12.064900
H -5.586900 -25.166900 -14.052600
H -5.255700 -26.102100 -11.815800
H -7.200100 -23.997900 -19.164300
H -6.868800 -24.933100 -16.927500
C -6.256100 -24.460500 -18.915200
H -6.133300 -23.413400 -21.159400
C -6.072000 -24.983200 -17.652500
O -5.401200 -24.046300 -21.143300
C -5.253100 -24.513900 -19.862600
C -4.849100 -25.586100 -17.313600
O -4.700900 -26.053700 -16.032800
C -4.030100 -25.116800 -19.523700
H -3.968800 -26.686600 -16.016700
C -3.846000 -25.639500 -18.260900
H -3.233300 -25.166900 -20.248600
H -2.902000 -26.102100 -18.011800
