14
Fragment
H -9.553700 -23.997900 -12.968300
H -9.222500 -24.933100 -10.731500
C -8.609700 -24.460500 -12.719200
H -8.487000 -23.413400 -14.963400
C -8.425700 -24.983200 -11.456400
O -7.754900 -24.046300 -14.947300
C -7.606700 -24.513900 -13.666600
C -7.202700 -25.586100 -11.117500
O -7.054500 -26.053700 -9.836800
C -6.383700 -25.116800 -13.327600
H -6.322400 -26.686600 -9.820700
C -6.199700 -25.639500 -12.064900
H -5.586900 -25.166900 -14.052600
H -5.255700 -26.102100 -11.815800
22
Fragment
N -7.906100 -20.875000 -9.940300
H -7.864800 -21.776800 -11.834400
H -7.864800 -19.973200 -11.834400
H -7.737800 -22.962500 -9.777300
H -7.737800 -18.787500 -9.777300
H -7.620100 -22.044000 -8.222100
H -7.620100 -19.706000 -8.222100
C -7.475400 -20.875000 -11.356100
C -7.346200 -22.072400 -9.277900
C -7.346200 -19.677600 -9.277900
N -6.006400 -20.875000 -11.488000
H -5.888100 -22.945800 -11.283000
H -5.888100 -18.804200 -11.283000
N -5.862600 -22.095800 -9.379500
N -5.862600 -19.654200 -9.379500
H -5.676300 -20.875000 -7.695500
C -5.481900 -22.064000 -10.794700
C -5.481900 -19.686000 -10.794700
C -5.351700 -20.875000 -8.733300
H -4.397200 -22.044000 -10.855400
H -4.397200 -19.706000 -10.855400
H -4.267900 -20.875000 -8.804600
36
Fragment
H -9.553700 -23.997900 -12.968300
H -9.222500 -24.933100 -10.731500
C -8.609700 -24.460500 -12.719200
H -8.487000 -23.413400 -14.963400
C -8.425700 -24.983200 -11.456400
O -7.754900 -24.046300 -14.947300
C -7.606700 -24.513900 -13.666600
C -7.202700 -25.586100 -11.117500
O -7.054500 -26.053700 -9.836800
C -6.383700 -25.116800 -13.327600
H -6.322400 -26.686600 -9.820700
C -6.199700 -25.639500 -12.064900
H -5.586900 -25.166900 -14.052600
H -5.255700 -26.102100 -11.815800
N -7.906100 -20.875000 -9.940300
H -7.864800 -21.776800 -11.834400
H -7.864800 -19.973200 -11.834400
H -7.737800 -22.962500 -9.777300
H -7.737800 -18.787500 -9.777300
H -7.620100 -22.044000 -8.222100
H -7.620100 -19.706000 -8.222100
C -7.475400 -20.875000 -11.356100
C -7.346200 -22.072400 -9.277900
C -7.346200 -19.677600 -9.277900
N -6.006400 -20.875000 -11.488000
H -5.888100 -22.945800 -11.283000
H -5.888100 -18.804200 -11.283000
N -5.862600 -22.095800 -9.379500
N -5.862600 -19.654200 -9.379500
H -5.676300 -20.875000 -7.695500
C -5.481900 -22.064000 -10.794700
C -5.481900 -19.686000 -10.794700
C -5.351700 -20.875000 -8.733300
H -4.397200 -22.044000 -10.855400
H -4.397200 -19.706000 -10.855400
H -4.267900 -20.875000 -8.804600
