14
Fragment
H -9.553700 -23.997900 -12.968300
H -9.222500 -24.933100 -10.731500
C -8.609700 -24.460500 -12.719200
H -8.487000 -23.413400 -14.963400
C -8.425700 -24.983200 -11.456400
O -7.754900 -24.046300 -14.947300
C -7.606700 -24.513900 -13.666600
C -7.202700 -25.586100 -11.117500
O -7.054500 -26.053700 -9.836800
C -6.383700 -25.116800 -13.327600
H -6.322400 -26.686600 -9.820700
C -6.199700 -25.639500 -12.064900
H -5.586900 -25.166900 -14.052600
H -5.255700 -26.102100 -11.815800
22
Fragment
H -10.541500 -29.225000 -15.979500
H -10.412200 -30.394000 -13.928700
H -10.412200 -28.056000 -13.928700
C -9.457700 -29.225000 -16.050800
C -9.327500 -30.414000 -13.989400
C -9.327500 -28.036000 -13.989400
H -9.133100 -29.225000 -17.088600
N -8.946800 -30.445800 -15.404600
N -8.946800 -28.004200 -15.404600
H -8.921300 -31.295800 -13.501100
H -8.921300 -27.154200 -13.501100
N -8.803000 -29.225000 -13.296000
C -7.463200 -30.422400 -15.506200
C -7.463200 -28.027600 -15.506200
C -7.334000 -29.225000 -13.428000
H -7.189400 -30.394000 -16.562000
H -7.189400 -28.056000 -16.562000
H -7.071600 -31.312500 -15.006800
H -7.071600 -27.137500 -15.006800
H -6.944600 -30.126800 -12.949700
H -6.944600 -28.323200 -12.949700
N -6.903300 -29.225000 -14.843800
36
Fragment
H -9.553700 -23.997900 -12.968300
H -9.222500 -24.933100 -10.731500
C -8.609700 -24.460500 -12.719200
H -8.487000 -23.413400 -14.963400
C -8.425700 -24.983200 -11.456400
O -7.754900 -24.046300 -14.947300
C -7.606700 -24.513900 -13.666600
C -7.202700 -25.586100 -11.117500
O -7.054500 -26.053700 -9.836800
C -6.383700 -25.116800 -13.327600
H -6.322400 -26.686600 -9.820700
C -6.199700 -25.639500 -12.064900
H -5.586900 -25.166900 -14.052600
H -5.255700 -26.102100 -11.815800
H -10.541500 -29.225000 -15.979500
H -10.412200 -30.394000 -13.928700
H -10.412200 -28.056000 -13.928700
C -9.457700 -29.225000 -16.050800
C -9.327500 -30.414000 -13.989400
C -9.327500 -28.036000 -13.989400
H -9.133100 -29.225000 -17.088600
N -8.946800 -30.445800 -15.404600
N -8.946800 -28.004200 -15.404600
H -8.921300 -31.295800 -13.501100
H -8.921300 -27.154200 -13.501100
N -8.803000 -29.225000 -13.296000
C -7.463200 -30.422400 -15.506200
C -7.463200 -28.027600 -15.506200
C -7.334000 -29.225000 -13.428000
H -7.189400 -30.394000 -16.562000
H -7.189400 -28.056000 -16.562000
H -7.071600 -31.312500 -15.006800
H -7.071600 -27.137500 -15.006800
H -6.944600 -30.126800 -12.949700
H -6.944600 -28.323200 -12.949700
N -6.903300 -29.225000 -14.843800
