14
Fragment
H -9.553700 -23.997900 -12.968300
H -9.222500 -24.933100 -10.731500
C -8.609700 -24.460500 -12.719200
H -8.487000 -23.413400 -14.963400
C -8.425700 -24.983200 -11.456400
O -7.754900 -24.046300 -14.947300
C -7.606700 -24.513900 -13.666600
C -7.202700 -25.586100 -11.117500
O -7.054500 -26.053700 -9.836800
C -6.383700 -25.116800 -13.327600
H -6.322400 -26.686600 -9.820700
C -6.199700 -25.639500 -12.064900
H -5.586900 -25.166900 -14.052600
H -5.255700 -26.102100 -11.815800
14
Fragment
H -11.907400 -23.997900 -6.772300
H -11.576100 -24.933100 -4.535500
C -10.963400 -24.460500 -6.523200
H -10.840600 -23.413400 -8.767400
C -10.779300 -24.983200 -5.260400
O -10.108500 -24.046300 -8.751300
C -9.960400 -24.513900 -7.470500
C -9.556400 -25.586100 -4.921500
O -9.408200 -26.053700 -3.640800
C -8.737400 -25.116800 -7.131600
H -8.676100 -26.686600 -3.624700
C -8.553300 -25.639500 -5.868900
H -7.940600 -25.166900 -7.856600
H -7.609300 -26.102100 -5.619800
28
Fragment
H -9.553700 -23.997900 -12.968300
H -9.222500 -24.933100 -10.731500
C -8.609700 -24.460500 -12.719200
H -8.487000 -23.413400 -14.963400
C -8.425700 -24.983200 -11.456400
O -7.754900 -24.046300 -14.947300
C -7.606700 -24.513900 -13.666600
C -7.202700 -25.586100 -11.117500
O -7.054500 -26.053700 -9.836800
C -6.383700 -25.116800 -13.327600
H -6.322400 -26.686600 -9.820700
C -6.199700 -25.639500 -12.064900
H -5.586900 -25.166900 -14.052600
H -5.255700 -26.102100 -11.815800
H -11.907400 -23.997900 -6.772300
H -11.576100 -24.933100 -4.535500
C -10.963400 -24.460500 -6.523200
H -10.840600 -23.413400 -8.767400
C -10.779300 -24.983200 -5.260400
O -10.108500 -24.046300 -8.751300
C -9.960400 -24.513900 -7.470500
C -9.556400 -25.586100 -4.921500
O -9.408200 -26.053700 -3.640800
C -8.737400 -25.116800 -7.131600
H -8.676100 -26.686600 -3.624700
C -8.553300 -25.639500 -5.868900
H -7.940600 -25.166900 -7.856600
H -7.609300 -26.102100 -5.619800
