14
Fragment
H -9.553700 -23.997900 -12.968300
H -9.222500 -24.933100 -10.731500
C -8.609700 -24.460500 -12.719200
H -8.487000 -23.413400 -14.963400
C -8.425700 -24.983200 -11.456400
O -7.754900 -24.046300 -14.947300
C -7.606700 -24.513900 -13.666600
C -7.202700 -25.586100 -11.117500
O -7.054500 -26.053700 -9.836800
C -6.383700 -25.116800 -13.327600
H -6.322400 -26.686600 -9.820700
C -6.199700 -25.639500 -12.064900
H -5.586900 -25.166900 -14.052600
H -5.255700 -26.102100 -11.815800
14
Fragment
H -3.497700 -23.997900 -12.968300
H -3.166500 -24.933100 -10.731500
C -2.553700 -24.460500 -12.719200
H -2.431000 -23.413400 -14.963400
C -2.369700 -24.983200 -11.456400
O -1.698900 -24.046300 -14.947300
C -1.550700 -24.513900 -13.666600
C -1.146700 -25.586100 -11.117500
O -0.998500 -26.053700 -9.836800
C -0.327700 -25.116800 -13.327600
H -0.266400 -26.686600 -9.820700
C -0.143700 -25.639500 -12.064900
H 0.469100 -25.166900 -14.052600
H 0.800300 -26.102100 -11.815800
28
Fragment
H -9.553700 -23.997900 -12.968300
H -9.222500 -24.933100 -10.731500
C -8.609700 -24.460500 -12.719200
H -8.487000 -23.413400 -14.963400
C -8.425700 -24.983200 -11.456400
O -7.754900 -24.046300 -14.947300
C -7.606700 -24.513900 -13.666600
C -7.202700 -25.586100 -11.117500
O -7.054500 -26.053700 -9.836800
C -6.383700 -25.116800 -13.327600
H -6.322400 -26.686600 -9.820700
C -6.199700 -25.639500 -12.064900
H -5.586900 -25.166900 -14.052600
H -5.255700 -26.102100 -11.815800
H -3.497700 -23.997900 -12.968300
H -3.166500 -24.933100 -10.731500
C -2.553700 -24.460500 -12.719200
H -2.431000 -23.413400 -14.963400
C -2.369700 -24.983200 -11.456400
O -1.698900 -24.046300 -14.947300
C -1.550700 -24.513900 -13.666600
C -1.146700 -25.586100 -11.117500
O -0.998500 -26.053700 -9.836800
C -0.327700 -25.116800 -13.327600
H -0.266400 -26.686600 -9.820700
C -0.143700 -25.639500 -12.064900
H 0.469100 -25.166900 -14.052600
H 0.800300 -26.102100 -11.815800
