24
Fragment
H -15.352000 -23.906600 -24.608000
H -14.876200 -21.862300 -25.752300
O -14.823900 -19.351700 -25.189300
H -14.812200 -21.505800 -23.500400
H -14.735600 -18.565900 -25.407500
H -14.462600 -25.077600 -24.066400
C -14.436400 -24.207100 -24.495100
H -14.024600 -25.065800 -26.252700
C -14.016500 -21.539700 -25.409000
H -13.997600 -23.435300 -22.690200
C -13.972300 -21.782700 -23.898600
C -13.884000 -20.065300 -25.747700
N -13.820900 -24.351500 -25.819400
C -13.729000 -23.257100 -23.604100
H -13.262200 -21.251000 -23.504900
C -12.992800 -23.520700 -26.434300
O -12.983800 -19.628000 -26.431200
N -12.952200 -22.232700 -26.109300
H -12.776500 -23.429400 -23.666700
N -12.269200 -24.118100 -27.418400
H -12.252000 -21.782700 -26.327500
N -11.434700 -23.402900 -28.179700
O -11.128300 -22.216900 -27.944000
O -10.932800 -24.006800 -29.129700
24
Fragment
O -11.596000 -20.180200 -21.501200
O -11.400400 -21.970100 -20.315500
N -11.094100 -20.784100 -20.551200
H -10.276700 -22.404300 -18.699000
N -10.259600 -20.068900 -19.789900
H -9.752200 -20.757600 -16.038200
N -9.576500 -21.954300 -18.480800
O -9.545000 -24.559000 -18.802700
C -9.536000 -20.666300 -18.805800
H -9.266500 -22.936000 -15.876400
C -8.799700 -20.929900 -15.975600
N -8.707800 -19.835500 -18.190900
C -8.644700 -24.121700 -18.119200
C -8.556400 -22.404300 -16.270100
H -8.531200 -20.751700 -15.061700
C -8.512300 -22.647300 -17.780500
H -8.504200 -19.121200 -18.624200
C -8.092300 -19.979900 -16.866600
H -8.066200 -19.109400 -16.437900
H -7.793100 -25.621100 -17.779000
H -7.716500 -22.681200 -15.871900
O -7.704800 -24.835300 -17.560800
H -7.652600 -22.324700 -18.123800
H -7.176800 -20.280400 -16.979500
48
Fragment
H -15.352000 -23.906600 -24.608000
H -14.876200 -21.862300 -25.752300
O -14.823900 -19.351700 -25.189300
H -14.812200 -21.505800 -23.500400
H -14.735600 -18.565900 -25.407500
H -14.462600 -25.077600 -24.066400
C -14.436400 -24.207100 -24.495100
H -14.024600 -25.065800 -26.252700
C -14.016500 -21.539700 -25.409000
H -13.997600 -23.435300 -22.690200
C -13.972300 -21.782700 -23.898600
C -13.884000 -20.065300 -25.747700
N -13.820900 -24.351500 -25.819400
C -13.729000 -23.257100 -23.604100
H -13.262200 -21.251000 -23.504900
C -12.992800 -23.520700 -26.434300
O -12.983800 -19.628000 -26.431200
N -12.952200 -22.232700 -26.109300
H -12.776500 -23.429400 -23.666700
N -12.269200 -24.118100 -27.418400
H -12.252000 -21.782700 -26.327500
N -11.434700 -23.402900 -28.179700
O -11.128300 -22.216900 -27.944000
O -10.932800 -24.006800 -29.129700
O -11.596000 -20.180200 -21.501200
O -11.400400 -21.970100 -20.315500
N -11.094100 -20.784100 -20.551200
H -10.276700 -22.404300 -18.699000
N -10.259600 -20.068900 -19.789900
H -9.752200 -20.757600 -16.038200
N -9.576500 -21.954300 -18.480800
O -9.545000 -24.559000 -18.802700
C -9.536000 -20.666300 -18.805800
H -9.266500 -22.936000 -15.876400
C -8.799700 -20.929900 -15.975600
N -8.707800 -19.835500 -18.190900
C -8.644700 -24.121700 -18.119200
C -8.556400 -22.404300 -16.270100
H -8.531200 -20.751700 -15.061700
C -8.512300 -22.647300 -17.780500
H -8.504200 -19.121200 -18.624200
C -8.092300 -19.979900 -16.866600
H -8.066200 -19.109400 -16.437900
H -7.793100 -25.621100 -17.779000
H -7.716500 -22.681200 -15.871900
O -7.704800 -24.835300 -17.560800
H -7.652600 -22.324700 -18.123800
H -7.176800 -20.280400 -16.979500
