24
Fragment
H -15.352000 -23.906600 -24.608000
H -14.876200 -21.862300 -25.752300
O -14.823900 -19.351700 -25.189300
H -14.812200 -21.505800 -23.500400
H -14.735600 -18.565900 -25.407500
H -14.462600 -25.077600 -24.066400
C -14.436400 -24.207100 -24.495100
H -14.024600 -25.065800 -26.252700
C -14.016500 -21.539700 -25.409000
H -13.997600 -23.435300 -22.690200
C -13.972300 -21.782700 -23.898600
C -13.884000 -20.065300 -25.747700
N -13.820900 -24.351500 -25.819400
C -13.729000 -23.257100 -23.604100
H -13.262200 -21.251000 -23.504900
C -12.992800 -23.520700 -26.434300
O -12.983800 -19.628000 -26.431200
N -12.952200 -22.232700 -26.109300
H -12.776500 -23.429400 -23.666700
N -12.269200 -24.118100 -27.418400
H -12.252000 -21.782700 -26.327500
N -11.434700 -23.402900 -28.179700
O -11.128300 -22.216900 -27.944000
O -10.932800 -24.006800 -29.129700
24
Fragment
O -16.101700 -31.371300 -24.269800
O -15.906200 -29.581400 -25.455500
N -15.599800 -30.767400 -25.219800
H -14.782500 -29.147200 -27.072000
N -14.765300 -31.482600 -25.981100
H -14.258000 -30.793900 -29.732800
N -14.082300 -29.597200 -27.290200
O -14.050700 -26.992500 -26.968300
C -14.041700 -30.885200 -26.965200
H -13.772300 -28.615500 -29.894600
C -13.305500 -30.621600 -29.795400
N -13.213600 -31.716000 -27.580100
C -13.150500 -27.429800 -27.651800
C -13.062200 -29.147200 -29.500900
H -13.036900 -30.799800 -30.709300
C -13.018000 -28.904200 -27.990500
H -13.009900 -32.430300 -27.146800
C -12.598100 -31.571600 -28.904400
H -12.571900 -32.442100 -29.333100
H -12.298900 -25.930400 -27.992000
H -12.222300 -28.870300 -29.899100
O -12.210600 -26.716200 -28.210200
H -12.158300 -29.226800 -27.647200
H -11.682500 -31.271100 -28.791500
48
Fragment
H -15.352000 -23.906600 -24.608000
H -14.876200 -21.862300 -25.752300
O -14.823900 -19.351700 -25.189300
H -14.812200 -21.505800 -23.500400
H -14.735600 -18.565900 -25.407500
H -14.462600 -25.077600 -24.066400
C -14.436400 -24.207100 -24.495100
H -14.024600 -25.065800 -26.252700
C -14.016500 -21.539700 -25.409000
H -13.997600 -23.435300 -22.690200
C -13.972300 -21.782700 -23.898600
C -13.884000 -20.065300 -25.747700
N -13.820900 -24.351500 -25.819400
C -13.729000 -23.257100 -23.604100
H -13.262200 -21.251000 -23.504900
C -12.992800 -23.520700 -26.434300
O -12.983800 -19.628000 -26.431200
N -12.952200 -22.232700 -26.109300
H -12.776500 -23.429400 -23.666700
N -12.269200 -24.118100 -27.418400
H -12.252000 -21.782700 -26.327500
N -11.434700 -23.402900 -28.179700
O -11.128300 -22.216900 -27.944000
O -10.932800 -24.006800 -29.129700
O -16.101700 -31.371300 -24.269800
O -15.906200 -29.581400 -25.455500
N -15.599800 -30.767400 -25.219800
H -14.782500 -29.147200 -27.072000
N -14.765300 -31.482600 -25.981100
H -14.258000 -30.793900 -29.732800
N -14.082300 -29.597200 -27.290200
O -14.050700 -26.992500 -26.968300
C -14.041700 -30.885200 -26.965200
H -13.772300 -28.615500 -29.894600
C -13.305500 -30.621600 -29.795400
N -13.213600 -31.716000 -27.580100
C -13.150500 -27.429800 -27.651800
C -13.062200 -29.147200 -29.500900
H -13.036900 -30.799800 -30.709300
C -13.018000 -28.904200 -27.990500
H -13.009900 -32.430300 -27.146800
C -12.598100 -31.571600 -28.904400
H -12.571900 -32.442100 -29.333100
H -12.298900 -25.930400 -27.992000
H -12.222300 -28.870300 -29.899100
O -12.210600 -26.716200 -28.210200
H -12.158300 -29.226800 -27.647200
H -11.682500 -31.271100 -28.791500
