24
Fragment
H -15.352000 -23.906600 -24.608000
H -14.876200 -21.862300 -25.752300
O -14.823900 -19.351700 -25.189300
H -14.812200 -21.505800 -23.500400
H -14.735600 -18.565900 -25.407500
H -14.462600 -25.077600 -24.066400
C -14.436400 -24.207100 -24.495100
H -14.024600 -25.065800 -26.252700
C -14.016500 -21.539700 -25.409000
H -13.997600 -23.435300 -22.690200
C -13.972300 -21.782700 -23.898600
C -13.884000 -20.065300 -25.747700
N -13.820900 -24.351500 -25.819400
C -13.729000 -23.257100 -23.604100
H -13.262200 -21.251000 -23.504900
C -12.992800 -23.520700 -26.434300
O -12.983800 -19.628000 -26.431200
N -12.952200 -22.232700 -26.109300
H -12.776500 -23.429400 -23.666700
N -12.269200 -24.118100 -27.418400
H -12.252000 -21.782700 -26.327500
N -11.434700 -23.402900 -28.179700
O -11.128300 -22.216900 -27.944000
O -10.932800 -24.006800 -29.129700
24
Fragment
H -20.733700 -15.711400 -24.582100
O -20.543500 -16.509700 -24.583600
H -19.871300 -18.720600 -25.796500
H -19.649600 -18.789800 -23.524800
C -19.571200 -16.721800 -25.425800
H -19.361200 -20.988800 -25.146600
C -19.136800 -18.183000 -25.433400
O -19.066500 -15.897000 -26.141300
C -18.820500 -18.692600 -24.017600
C -18.397000 -20.922500 -25.071800
H -18.278000 -20.455600 -23.176900
H -18.277100 -18.034200 -23.558300
C -18.094200 -20.010800 -24.020600
H -18.065400 -21.797400 -24.818600
N -18.005900 -18.287500 -26.339700
N -17.858100 -20.595600 -26.393100
H -17.728300 -21.259800 -26.922500
H -17.602200 -17.557000 -26.545700
C -17.545400 -19.398100 -26.872200
H -17.142600 -19.828200 -24.046600
O -16.883900 -17.263900 -28.429900
N -16.686600 -19.477600 -27.937100
N -16.412600 -18.386200 -28.652600
O -15.608800 -18.546800 -29.572600
48
Fragment
H -15.352000 -23.906600 -24.608000
H -14.876200 -21.862300 -25.752300
O -14.823900 -19.351700 -25.189300
H -14.812200 -21.505800 -23.500400
H -14.735600 -18.565900 -25.407500
H -14.462600 -25.077600 -24.066400
C -14.436400 -24.207100 -24.495100
H -14.024600 -25.065800 -26.252700
C -14.016500 -21.539700 -25.409000
H -13.997600 -23.435300 -22.690200
C -13.972300 -21.782700 -23.898600
C -13.884000 -20.065300 -25.747700
N -13.820900 -24.351500 -25.819400
C -13.729000 -23.257100 -23.604100
H -13.262200 -21.251000 -23.504900
C -12.992800 -23.520700 -26.434300
O -12.983800 -19.628000 -26.431200
N -12.952200 -22.232700 -26.109300
H -12.776500 -23.429400 -23.666700
N -12.269200 -24.118100 -27.418400
H -12.252000 -21.782700 -26.327500
N -11.434700 -23.402900 -28.179700
O -11.128300 -22.216900 -27.944000
O -10.932800 -24.006800 -29.129700
H -20.733700 -15.711400 -24.582100
O -20.543500 -16.509700 -24.583600
H -19.871300 -18.720600 -25.796500
H -19.649600 -18.789800 -23.524800
C -19.571200 -16.721800 -25.425800
H -19.361200 -20.988800 -25.146600
C -19.136800 -18.183000 -25.433400
O -19.066500 -15.897000 -26.141300
C -18.820500 -18.692600 -24.017600
C -18.397000 -20.922500 -25.071800
H -18.278000 -20.455600 -23.176900
H -18.277100 -18.034200 -23.558300
C -18.094200 -20.010800 -24.020600
H -18.065400 -21.797400 -24.818600
N -18.005900 -18.287500 -26.339700
N -17.858100 -20.595600 -26.393100
H -17.728300 -21.259800 -26.922500
H -17.602200 -17.557000 -26.545700
C -17.545400 -19.398100 -26.872200
H -17.142600 -19.828200 -24.046600
O -16.883900 -17.263900 -28.429900
N -16.686600 -19.477600 -27.937100
N -16.412600 -18.386200 -28.652600
O -15.608800 -18.546800 -29.572600
