24
Fragment
H -15.352000 -23.906600 -24.608000
H -14.876200 -21.862300 -25.752300
O -14.823900 -19.351700 -25.189300
H -14.812200 -21.505800 -23.500400
H -14.735600 -18.565900 -25.407500
H -14.462600 -25.077600 -24.066400
C -14.436400 -24.207100 -24.495100
H -14.024600 -25.065800 -26.252700
C -14.016500 -21.539700 -25.409000
H -13.997600 -23.435300 -22.690200
C -13.972300 -21.782700 -23.898600
C -13.884000 -20.065300 -25.747700
N -13.820900 -24.351500 -25.819400
C -13.729000 -23.257100 -23.604100
H -13.262200 -21.251000 -23.504900
C -12.992800 -23.520700 -26.434300
O -12.983800 -19.628000 -26.431200
N -12.952200 -22.232700 -26.109300
H -12.776500 -23.429400 -23.666700
N -12.269200 -24.118100 -27.418400
H -12.252000 -21.782700 -26.327500
N -11.434700 -23.402900 -28.179700
O -11.128300 -22.216900 -27.944000
O -10.932800 -24.006800 -29.129700
24
Fragment
O -11.596000 -20.180200 -36.758200
O -11.400400 -21.970100 -35.572500
N -11.094100 -20.784100 -35.808200
H -10.276700 -22.404300 -33.956000
N -10.259600 -20.068900 -35.046900
H -9.752200 -20.757600 -31.295200
N -9.576500 -21.954300 -33.737800
O -9.545000 -24.559000 -34.059700
C -9.536000 -20.666300 -34.062800
H -9.266500 -22.936000 -31.133400
C -8.799700 -20.929900 -31.232600
N -8.707800 -19.835500 -33.447900
C -8.644700 -24.121700 -33.376200
C -8.556400 -22.404300 -31.527100
H -8.531200 -20.751700 -30.318700
C -8.512300 -22.647300 -33.037500
H -8.504200 -19.121200 -33.881200
C -8.092300 -19.979900 -32.123600
H -8.066200 -19.109400 -31.694900
H -7.793100 -25.621100 -33.036000
H -7.716500 -22.681200 -31.128900
O -7.704800 -24.835300 -32.817800
H -7.652600 -22.324700 -33.380800
H -7.176800 -20.280400 -32.236500
48
Fragment
H -15.352000 -23.906600 -24.608000
H -14.876200 -21.862300 -25.752300
O -14.823900 -19.351700 -25.189300
H -14.812200 -21.505800 -23.500400
H -14.735600 -18.565900 -25.407500
H -14.462600 -25.077600 -24.066400
C -14.436400 -24.207100 -24.495100
H -14.024600 -25.065800 -26.252700
C -14.016500 -21.539700 -25.409000
H -13.997600 -23.435300 -22.690200
C -13.972300 -21.782700 -23.898600
C -13.884000 -20.065300 -25.747700
N -13.820900 -24.351500 -25.819400
C -13.729000 -23.257100 -23.604100
H -13.262200 -21.251000 -23.504900
C -12.992800 -23.520700 -26.434300
O -12.983800 -19.628000 -26.431200
N -12.952200 -22.232700 -26.109300
H -12.776500 -23.429400 -23.666700
N -12.269200 -24.118100 -27.418400
H -12.252000 -21.782700 -26.327500
N -11.434700 -23.402900 -28.179700
O -11.128300 -22.216900 -27.944000
O -10.932800 -24.006800 -29.129700
O -11.596000 -20.180200 -36.758200
O -11.400400 -21.970100 -35.572500
N -11.094100 -20.784100 -35.808200
H -10.276700 -22.404300 -33.956000
N -10.259600 -20.068900 -35.046900
H -9.752200 -20.757600 -31.295200
N -9.576500 -21.954300 -33.737800
O -9.545000 -24.559000 -34.059700
C -9.536000 -20.666300 -34.062800
H -9.266500 -22.936000 -31.133400
C -8.799700 -20.929900 -31.232600
N -8.707800 -19.835500 -33.447900
C -8.644700 -24.121700 -33.376200
C -8.556400 -22.404300 -31.527100
H -8.531200 -20.751700 -30.318700
C -8.512300 -22.647300 -33.037500
H -8.504200 -19.121200 -33.881200
C -8.092300 -19.979900 -32.123600
H -8.066200 -19.109400 -31.694900
H -7.793100 -25.621100 -33.036000
H -7.716500 -22.681200 -31.128900
O -7.704800 -24.835300 -32.817800
H -7.652600 -22.324700 -33.380800
H -7.176800 -20.280400 -32.236500
