24
Fragment
N -23.498800 -15.108700 -10.737200
N -22.918600 -16.255200 -10.233000
H -22.659200 -13.578800 -11.851200
C -22.562200 -14.442500 -11.344500
C -21.666800 -16.217300 -10.580500
N -21.381300 -15.089700 -11.264100
H -21.016500 -16.882600 -10.393700
H -20.431200 -12.686600 -11.407000
C -20.106700 -14.654100 -11.744000
C -19.809800 -13.311100 -11.731000
H -19.434700 -16.543800 -12.227100
C -19.194200 -15.589900 -12.185700
C -18.571000 -12.883100 -12.172700
H -18.330500 -11.929200 -12.131300
C -17.955400 -15.161900 -12.627400
C -17.658400 -13.818900 -12.614400
H -17.334000 -15.786400 -12.951400
H -16.748700 -11.590400 -13.964700
N -16.383900 -13.383300 -13.094300
C -16.098300 -12.255700 -13.777900
C -15.202900 -14.030500 -13.013900
H -15.105900 -14.894200 -12.507200
N -14.846600 -12.217800 -14.125400
N -14.266300 -13.364300 -13.621200
24
Fragment
N -16.613800 -10.363200 -10.737200
N -16.033600 -11.509700 -10.233000
H -15.774200 -8.833300 -11.851200
C -15.677200 -9.697000 -11.344500
C -14.781800 -11.471800 -10.580500
N -14.496300 -10.344200 -11.264100
H -14.131500 -12.137100 -10.393700
H -13.546200 -7.941100 -11.407000
C -13.221700 -9.908600 -11.744000
C -12.924800 -8.565600 -11.731000
H -12.549700 -11.798300 -12.227100
C -12.309200 -10.844400 -12.185700
C -11.686000 -8.137600 -12.172700
H -11.445500 -7.183700 -12.131300
C -11.070400 -10.416400 -12.627400
C -10.773400 -9.073400 -12.614400
H -10.449000 -11.040900 -12.951400
H -9.863700 -6.844900 -13.964700
N -9.498900 -8.637800 -13.094300
C -9.213300 -7.510200 -13.777900
C -8.317900 -9.285000 -13.013900
H -8.220900 -10.148700 -12.507200
N -7.961600 -7.472300 -14.125400
N -7.381300 -8.618800 -13.621200
48
Fragment
N -23.498800 -15.108700 -10.737200
N -22.918600 -16.255200 -10.233000
H -22.659200 -13.578800 -11.851200
C -22.562200 -14.442500 -11.344500
C -21.666800 -16.217300 -10.580500
N -21.381300 -15.089700 -11.264100
H -21.016500 -16.882600 -10.393700
H -20.431200 -12.686600 -11.407000
C -20.106700 -14.654100 -11.744000
C -19.809800 -13.311100 -11.731000
H -19.434700 -16.543800 -12.227100
C -19.194200 -15.589900 -12.185700
C -18.571000 -12.883100 -12.172700
H -18.330500 -11.929200 -12.131300
C -17.955400 -15.161900 -12.627400
C -17.658400 -13.818900 -12.614400
H -17.334000 -15.786400 -12.951400
H -16.748700 -11.590400 -13.964700
N -16.383900 -13.383300 -13.094300
C -16.098300 -12.255700 -13.777900
C -15.202900 -14.030500 -13.013900
H -15.105900 -14.894200 -12.507200
N -14.846600 -12.217800 -14.125400
N -14.266300 -13.364300 -13.621200
N -16.613800 -10.363200 -10.737200
N -16.033600 -11.509700 -10.233000
H -15.774200 -8.833300 -11.851200
C -15.677200 -9.697000 -11.344500
C -14.781800 -11.471800 -10.580500
N -14.496300 -10.344200 -11.264100
H -14.131500 -12.137100 -10.393700
H -13.546200 -7.941100 -11.407000
C -13.221700 -9.908600 -11.744000
C -12.924800 -8.565600 -11.731000
H -12.549700 -11.798300 -12.227100
C -12.309200 -10.844400 -12.185700
C -11.686000 -8.137600 -12.172700
H -11.445500 -7.183700 -12.131300
C -11.070400 -10.416400 -12.627400
C -10.773400 -9.073400 -12.614400
H -10.449000 -11.040900 -12.951400
H -9.863700 -6.844900 -13.964700
N -9.498900 -8.637800 -13.094300
C -9.213300 -7.510200 -13.777900
C -8.317900 -9.285000 -13.013900
H -8.220900 -10.148700 -12.507200
N -7.961600 -7.472300 -14.125400
N -7.381300 -8.618800 -13.621200
