16
Fragment
O -30.349900 -29.855500 -11.636500
O -30.064400 -27.382600 -12.685900
O -29.955100 -32.268400 -10.407000
C -29.116600 -29.857800 -11.691700
N -28.883900 -27.441900 -12.427000
N -28.873500 -32.274600 -10.988500
C -28.289000 -28.724700 -12.084600
C -28.274200 -31.007400 -11.386700
O -28.254900 -33.305400 -11.242200
O -28.179000 -26.462900 -12.432200
C -26.928400 -28.770600 -12.131300
C -26.921000 -30.996800 -11.467600
H -26.453800 -28.009400 -12.374400
H -26.445100 -31.768600 -11.265200
N -26.261100 -29.892000 -11.833600
H -25.408700 -29.923700 -11.834900
16
Fragment
O -36.019400 -28.605400 -7.608900
N -34.983800 -27.975500 -7.432800
O -34.951200 -26.881700 -6.878200
H -34.491000 -30.408700 -7.710100
C -33.731400 -28.575100 -7.867200
C -33.714500 -29.935400 -7.903300
H -32.592000 -31.448100 -8.214100
N -32.592000 -30.600100 -8.214100
C -32.592000 -27.734000 -8.214100
O -32.592000 -26.500600 -8.214100
C -31.469500 -29.935400 -8.524900
C -31.452600 -28.575100 -8.561100
H -30.693000 -30.408700 -8.718100
O -30.232800 -26.881700 -9.550100
N -30.200200 -27.975500 -8.995500
O -29.164600 -28.605400 -8.819300
32
Fragment
O -30.349900 -29.855500 -11.636500
O -30.064400 -27.382600 -12.685900
O -29.955100 -32.268400 -10.407000
C -29.116600 -29.857800 -11.691700
N -28.883900 -27.441900 -12.427000
N -28.873500 -32.274600 -10.988500
C -28.289000 -28.724700 -12.084600
C -28.274200 -31.007400 -11.386700
O -28.254900 -33.305400 -11.242200
O -28.179000 -26.462900 -12.432200
C -26.928400 -28.770600 -12.131300
C -26.921000 -30.996800 -11.467600
H -26.453800 -28.009400 -12.374400
H -26.445100 -31.768600 -11.265200
N -26.261100 -29.892000 -11.833600
H -25.408700 -29.923700 -11.834900
O -36.019400 -28.605400 -7.608900
N -34.983800 -27.975500 -7.432800
O -34.951200 -26.881700 -6.878200
H -34.491000 -30.408700 -7.710100
C -33.731400 -28.575100 -7.867200
C -33.714500 -29.935400 -7.903300
H -32.592000 -31.448100 -8.214100
N -32.592000 -30.600100 -8.214100
C -32.592000 -27.734000 -8.214100
O -32.592000 -26.500600 -8.214100
C -31.469500 -29.935400 -8.524900
C -31.452600 -28.575100 -8.561100
H -30.693000 -30.408700 -8.718100
O -30.232800 -26.881700 -9.550100
N -30.200200 -27.975500 -8.995500
O -29.164600 -28.605400 -8.819300
