16
Fragment
O -30.349900 -29.855500 -11.636500
O -30.064400 -27.382600 -12.685900
O -29.955100 -32.268400 -10.407000
C -29.116600 -29.857800 -11.691700
N -28.883900 -27.441900 -12.427000
N -28.873500 -32.274600 -10.988500
C -28.289000 -28.724700 -12.084600
C -28.274200 -31.007400 -11.386700
O -28.254900 -33.305400 -11.242200
O -28.179000 -26.462900 -12.432200
C -26.928400 -28.770600 -12.131300
C -26.921000 -30.996800 -11.467600
H -26.453800 -28.009400 -12.374400
H -26.445100 -31.768600 -11.265200
N -26.261100 -29.892000 -11.833600
H -25.408700 -29.923700 -11.834900
16
Fragment
H -28.911300 -24.211300 -15.120600
N -28.058900 -24.243000 -15.119200
H -27.874900 -22.366400 -14.550800
H -27.866200 -26.125600 -15.660100
C -27.399000 -23.138200 -14.753200
C -27.391600 -25.364400 -15.416900
O -26.141000 -27.672100 -15.717900
O -26.065100 -20.829600 -14.527800
C -26.045800 -23.127600 -14.672400
C -26.031000 -25.410300 -15.370300
N -25.446500 -21.860400 -14.274200
N -25.436100 -26.693100 -15.712600
C -25.203400 -24.277200 -14.977300
O -24.364900 -21.866600 -13.692600
O -24.255600 -26.752400 -15.971500
O -23.970100 -24.279500 -14.922100
32
Fragment
O -30.349900 -29.855500 -11.636500
O -30.064400 -27.382600 -12.685900
O -29.955100 -32.268400 -10.407000
C -29.116600 -29.857800 -11.691700
N -28.883900 -27.441900 -12.427000
N -28.873500 -32.274600 -10.988500
C -28.289000 -28.724700 -12.084600
C -28.274200 -31.007400 -11.386700
O -28.254900 -33.305400 -11.242200
O -28.179000 -26.462900 -12.432200
C -26.928400 -28.770600 -12.131300
C -26.921000 -30.996800 -11.467600
H -26.453800 -28.009400 -12.374400
H -26.445100 -31.768600 -11.265200
N -26.261100 -29.892000 -11.833600
H -25.408700 -29.923700 -11.834900
H -28.911300 -24.211300 -15.120600
N -28.058900 -24.243000 -15.119200
H -27.874900 -22.366400 -14.550800
H -27.866200 -26.125600 -15.660100
C -27.399000 -23.138200 -14.753200
C -27.391600 -25.364400 -15.416900
O -26.141000 -27.672100 -15.717900
O -26.065100 -20.829600 -14.527800
C -26.045800 -23.127600 -14.672400
C -26.031000 -25.410300 -15.370300
N -25.446500 -21.860400 -14.274200
N -25.436100 -26.693100 -15.712600
C -25.203400 -24.277200 -14.977300
O -24.364900 -21.866600 -13.692600
O -24.255600 -26.752400 -15.971500
O -23.970100 -24.279500 -14.922100
