16
Fragment
O -30.349900 -29.855500 -11.636500
O -30.064400 -27.382600 -12.685900
O -29.955100 -32.268400 -10.407000
C -29.116600 -29.857800 -11.691700
N -28.883900 -27.441900 -12.427000
N -28.873500 -32.274600 -10.988500
C -28.289000 -28.724700 -12.084600
C -28.274200 -31.007400 -11.386700
O -28.254900 -33.305400 -11.242200
O -28.179000 -26.462900 -12.432200
C -26.928400 -28.770600 -12.131300
C -26.921000 -30.996800 -11.467600
H -26.453800 -28.009400 -12.374400
H -26.445100 -31.768600 -11.265200
N -26.261100 -29.892000 -11.833600
H -25.408700 -29.923700 -11.834900
16
Fragment
O -25.155400 -25.529600 -12.105000
N -24.119800 -26.159500 -12.281100
O -24.087200 -27.253300 -12.835700
H -23.627000 -23.726300 -12.003800
C -22.867400 -25.559900 -11.846700
C -22.850500 -24.199600 -11.810600
O -21.728000 -27.634400 -11.499800
C -21.728000 -26.401000 -11.499800
N -21.728000 -23.534900 -11.499800
H -21.728000 -22.686900 -11.499800
C -20.605500 -24.199600 -11.189000
C -20.588600 -25.559900 -11.152800
H -19.829000 -23.726300 -10.995800
O -19.368800 -27.253300 -10.163800
N -19.336200 -26.159500 -10.718400
O -18.300600 -25.529600 -10.894600
32
Fragment
O -30.349900 -29.855500 -11.636500
O -30.064400 -27.382600 -12.685900
O -29.955100 -32.268400 -10.407000
C -29.116600 -29.857800 -11.691700
N -28.883900 -27.441900 -12.427000
N -28.873500 -32.274600 -10.988500
C -28.289000 -28.724700 -12.084600
C -28.274200 -31.007400 -11.386700
O -28.254900 -33.305400 -11.242200
O -28.179000 -26.462900 -12.432200
C -26.928400 -28.770600 -12.131300
C -26.921000 -30.996800 -11.467600
H -26.453800 -28.009400 -12.374400
H -26.445100 -31.768600 -11.265200
N -26.261100 -29.892000 -11.833600
H -25.408700 -29.923700 -11.834900
O -25.155400 -25.529600 -12.105000
N -24.119800 -26.159500 -12.281100
O -24.087200 -27.253300 -12.835700
H -23.627000 -23.726300 -12.003800
C -22.867400 -25.559900 -11.846700
C -22.850500 -24.199600 -11.810600
O -21.728000 -27.634400 -11.499800
C -21.728000 -26.401000 -11.499800
N -21.728000 -23.534900 -11.499800
H -21.728000 -22.686900 -11.499800
C -20.605500 -24.199600 -11.189000
C -20.588600 -25.559900 -11.152800
H -19.829000 -23.726300 -10.995800
O -19.368800 -27.253300 -10.163800
N -19.336200 -26.159500 -10.718400
O -18.300600 -25.529600 -10.894600
