33
Fragment
H -11.692000 -17.816200 -24.426700
H -11.215700 -19.779500 -23.982100
C -10.744200 -18.006900 -24.349400
O -10.557800 -19.319800 -23.814900
H -10.493800 -18.592100 -26.304300
H -10.349600 -17.350500 -23.754200
O -10.324400 -16.606700 -26.252100
C -10.090300 -17.923600 -25.711800
O -9.278600 -14.191700 -31.731200
C -9.209200 -13.825400 -30.529800
N -9.204500 -14.671500 -29.495900
C -9.150700 -14.092400 -28.276700
C -9.141900 -16.208200 -26.945800
N -9.141200 -14.767900 -27.091500
N -9.137100 -12.448300 -30.299200
H -9.128900 -16.624800 -27.832400
H -9.127600 -11.931300 -30.986000
C -9.108500 -13.839400 -26.043600
C -9.107200 -12.723300 -27.983800
H -9.101700 -14.050200 -25.138500
C -9.087400 -12.590800 -26.556100
C -9.080600 -11.864100 -29.082600
H -9.065000 -11.794800 -26.074500
N -9.015300 -10.535200 -29.015400
H -9.009900 -10.067400 -29.738000
H -8.978600 -10.144700 -28.250900
C -8.573700 -18.129400 -25.680700
H -8.273000 -18.363200 -24.777900
O -8.255300 -19.167200 -26.605200
C -8.017200 -16.783400 -26.102500
H -7.832800 -16.222300 -25.332800
H -7.445600 -19.297700 -26.603200
H -7.204800 -16.886800 -26.623700
33
Fragment
H -8.290000 -7.277000 -31.619300
H -7.813700 -5.313700 -32.063900
C -7.342200 -7.086300 -31.696600
O -7.155800 -5.773500 -32.231100
H -7.091800 -6.501200 -29.741700
H -6.947600 -7.742800 -32.291800
O -6.922400 -8.486500 -29.793900
C -6.688300 -7.169600 -30.334200
O -5.876600 -10.901500 -24.314800
C -5.807200 -11.267900 -25.516200
N -5.802500 -10.421700 -26.550100
C -5.748700 -11.000900 -27.769300
C -5.739900 -8.885000 -29.100200
N -5.739200 -10.325400 -28.954500
N -5.735100 -12.645000 -25.746800
H -5.726900 -8.468500 -28.213600
H -5.725600 -13.161900 -25.060000
C -5.706500 -11.253800 -30.002400
C -5.705200 -12.370000 -28.062200
H -5.699700 -11.043000 -30.907500
C -5.685400 -12.502500 -29.489900
C -5.678600 -13.229200 -26.963400
H -5.663000 -13.298400 -29.971500
N -5.613300 -14.558100 -27.030600
H -5.607900 -15.025800 -26.308000
H -5.576600 -14.948600 -27.795100
C -5.171700 -6.963900 -30.365300
H -4.871000 -6.730000 -31.268100
O -4.853300 -5.926000 -29.440800
C -4.615200 -8.309900 -29.943500
H -4.430800 -8.871000 -30.713200
H -4.043600 -5.795500 -29.442800
H -3.802800 -8.206500 -29.422300
66
Fragment
H -11.692000 -17.816200 -24.426700
H -11.215700 -19.779500 -23.982100
C -10.744200 -18.006900 -24.349400
O -10.557800 -19.319800 -23.814900
H -10.493800 -18.592100 -26.304300
H -10.349600 -17.350500 -23.754200
O -10.324400 -16.606700 -26.252100
C -10.090300 -17.923600 -25.711800
O -9.278600 -14.191700 -31.731200
C -9.209200 -13.825400 -30.529800
N -9.204500 -14.671500 -29.495900
C -9.150700 -14.092400 -28.276700
C -9.141900 -16.208200 -26.945800
N -9.141200 -14.767900 -27.091500
N -9.137100 -12.448300 -30.299200
H -9.128900 -16.624800 -27.832400
H -9.127600 -11.931300 -30.986000
C -9.108500 -13.839400 -26.043600
C -9.107200 -12.723300 -27.983800
H -9.101700 -14.050200 -25.138500
C -9.087400 -12.590800 -26.556100
C -9.080600 -11.864100 -29.082600
H -9.065000 -11.794800 -26.074500
N -9.015300 -10.535200 -29.015400
H -9.009900 -10.067400 -29.738000
H -8.978600 -10.144700 -28.250900
C -8.573700 -18.129400 -25.680700
H -8.273000 -18.363200 -24.777900
O -8.255300 -19.167200 -26.605200
C -8.017200 -16.783400 -26.102500
H -7.832800 -16.222300 -25.332800
H -7.445600 -19.297700 -26.603200
H -7.204800 -16.886800 -26.623700
H -8.290000 -7.277000 -31.619300
H -7.813700 -5.313700 -32.063900
C -7.342200 -7.086300 -31.696600
O -7.155800 -5.773500 -32.231100
H -7.091800 -6.501200 -29.741700
H -6.947600 -7.742800 -32.291800
O -6.922400 -8.486500 -29.793900
C -6.688300 -7.169600 -30.334200
O -5.876600 -10.901500 -24.314800
C -5.807200 -11.267900 -25.516200
N -5.802500 -10.421700 -26.550100
C -5.748700 -11.000900 -27.769300
C -5.739900 -8.885000 -29.100200
N -5.739200 -10.325400 -28.954500
N -5.735100 -12.645000 -25.746800
H -5.726900 -8.468500 -28.213600
H -5.725600 -13.161900 -25.060000
C -5.706500 -11.253800 -30.002400
C -5.705200 -12.370000 -28.062200
H -5.699700 -11.043000 -30.907500
C -5.685400 -12.502500 -29.489900
C -5.678600 -13.229200 -26.963400
H -5.663000 -13.298400 -29.971500
N -5.613300 -14.558100 -27.030600
H -5.607900 -15.025800 -26.308000
H -5.576600 -14.948600 -27.795100
C -5.171700 -6.963900 -30.365300
H -4.871000 -6.730000 -31.268100
O -4.853300 -5.926000 -29.440800
C -4.615200 -8.309900 -29.943500
H -4.430800 -8.871000 -30.713200
H -4.043600 -5.795500 -29.442800
H -3.802800 -8.206500 -29.422300
