33
Fragment
H -11.692000 -17.816200 -24.426700
H -11.215700 -19.779500 -23.982100
C -10.744200 -18.006900 -24.349400
O -10.557800 -19.319800 -23.814900
H -10.493800 -18.592100 -26.304300
H -10.349600 -17.350500 -23.754200
O -10.324400 -16.606700 -26.252100
C -10.090300 -17.923600 -25.711800
O -9.278600 -14.191700 -31.731200
C -9.209200 -13.825400 -30.529800
N -9.204500 -14.671500 -29.495900
C -9.150700 -14.092400 -28.276700
C -9.141900 -16.208200 -26.945800
N -9.141200 -14.767900 -27.091500
N -9.137100 -12.448300 -30.299200
H -9.128900 -16.624800 -27.832400
H -9.127600 -11.931300 -30.986000
C -9.108500 -13.839400 -26.043600
C -9.107200 -12.723300 -27.983800
H -9.101700 -14.050200 -25.138500
C -9.087400 -12.590800 -26.556100
C -9.080600 -11.864100 -29.082600
H -9.065000 -11.794800 -26.074500
N -9.015300 -10.535200 -29.015400
H -9.009900 -10.067400 -29.738000
H -8.978600 -10.144700 -28.250900
C -8.573700 -18.129400 -25.680700
H -8.273000 -18.363200 -24.777900
O -8.255300 -19.167200 -26.605200
C -8.017200 -16.783400 -26.102500
H -7.832800 -16.222300 -25.332800
H -7.445600 -19.297700 -26.603200
H -7.204800 -16.886800 -26.623700
33
Fragment
H -15.094000 -17.314300 -31.619300
H -14.617700 -15.351000 -32.063900
C -14.146200 -17.123600 -31.696600
O -13.959800 -15.810800 -32.231100
H -13.895800 -16.538500 -29.741700
H -13.751600 -17.780100 -32.291800
O -13.726400 -18.523800 -29.793900
C -13.492300 -17.206900 -30.334200
O -12.680600 -20.938800 -24.314800
C -12.611200 -21.305200 -25.516200
N -12.606500 -20.459000 -26.550100
C -12.552700 -21.038200 -27.769300
C -12.543900 -18.922300 -29.100200
N -12.543200 -20.362700 -28.954500
N -12.539100 -22.682300 -25.746800
H -12.530900 -18.505800 -28.213600
H -12.529600 -23.199200 -25.060000
C -12.510500 -21.291100 -30.002400
C -12.509200 -22.407300 -28.062200
H -12.503700 -21.080300 -30.907500
C -12.489400 -22.539800 -29.489900
C -12.482600 -23.266500 -26.963400
H -12.467000 -23.335700 -29.971500
N -12.417300 -24.595400 -27.030600
H -12.411900 -25.063100 -26.308000
H -12.380600 -24.985900 -27.795100
C -11.975700 -17.001200 -30.365300
H -11.675000 -16.767300 -31.268100
O -11.657300 -15.963300 -29.440800
C -11.419200 -18.347200 -29.943500
H -11.234800 -18.908300 -30.713200
H -10.847600 -15.832800 -29.442800
H -10.606800 -18.243800 -29.422300
66
Fragment
H -11.692000 -17.816200 -24.426700
H -11.215700 -19.779500 -23.982100
C -10.744200 -18.006900 -24.349400
O -10.557800 -19.319800 -23.814900
H -10.493800 -18.592100 -26.304300
H -10.349600 -17.350500 -23.754200
O -10.324400 -16.606700 -26.252100
C -10.090300 -17.923600 -25.711800
O -9.278600 -14.191700 -31.731200
C -9.209200 -13.825400 -30.529800
N -9.204500 -14.671500 -29.495900
C -9.150700 -14.092400 -28.276700
C -9.141900 -16.208200 -26.945800
N -9.141200 -14.767900 -27.091500
N -9.137100 -12.448300 -30.299200
H -9.128900 -16.624800 -27.832400
H -9.127600 -11.931300 -30.986000
C -9.108500 -13.839400 -26.043600
C -9.107200 -12.723300 -27.983800
H -9.101700 -14.050200 -25.138500
C -9.087400 -12.590800 -26.556100
C -9.080600 -11.864100 -29.082600
H -9.065000 -11.794800 -26.074500
N -9.015300 -10.535200 -29.015400
H -9.009900 -10.067400 -29.738000
H -8.978600 -10.144700 -28.250900
C -8.573700 -18.129400 -25.680700
H -8.273000 -18.363200 -24.777900
O -8.255300 -19.167200 -26.605200
C -8.017200 -16.783400 -26.102500
H -7.832800 -16.222300 -25.332800
H -7.445600 -19.297700 -26.603200
H -7.204800 -16.886800 -26.623700
H -15.094000 -17.314300 -31.619300
H -14.617700 -15.351000 -32.063900
C -14.146200 -17.123600 -31.696600
O -13.959800 -15.810800 -32.231100
H -13.895800 -16.538500 -29.741700
H -13.751600 -17.780100 -32.291800
O -13.726400 -18.523800 -29.793900
C -13.492300 -17.206900 -30.334200
O -12.680600 -20.938800 -24.314800
C -12.611200 -21.305200 -25.516200
N -12.606500 -20.459000 -26.550100
C -12.552700 -21.038200 -27.769300
C -12.543900 -18.922300 -29.100200
N -12.543200 -20.362700 -28.954500
N -12.539100 -22.682300 -25.746800
H -12.530900 -18.505800 -28.213600
H -12.529600 -23.199200 -25.060000
C -12.510500 -21.291100 -30.002400
C -12.509200 -22.407300 -28.062200
H -12.503700 -21.080300 -30.907500
C -12.489400 -22.539800 -29.489900
C -12.482600 -23.266500 -26.963400
H -12.467000 -23.335700 -29.971500
N -12.417300 -24.595400 -27.030600
H -12.411900 -25.063100 -26.308000
H -12.380600 -24.985900 -27.795100
C -11.975700 -17.001200 -30.365300
H -11.675000 -16.767300 -31.268100
O -11.657300 -15.963300 -29.440800
C -11.419200 -18.347200 -29.943500
H -11.234800 -18.908300 -30.713200
H -10.847600 -15.832800 -29.442800
H -10.606800 -18.243800 -29.422300
