33
Fragment
H -11.692000 -17.816200 -24.426700
H -11.215700 -19.779500 -23.982100
C -10.744200 -18.006900 -24.349400
O -10.557800 -19.319800 -23.814900
H -10.493800 -18.592100 -26.304300
H -10.349600 -17.350500 -23.754200
O -10.324400 -16.606700 -26.252100
C -10.090300 -17.923600 -25.711800
O -9.278600 -14.191700 -31.731200
C -9.209200 -13.825400 -30.529800
N -9.204500 -14.671500 -29.495900
C -9.150700 -14.092400 -28.276700
C -9.141900 -16.208200 -26.945800
N -9.141200 -14.767900 -27.091500
N -9.137100 -12.448300 -30.299200
H -9.128900 -16.624800 -27.832400
H -9.127600 -11.931300 -30.986000
C -9.108500 -13.839400 -26.043600
C -9.107200 -12.723300 -27.983800
H -9.101700 -14.050200 -25.138500
C -9.087400 -12.590800 -26.556100
C -9.080600 -11.864100 -29.082600
H -9.065000 -11.794800 -26.074500
N -9.015300 -10.535200 -29.015400
H -9.009900 -10.067400 -29.738000
H -8.978600 -10.144700 -28.250900
C -8.573700 -18.129400 -25.680700
H -8.273000 -18.363200 -24.777900
O -8.255300 -19.167200 -26.605200
C -8.017200 -16.783400 -26.102500
H -7.832800 -16.222300 -25.332800
H -7.445600 -19.297700 -26.603200
H -7.204800 -16.886800 -26.623700
33
Fragment
H -9.805200 -13.225100 -17.282700
H -9.564400 -10.814200 -17.262200
H -9.177200 -13.889600 -15.991800
C -8.992800 -13.328500 -16.761500
O -8.754700 -10.944700 -17.264200
H -8.737000 -11.748700 -15.436900
C -8.436300 -11.982500 -16.339700
H -8.031400 -19.967200 -18.909900
H -8.000100 -20.044500 -20.397000
N -7.994700 -19.576700 -19.674400
H -7.945000 -18.317100 -16.733500
C -7.929400 -18.247800 -19.741600
C -7.922600 -17.521100 -17.215100
H -7.908300 -16.061700 -15.797500
C -7.902800 -17.388600 -18.642800
C -7.901500 -16.272500 -16.702600
H -7.882400 -18.180600 -21.645000
H -7.881100 -13.487100 -18.491400
N -7.872900 -17.663600 -20.958200
N -7.868800 -15.344000 -17.750500
C -7.868100 -13.903700 -17.604800
C -7.859300 -16.019500 -18.935700
N -7.805500 -15.440400 -20.154900
C -7.800800 -16.286500 -21.188800
O -7.731400 -15.920200 -22.390200
C -6.919700 -12.188300 -16.370800
O -6.685600 -13.505200 -16.911100
H -6.660400 -12.761400 -14.413200
H -6.516200 -11.519800 -16.963300
O -6.452200 -10.792100 -14.473900
C -6.265800 -12.105000 -15.008400
H -5.794300 -10.332400 -14.641100
H -5.318000 -12.295700 -15.085700
66
Fragment
H -11.692000 -17.816200 -24.426700
H -11.215700 -19.779500 -23.982100
C -10.744200 -18.006900 -24.349400
O -10.557800 -19.319800 -23.814900
H -10.493800 -18.592100 -26.304300
H -10.349600 -17.350500 -23.754200
O -10.324400 -16.606700 -26.252100
C -10.090300 -17.923600 -25.711800
O -9.278600 -14.191700 -31.731200
C -9.209200 -13.825400 -30.529800
N -9.204500 -14.671500 -29.495900
C -9.150700 -14.092400 -28.276700
C -9.141900 -16.208200 -26.945800
N -9.141200 -14.767900 -27.091500
N -9.137100 -12.448300 -30.299200
H -9.128900 -16.624800 -27.832400
H -9.127600 -11.931300 -30.986000
C -9.108500 -13.839400 -26.043600
C -9.107200 -12.723300 -27.983800
H -9.101700 -14.050200 -25.138500
C -9.087400 -12.590800 -26.556100
C -9.080600 -11.864100 -29.082600
H -9.065000 -11.794800 -26.074500
N -9.015300 -10.535200 -29.015400
H -9.009900 -10.067400 -29.738000
H -8.978600 -10.144700 -28.250900
C -8.573700 -18.129400 -25.680700
H -8.273000 -18.363200 -24.777900
O -8.255300 -19.167200 -26.605200
C -8.017200 -16.783400 -26.102500
H -7.832800 -16.222300 -25.332800
H -7.445600 -19.297700 -26.603200
H -7.204800 -16.886800 -26.623700
H -9.805200 -13.225100 -17.282700
H -9.564400 -10.814200 -17.262200
H -9.177200 -13.889600 -15.991800
C -8.992800 -13.328500 -16.761500
O -8.754700 -10.944700 -17.264200
H -8.737000 -11.748700 -15.436900
C -8.436300 -11.982500 -16.339700
H -8.031400 -19.967200 -18.909900
H -8.000100 -20.044500 -20.397000
N -7.994700 -19.576700 -19.674400
H -7.945000 -18.317100 -16.733500
C -7.929400 -18.247800 -19.741600
C -7.922600 -17.521100 -17.215100
H -7.908300 -16.061700 -15.797500
C -7.902800 -17.388600 -18.642800
C -7.901500 -16.272500 -16.702600
H -7.882400 -18.180600 -21.645000
H -7.881100 -13.487100 -18.491400
N -7.872900 -17.663600 -20.958200
N -7.868800 -15.344000 -17.750500
C -7.868100 -13.903700 -17.604800
C -7.859300 -16.019500 -18.935700
N -7.805500 -15.440400 -20.154900
C -7.800800 -16.286500 -21.188800
O -7.731400 -15.920200 -22.390200
C -6.919700 -12.188300 -16.370800
O -6.685600 -13.505200 -16.911100
H -6.660400 -12.761400 -14.413200
H -6.516200 -11.519800 -16.963300
O -6.452200 -10.792100 -14.473900
C -6.265800 -12.105000 -15.008400
H -5.794300 -10.332400 -14.641100
H -5.318000 -12.295700 -15.085700
