34
Fragment
O -20.953900 -23.073600 -6.475100
O -20.953900 -19.927400 -6.475100
H -20.729100 -21.500500 -4.515700
C -19.907500 -23.424600 -5.952000
C -19.907500 -19.576400 -5.952000
C -19.765800 -21.500500 -4.405700
H -19.578500 -21.500500 -3.453700
H -19.475600 -25.153100 -6.758900
H -19.475600 -17.847900 -6.758900
N -19.234000 -22.715700 -4.981700
N -19.234000 -20.285300 -4.981700
N -19.217400 -24.559500 -6.192700
N -19.217400 -18.441500 -6.192700
H -18.011000 -25.491000 -4.858400
C -18.011000 -24.686600 -5.417600
H -18.011000 -23.565800 -3.608800
C -18.011000 -23.374100 -4.569600
C -18.011000 -19.626900 -4.569600
H -18.011000 -19.435200 -3.608800
C -18.011000 -18.314400 -5.417600
H -18.011000 -17.510000 -4.858400
N -16.804600 -24.559500 -6.192700
N -16.804600 -18.441500 -6.192700
N -16.788000 -22.715700 -4.981700
N -16.788000 -20.285300 -4.981700
H -16.546400 -25.153100 -6.758900
H -16.546400 -17.847900 -6.758900
H -16.443500 -21.500500 -3.453700
C -16.256200 -21.500500 -4.405700
C -16.114500 -23.424600 -5.952000
C -16.114500 -19.576400 -5.952000
H -15.292900 -21.500500 -4.515700
O -15.068100 -23.073600 -6.475100
O -15.068100 -19.927400 -6.475100
34
Fragment
O -26.099900 -16.930600 -8.383900
O -26.099900 -13.784400 -8.383900
H -25.875100 -15.357500 -10.343300
C -25.053500 -17.281600 -8.907000
C -25.053500 -13.433400 -8.907000
C -24.911800 -15.357500 -10.453300
H -24.724500 -15.357500 -11.405300
H -24.621600 -19.010100 -8.100100
H -24.621600 -11.704900 -8.100100
N -24.380000 -16.572700 -9.877300
N -24.380000 -14.142300 -9.877300
N -24.363400 -18.416500 -8.666300
N -24.363400 -12.298500 -8.666300
H -23.157000 -19.348000 -10.000600
C -23.157000 -18.543600 -9.441400
H -23.157000 -17.422800 -11.250200
C -23.157000 -17.231100 -10.289400
C -23.157000 -13.483900 -10.289400
H -23.157000 -13.292200 -11.250200
C -23.157000 -12.171400 -9.441400
H -23.157000 -11.367000 -10.000600
N -21.950600 -18.416500 -8.666300
N -21.950600 -12.298500 -8.666300
N -21.934000 -16.572700 -9.877300
N -21.934000 -14.142300 -9.877300
H -21.692400 -19.010100 -8.100100
H -21.692400 -11.704900 -8.100100
H -21.589500 -15.357500 -11.405300
C -21.402200 -15.357500 -10.453300
C -21.260500 -17.281600 -8.907000
C -21.260500 -13.433400 -8.907000
H -20.438900 -15.357500 -10.343300
O -20.214100 -16.930600 -8.383900
O -20.214100 -13.784400 -8.383900
68
Fragment
O -20.953900 -23.073600 -6.475100
O -20.953900 -19.927400 -6.475100
H -20.729100 -21.500500 -4.515700
C -19.907500 -23.424600 -5.952000
C -19.907500 -19.576400 -5.952000
C -19.765800 -21.500500 -4.405700
H -19.578500 -21.500500 -3.453700
H -19.475600 -25.153100 -6.758900
H -19.475600 -17.847900 -6.758900
N -19.234000 -22.715700 -4.981700
N -19.234000 -20.285300 -4.981700
N -19.217400 -24.559500 -6.192700
N -19.217400 -18.441500 -6.192700
H -18.011000 -25.491000 -4.858400
C -18.011000 -24.686600 -5.417600
H -18.011000 -23.565800 -3.608800
C -18.011000 -23.374100 -4.569600
C -18.011000 -19.626900 -4.569600
H -18.011000 -19.435200 -3.608800
C -18.011000 -18.314400 -5.417600
H -18.011000 -17.510000 -4.858400
N -16.804600 -24.559500 -6.192700
N -16.804600 -18.441500 -6.192700
N -16.788000 -22.715700 -4.981700
N -16.788000 -20.285300 -4.981700
H -16.546400 -25.153100 -6.758900
H -16.546400 -17.847900 -6.758900
H -16.443500 -21.500500 -3.453700
C -16.256200 -21.500500 -4.405700
C -16.114500 -23.424600 -5.952000
C -16.114500 -19.576400 -5.952000
H -15.292900 -21.500500 -4.515700
O -15.068100 -23.073600 -6.475100
O -15.068100 -19.927400 -6.475100
O -26.099900 -16.930600 -8.383900
O -26.099900 -13.784400 -8.383900
H -25.875100 -15.357500 -10.343300
C -25.053500 -17.281600 -8.907000
C -25.053500 -13.433400 -8.907000
C -24.911800 -15.357500 -10.453300
H -24.724500 -15.357500 -11.405300
H -24.621600 -19.010100 -8.100100
H -24.621600 -11.704900 -8.100100
N -24.380000 -16.572700 -9.877300
N -24.380000 -14.142300 -9.877300
N -24.363400 -18.416500 -8.666300
N -24.363400 -12.298500 -8.666300
H -23.157000 -19.348000 -10.000600
C -23.157000 -18.543600 -9.441400
H -23.157000 -17.422800 -11.250200
C -23.157000 -17.231100 -10.289400
C -23.157000 -13.483900 -10.289400
H -23.157000 -13.292200 -11.250200
C -23.157000 -12.171400 -9.441400
H -23.157000 -11.367000 -10.000600
N -21.950600 -18.416500 -8.666300
N -21.950600 -12.298500 -8.666300
N -21.934000 -16.572700 -9.877300
N -21.934000 -14.142300 -9.877300
H -21.692400 -19.010100 -8.100100
H -21.692400 -11.704900 -8.100100
H -21.589500 -15.357500 -11.405300
C -21.402200 -15.357500 -10.453300
C -21.260500 -17.281600 -8.907000
C -21.260500 -13.433400 -8.907000
H -20.438900 -15.357500 -10.343300
O -20.214100 -16.930600 -8.383900
O -20.214100 -13.784400 -8.383900
