34
Fragment
O -20.953900 -23.073600 -6.475100
O -20.953900 -19.927400 -6.475100
H -20.729100 -21.500500 -4.515700
C -19.907500 -23.424600 -5.952000
C -19.907500 -19.576400 -5.952000
C -19.765800 -21.500500 -4.405700
H -19.578500 -21.500500 -3.453700
H -19.475600 -25.153100 -6.758900
H -19.475600 -17.847900 -6.758900
N -19.234000 -22.715700 -4.981700
N -19.234000 -20.285300 -4.981700
N -19.217400 -24.559500 -6.192700
N -19.217400 -18.441500 -6.192700
H -18.011000 -25.491000 -4.858400
C -18.011000 -24.686600 -5.417600
H -18.011000 -23.565800 -3.608800
C -18.011000 -23.374100 -4.569600
C -18.011000 -19.626900 -4.569600
H -18.011000 -19.435200 -3.608800
C -18.011000 -18.314400 -5.417600
H -18.011000 -17.510000 -4.858400
N -16.804600 -24.559500 -6.192700
N -16.804600 -18.441500 -6.192700
N -16.788000 -22.715700 -4.981700
N -16.788000 -20.285300 -4.981700
H -16.546400 -25.153100 -6.758900
H -16.546400 -17.847900 -6.758900
H -16.443500 -21.500500 -3.453700
C -16.256200 -21.500500 -4.405700
C -16.114500 -23.424600 -5.952000
C -16.114500 -19.576400 -5.952000
H -15.292900 -21.500500 -4.515700
O -15.068100 -23.073600 -6.475100
O -15.068100 -19.927400 -6.475100
3
Fragment
H -18.624400 -27.643500 -7.640500
O -18.011000 -27.643500 -7.035700
H -17.397600 -27.643500 -7.640500
37
Fragment
O -20.953900 -23.073600 -6.475100
O -20.953900 -19.927400 -6.475100
H -20.729100 -21.500500 -4.515700
C -19.907500 -23.424600 -5.952000
C -19.907500 -19.576400 -5.952000
C -19.765800 -21.500500 -4.405700
H -19.578500 -21.500500 -3.453700
H -19.475600 -25.153100 -6.758900
H -19.475600 -17.847900 -6.758900
N -19.234000 -22.715700 -4.981700
N -19.234000 -20.285300 -4.981700
N -19.217400 -24.559500 -6.192700
N -19.217400 -18.441500 -6.192700
H -18.011000 -25.491000 -4.858400
C -18.011000 -24.686600 -5.417600
H -18.011000 -23.565800 -3.608800
C -18.011000 -23.374100 -4.569600
C -18.011000 -19.626900 -4.569600
H -18.011000 -19.435200 -3.608800
C -18.011000 -18.314400 -5.417600
H -18.011000 -17.510000 -4.858400
N -16.804600 -24.559500 -6.192700
N -16.804600 -18.441500 -6.192700
N -16.788000 -22.715700 -4.981700
N -16.788000 -20.285300 -4.981700
H -16.546400 -25.153100 -6.758900
H -16.546400 -17.847900 -6.758900
H -16.443500 -21.500500 -3.453700
C -16.256200 -21.500500 -4.405700
C -16.114500 -23.424600 -5.952000
C -16.114500 -19.576400 -5.952000
H -15.292900 -21.500500 -4.515700
O -15.068100 -23.073600 -6.475100
O -15.068100 -19.927400 -6.475100
H -18.624400 -27.643500 -7.640500
O -18.011000 -27.643500 -7.035700
H -17.397600 -27.643500 -7.640500
