34
Fragment
O -20.953900 -23.073600 -6.475100
O -20.953900 -19.927400 -6.475100
H -20.729100 -21.500500 -4.515700
C -19.907500 -23.424600 -5.952000
C -19.907500 -19.576400 -5.952000
C -19.765800 -21.500500 -4.405700
H -19.578500 -21.500500 -3.453700
H -19.475600 -25.153100 -6.758900
H -19.475600 -17.847900 -6.758900
N -19.234000 -22.715700 -4.981700
N -19.234000 -20.285300 -4.981700
N -19.217400 -24.559500 -6.192700
N -19.217400 -18.441500 -6.192700
H -18.011000 -25.491000 -4.858400
C -18.011000 -24.686600 -5.417600
H -18.011000 -23.565800 -3.608800
C -18.011000 -23.374100 -4.569600
C -18.011000 -19.626900 -4.569600
H -18.011000 -19.435200 -3.608800
C -18.011000 -18.314400 -5.417600
H -18.011000 -17.510000 -4.858400
N -16.804600 -24.559500 -6.192700
N -16.804600 -18.441500 -6.192700
N -16.788000 -22.715700 -4.981700
N -16.788000 -20.285300 -4.981700
H -16.546400 -25.153100 -6.758900
H -16.546400 -17.847900 -6.758900
H -16.443500 -21.500500 -3.453700
C -16.256200 -21.500500 -4.405700
C -16.114500 -23.424600 -5.952000
C -16.114500 -19.576400 -5.952000
H -15.292900 -21.500500 -4.515700
O -15.068100 -23.073600 -6.475100
O -15.068100 -19.927400 -6.475100
34
Fragment
O -26.099900 -29.216600 -3.430900
O -26.099900 -26.070400 -3.430900
H -25.875100 -27.643500 -5.390300
C -25.053500 -29.567600 -3.954000
C -25.053500 -25.719400 -3.954000
C -24.911800 -27.643500 -5.500300
H -24.724500 -27.643500 -6.452300
H -24.621600 -31.296100 -3.147100
H -24.621600 -23.990900 -3.147100
N -24.380000 -28.858700 -4.924300
N -24.380000 -26.428300 -4.924300
N -24.363400 -30.702500 -3.713300
N -24.363400 -24.584500 -3.713300
H -23.157000 -31.634000 -5.047600
C -23.157000 -30.829600 -4.488400
H -23.157000 -29.708800 -6.297200
C -23.157000 -29.517100 -5.336400
C -23.157000 -25.769900 -5.336400
H -23.157000 -25.578200 -6.297200
C -23.157000 -24.457400 -4.488400
H -23.157000 -23.653000 -5.047600
N -21.950600 -30.702500 -3.713300
N -21.950600 -24.584500 -3.713300
N -21.934000 -28.858700 -4.924300
N -21.934000 -26.428300 -4.924300
H -21.692400 -31.296100 -3.147100
H -21.692400 -23.990900 -3.147100
H -21.589500 -27.643500 -6.452300
C -21.402200 -27.643500 -5.500300
C -21.260500 -29.567600 -3.954000
C -21.260500 -25.719400 -3.954000
H -20.438900 -27.643500 -5.390300
O -20.214100 -29.216600 -3.430900
O -20.214100 -26.070400 -3.430900
68
Fragment
O -20.953900 -23.073600 -6.475100
O -20.953900 -19.927400 -6.475100
H -20.729100 -21.500500 -4.515700
C -19.907500 -23.424600 -5.952000
C -19.907500 -19.576400 -5.952000
C -19.765800 -21.500500 -4.405700
H -19.578500 -21.500500 -3.453700
H -19.475600 -25.153100 -6.758900
H -19.475600 -17.847900 -6.758900
N -19.234000 -22.715700 -4.981700
N -19.234000 -20.285300 -4.981700
N -19.217400 -24.559500 -6.192700
N -19.217400 -18.441500 -6.192700
H -18.011000 -25.491000 -4.858400
C -18.011000 -24.686600 -5.417600
H -18.011000 -23.565800 -3.608800
C -18.011000 -23.374100 -4.569600
C -18.011000 -19.626900 -4.569600
H -18.011000 -19.435200 -3.608800
C -18.011000 -18.314400 -5.417600
H -18.011000 -17.510000 -4.858400
N -16.804600 -24.559500 -6.192700
N -16.804600 -18.441500 -6.192700
N -16.788000 -22.715700 -4.981700
N -16.788000 -20.285300 -4.981700
H -16.546400 -25.153100 -6.758900
H -16.546400 -17.847900 -6.758900
H -16.443500 -21.500500 -3.453700
C -16.256200 -21.500500 -4.405700
C -16.114500 -23.424600 -5.952000
C -16.114500 -19.576400 -5.952000
H -15.292900 -21.500500 -4.515700
O -15.068100 -23.073600 -6.475100
O -15.068100 -19.927400 -6.475100
O -26.099900 -29.216600 -3.430900
O -26.099900 -26.070400 -3.430900
H -25.875100 -27.643500 -5.390300
C -25.053500 -29.567600 -3.954000
C -25.053500 -25.719400 -3.954000
C -24.911800 -27.643500 -5.500300
H -24.724500 -27.643500 -6.452300
H -24.621600 -31.296100 -3.147100
H -24.621600 -23.990900 -3.147100
N -24.380000 -28.858700 -4.924300
N -24.380000 -26.428300 -4.924300
N -24.363400 -30.702500 -3.713300
N -24.363400 -24.584500 -3.713300
H -23.157000 -31.634000 -5.047600
C -23.157000 -30.829600 -4.488400
H -23.157000 -29.708800 -6.297200
C -23.157000 -29.517100 -5.336400
C -23.157000 -25.769900 -5.336400
H -23.157000 -25.578200 -6.297200
C -23.157000 -24.457400 -4.488400
H -23.157000 -23.653000 -5.047600
N -21.950600 -30.702500 -3.713300
N -21.950600 -24.584500 -3.713300
N -21.934000 -28.858700 -4.924300
N -21.934000 -26.428300 -4.924300
H -21.692400 -31.296100 -3.147100
H -21.692400 -23.990900 -3.147100
H -21.589500 -27.643500 -6.452300
C -21.402200 -27.643500 -5.500300
C -21.260500 -29.567600 -3.954000
C -21.260500 -25.719400 -3.954000
H -20.438900 -27.643500 -5.390300
O -20.214100 -29.216600 -3.430900
O -20.214100 -26.070400 -3.430900
