8
Fragment
O -17.997100 -10.280900 -12.939200
H -17.818600 -8.144700 -12.053000
N -16.950400 -8.436900 -12.201200
C -16.941500 -9.690300 -12.670900
H -16.159500 -8.028200 -11.945900
H -15.817300 -11.116600 -13.195800
N -15.758200 -10.269600 -12.849400
H -15.023700 -9.888600 -12.669100
8
Fragment
O -12.885100 -10.280900 -12.939200
H -12.706600 -8.144700 -12.053000
N -11.838400 -8.436900 -12.201200
C -11.829500 -9.690300 -12.670900
H -11.047500 -8.028200 -11.945900
H -10.705300 -11.116600 -13.195800
N -10.646200 -10.269600 -12.849400
H -9.911700 -9.888600 -12.669100
16
Fragment
O -17.997100 -10.280900 -12.939200
H -17.818600 -8.144700 -12.053000
N -16.950400 -8.436900 -12.201200
C -16.941500 -9.690300 -12.670900
H -16.159500 -8.028200 -11.945900
H -15.817300 -11.116600 -13.195800
N -15.758200 -10.269600 -12.849400
H -15.023700 -9.888600 -12.669100
O -12.885100 -10.280900 -12.939200
H -12.706600 -8.144700 -12.053000
N -11.838400 -8.436900 -12.201200
C -11.829500 -9.690300 -12.670900
H -11.047500 -8.028200 -11.945900
H -10.705300 -11.116600 -13.195800
N -10.646200 -10.269600 -12.849400
H -9.911700 -9.888600 -12.669100
