8
Fragment
O -17.997100 -10.280900 -12.939200
H -17.818600 -8.144700 -12.053000
N -16.950400 -8.436900 -12.201200
C -16.941500 -9.690300 -12.670900
H -16.159500 -8.028200 -11.945900
H -15.817300 -11.116600 -13.195800
N -15.758200 -10.269600 -12.849400
H -15.023700 -9.888600 -12.669100
12
Fragment
O -16.624200 -14.994700 -10.733200
C -15.795400 -14.195700 -10.279000
H -15.663000 -14.575300 -8.437100
N -15.428800 -14.069900 -9.009400
H -15.272500 -13.268300 -11.803000
N -15.088800 -13.325900 -10.987900
H -14.598800 -12.527900 -8.178200
H -14.435400 -11.590600 -10.249500
C -14.331300 -13.179300 -8.821900
C -14.171000 -12.557700 -10.204000
H -13.517900 -13.654600 -8.580000
H -13.323800 -12.693600 -10.597700
20
Fragment
O -17.997100 -10.280900 -12.939200
H -17.818600 -8.144700 -12.053000
N -16.950400 -8.436900 -12.201200
C -16.941500 -9.690300 -12.670900
H -16.159500 -8.028200 -11.945900
H -15.817300 -11.116600 -13.195800
N -15.758200 -10.269600 -12.849400
H -15.023700 -9.888600 -12.669100
O -16.624200 -14.994700 -10.733200
C -15.795400 -14.195700 -10.279000
H -15.663000 -14.575300 -8.437100
N -15.428800 -14.069900 -9.009400
H -15.272500 -13.268300 -11.803000
N -15.088800 -13.325900 -10.987900
H -14.598800 -12.527900 -8.178200
H -14.435400 -11.590600 -10.249500
C -14.331300 -13.179300 -8.821900
C -14.171000 -12.557700 -10.204000
H -13.517900 -13.654600 -8.580000
H -13.323800 -12.693600 -10.597700
