8
Fragment
O -17.997100 -10.280900 -12.939200
H -17.818600 -8.144700 -12.053000
N -16.950400 -8.436900 -12.201200
C -16.941500 -9.690300 -12.670900
H -16.159500 -8.028200 -11.945900
H -15.817300 -11.116600 -13.195800
N -15.758200 -10.269600 -12.849400
H -15.023700 -9.888600 -12.669100
8
Fragment
H -18.666300 -13.471100 -14.115400
N -17.931900 -13.090200 -13.935100
H -17.872700 -12.243200 -13.588700
H -17.530500 -15.331600 -14.838600
C -16.748500 -13.669400 -14.113600
N -16.739700 -14.922900 -14.583300
H -15.871500 -15.215100 -14.731500
O -15.693000 -13.078800 -13.845300
16
Fragment
O -17.997100 -10.280900 -12.939200
H -17.818600 -8.144700 -12.053000
N -16.950400 -8.436900 -12.201200
C -16.941500 -9.690300 -12.670900
H -16.159500 -8.028200 -11.945900
H -15.817300 -11.116600 -13.195800
N -15.758200 -10.269600 -12.849400
H -15.023700 -9.888600 -12.669100
H -18.666300 -13.471100 -14.115400
N -17.931900 -13.090200 -13.935100
H -17.872700 -12.243200 -13.588700
H -17.530500 -15.331600 -14.838600
C -16.748500 -13.669400 -14.113600
N -16.739700 -14.922900 -14.583300
H -15.871500 -15.215100 -14.731500
O -15.693000 -13.078800 -13.845300
