8
Fragment
O -17.997100 -10.280900 -12.939200
H -17.818600 -8.144700 -12.053000
N -16.950400 -8.436900 -12.201200
C -16.941500 -9.690300 -12.670900
H -16.159500 -8.028200 -11.945900
H -15.817300 -11.116600 -13.195800
N -15.758200 -10.269600 -12.849400
H -15.023700 -9.888600 -12.669100
12
Fragment
O -19.727300 -7.308900 -10.733200
C -18.898500 -6.509800 -10.279000
H -18.766200 -6.889500 -8.437100
N -18.532000 -6.384100 -9.009400
H -18.375600 -5.582500 -11.803000
N -18.191900 -5.640100 -10.987900
H -17.702000 -4.842100 -8.178200
H -17.538500 -3.904800 -10.249500
C -17.434400 -5.493500 -8.821900
C -17.274100 -4.871900 -10.204000
H -16.621000 -5.968800 -8.580000
H -16.426900 -5.007800 -10.597700
20
Fragment
O -17.997100 -10.280900 -12.939200
H -17.818600 -8.144700 -12.053000
N -16.950400 -8.436900 -12.201200
C -16.941500 -9.690300 -12.670900
H -16.159500 -8.028200 -11.945900
H -15.817300 -11.116600 -13.195800
N -15.758200 -10.269600 -12.849400
H -15.023700 -9.888600 -12.669100
O -19.727300 -7.308900 -10.733200
C -18.898500 -6.509800 -10.279000
H -18.766200 -6.889500 -8.437100
N -18.532000 -6.384100 -9.009400
H -18.375600 -5.582500 -11.803000
N -18.191900 -5.640100 -10.987900
H -17.702000 -4.842100 -8.178200
H -17.538500 -3.904800 -10.249500
C -17.434400 -5.493500 -8.821900
C -17.274100 -4.871900 -10.204000
H -16.621000 -5.968800 -8.580000
H -16.426900 -5.007800 -10.597700
