15
Fragment
H -13.569600 -26.701900 -65.503600
O -13.335000 -26.663300 -64.719100
C -12.651100 -25.550400 -64.518700
O -12.509700 -24.703300 -65.364700
H -12.151400 -22.997800 -63.860200
C -12.047400 -25.506300 -63.168300
H -12.014600 -26.306600 -62.694100
H -11.822000 -22.435600 -62.435800
C -11.551500 -24.437400 -62.572400
C -11.545400 -23.051200 -63.119400
C -10.937100 -24.636800 -61.213000
O -10.814900 -25.712900 -60.679700
H -10.659800 -22.827700 -63.414100
O -10.531400 -23.513400 -60.672600
H -10.250200 -23.659300 -59.915900
24
Fragment
H -12.249200 -29.602800 -64.873600
H -12.224700 -29.617000 -70.445700
H -12.182700 -30.858000 -65.812700
O -12.078000 -30.771400 -68.099100
C -11.692900 -30.103500 -65.476200
C -11.531600 -29.706900 -67.889400
C -11.305500 -29.382300 -70.298200
N -11.284100 -29.241600 -66.599300
N -11.137300 -28.902000 -68.929100
H -11.049500 -28.692600 -70.915300
H -10.912700 -30.412300 -65.010600
H -10.752200 -30.155600 -70.437900
C -10.661300 -28.039300 -66.236900
C -10.547400 -27.692800 -68.655900
O -10.430500 -27.772000 -65.073200
C -10.334200 -27.262600 -67.380300
N -10.105000 -26.792000 -69.569200
H -10.050700 -24.898700 -65.898800
N -9.721400 -26.025400 -67.507500
C -9.619800 -25.798400 -68.817900
C -9.293500 -25.139600 -66.440000
H -9.246900 -25.024700 -69.174000
H -8.906100 -24.345900 -66.818400
H -8.640900 -25.585300 -65.894900
39
Fragment
H -13.569600 -26.701900 -65.503600
O -13.335000 -26.663300 -64.719100
C -12.651100 -25.550400 -64.518700
O -12.509700 -24.703300 -65.364700
H -12.151400 -22.997800 -63.860200
C -12.047400 -25.506300 -63.168300
H -12.014600 -26.306600 -62.694100
H -11.822000 -22.435600 -62.435800
C -11.551500 -24.437400 -62.572400
C -11.545400 -23.051200 -63.119400
C -10.937100 -24.636800 -61.213000
O -10.814900 -25.712900 -60.679700
H -10.659800 -22.827700 -63.414100
O -10.531400 -23.513400 -60.672600
H -10.250200 -23.659300 -59.915900
H -12.249200 -29.602800 -64.873600
H -12.224700 -29.617000 -70.445700
H -12.182700 -30.858000 -65.812700
O -12.078000 -30.771400 -68.099100
C -11.692900 -30.103500 -65.476200
C -11.531600 -29.706900 -67.889400
C -11.305500 -29.382300 -70.298200
N -11.284100 -29.241600 -66.599300
N -11.137300 -28.902000 -68.929100
H -11.049500 -28.692600 -70.915300
H -10.912700 -30.412300 -65.010600
H -10.752200 -30.155600 -70.437900
C -10.661300 -28.039300 -66.236900
C -10.547400 -27.692800 -68.655900
O -10.430500 -27.772000 -65.073200
C -10.334200 -27.262600 -67.380300
N -10.105000 -26.792000 -69.569200
H -10.050700 -24.898700 -65.898800
N -9.721400 -26.025400 -67.507500
C -9.619800 -25.798400 -68.817900
C -9.293500 -25.139600 -66.440000
H -9.246900 -25.024700 -69.174000
H -8.906100 -24.345900 -66.818400
H -8.640900 -25.585300 -65.894900
