15
Fragment
H -13.569600 -26.701900 -65.503600
O -13.335000 -26.663300 -64.719100
C -12.651100 -25.550400 -64.518700
O -12.509700 -24.703300 -65.364700
H -12.151400 -22.997800 -63.860200
C -12.047400 -25.506300 -63.168300
H -12.014600 -26.306600 -62.694100
H -11.822000 -22.435600 -62.435800
C -11.551500 -24.437400 -62.572400
C -11.545400 -23.051200 -63.119400
C -10.937100 -24.636800 -61.213000
O -10.814900 -25.712900 -60.679700
H -10.659800 -22.827700 -63.414100
O -10.531400 -23.513400 -60.672600
H -10.250200 -23.659300 -59.915900
24
Fragment
H -18.104000 -17.711000 -65.894900
H -17.838800 -16.471600 -66.818400
H -17.498000 -17.150300 -69.174000
C -17.451400 -17.265300 -66.440000
C -17.125100 -17.924100 -68.817900
N -17.023500 -18.151000 -67.507500
H -16.694200 -17.024300 -65.898800
N -16.639900 -18.917700 -69.569200
C -16.410700 -19.388200 -67.380300
O -16.314400 -19.897700 -65.073200
C -16.197500 -19.818500 -68.655900
C -16.083600 -20.165000 -66.236900
H -15.992700 -22.281300 -70.437900
H -15.832200 -22.538000 -65.010600
H -15.695400 -20.818200 -70.915300
N -15.607600 -21.027700 -68.929100
N -15.460800 -21.367200 -66.599300
C -15.439400 -21.508000 -70.298200
C -15.213300 -21.832600 -67.889400
C -15.052000 -22.229100 -65.476200
O -14.666900 -22.897000 -68.099100
H -14.562200 -22.983700 -65.812700
H -14.520200 -21.742700 -70.445700
H -14.495700 -21.728500 -64.873600
39
Fragment
H -13.569600 -26.701900 -65.503600
O -13.335000 -26.663300 -64.719100
C -12.651100 -25.550400 -64.518700
O -12.509700 -24.703300 -65.364700
H -12.151400 -22.997800 -63.860200
C -12.047400 -25.506300 -63.168300
H -12.014600 -26.306600 -62.694100
H -11.822000 -22.435600 -62.435800
C -11.551500 -24.437400 -62.572400
C -11.545400 -23.051200 -63.119400
C -10.937100 -24.636800 -61.213000
O -10.814900 -25.712900 -60.679700
H -10.659800 -22.827700 -63.414100
O -10.531400 -23.513400 -60.672600
H -10.250200 -23.659300 -59.915900
H -18.104000 -17.711000 -65.894900
H -17.838800 -16.471600 -66.818400
H -17.498000 -17.150300 -69.174000
C -17.451400 -17.265300 -66.440000
C -17.125100 -17.924100 -68.817900
N -17.023500 -18.151000 -67.507500
H -16.694200 -17.024300 -65.898800
N -16.639900 -18.917700 -69.569200
C -16.410700 -19.388200 -67.380300
O -16.314400 -19.897700 -65.073200
C -16.197500 -19.818500 -68.655900
C -16.083600 -20.165000 -66.236900
H -15.992700 -22.281300 -70.437900
H -15.832200 -22.538000 -65.010600
H -15.695400 -20.818200 -70.915300
N -15.607600 -21.027700 -68.929100
N -15.460800 -21.367200 -66.599300
C -15.439400 -21.508000 -70.298200
C -15.213300 -21.832600 -67.889400
C -15.052000 -22.229100 -65.476200
O -14.666900 -22.897000 -68.099100
H -14.562200 -22.983700 -65.812700
H -14.520200 -21.742700 -70.445700
H -14.495700 -21.728500 -64.873600
