15
Fragment
H -13.569600 -26.701900 -65.503600
O -13.335000 -26.663300 -64.719100
C -12.651100 -25.550400 -64.518700
O -12.509700 -24.703300 -65.364700
H -12.151400 -22.997800 -63.860200
C -12.047400 -25.506300 -63.168300
H -12.014600 -26.306600 -62.694100
H -11.822000 -22.435600 -62.435800
C -11.551500 -24.437400 -62.572400
C -11.545400 -23.051200 -63.119400
C -10.937100 -24.636800 -61.213000
O -10.814900 -25.712900 -60.679700
H -10.659800 -22.827700 -63.414100
O -10.531400 -23.513400 -60.672600
H -10.250200 -23.659300 -59.915900
24
Fragment
H -16.069900 -29.602800 -72.081400
H -16.045400 -29.617000 -66.509300
H -16.003400 -30.858000 -71.142300
O -15.898700 -30.771400 -68.855900
C -15.513600 -30.103500 -71.478800
C -15.352300 -29.706900 -69.065600
C -15.126200 -29.382300 -66.656800
N -15.104800 -29.241600 -70.355700
N -14.958000 -28.902000 -68.025900
H -14.870200 -28.692600 -66.039700
H -14.733400 -30.412300 -71.944400
H -14.572900 -30.155600 -66.517100
C -14.482000 -28.039300 -70.718100
C -14.368100 -27.692800 -68.299100
O -14.251200 -27.772000 -71.881800
C -14.154900 -27.262600 -69.574700
N -13.925700 -26.792000 -67.385800
H -13.871400 -24.898700 -71.056200
N -13.542100 -26.025400 -69.447500
C -13.440500 -25.798400 -68.137100
C -13.114200 -25.139600 -70.515000
H -13.067600 -25.024700 -67.781000
H -12.726800 -24.345900 -70.136600
H -12.461600 -25.585300 -71.060100
39
Fragment
H -13.569600 -26.701900 -65.503600
O -13.335000 -26.663300 -64.719100
C -12.651100 -25.550400 -64.518700
O -12.509700 -24.703300 -65.364700
H -12.151400 -22.997800 -63.860200
C -12.047400 -25.506300 -63.168300
H -12.014600 -26.306600 -62.694100
H -11.822000 -22.435600 -62.435800
C -11.551500 -24.437400 -62.572400
C -11.545400 -23.051200 -63.119400
C -10.937100 -24.636800 -61.213000
O -10.814900 -25.712900 -60.679700
H -10.659800 -22.827700 -63.414100
O -10.531400 -23.513400 -60.672600
H -10.250200 -23.659300 -59.915900
H -16.069900 -29.602800 -72.081400
H -16.045400 -29.617000 -66.509300
H -16.003400 -30.858000 -71.142300
O -15.898700 -30.771400 -68.855900
C -15.513600 -30.103500 -71.478800
C -15.352300 -29.706900 -69.065600
C -15.126200 -29.382300 -66.656800
N -15.104800 -29.241600 -70.355700
N -14.958000 -28.902000 -68.025900
H -14.870200 -28.692600 -66.039700
H -14.733400 -30.412300 -71.944400
H -14.572900 -30.155600 -66.517100
C -14.482000 -28.039300 -70.718100
C -14.368100 -27.692800 -68.299100
O -14.251200 -27.772000 -71.881800
C -14.154900 -27.262600 -69.574700
N -13.925700 -26.792000 -67.385800
H -13.871400 -24.898700 -71.056200
N -13.542100 -26.025400 -69.447500
C -13.440500 -25.798400 -68.137100
C -13.114200 -25.139600 -70.515000
H -13.067600 -25.024700 -67.781000
H -12.726800 -24.345900 -70.136600
H -12.461600 -25.585300 -71.060100
