3
Fragment
H -9.999900 -10.868900 -11.911100
O -9.586700 -10.868900 -11.071500
H -8.673100 -10.868900 -11.009600
11
Fragment
O -12.372000 -13.974300 -12.548400
H -11.385100 -13.974300 -10.402600
C -11.180300 -13.974300 -12.304400
N -10.721700 -13.974300 -11.016300
N -10.245900 -13.974300 -13.324900
C -9.410200 -13.974300 -10.648600
O -9.028900 -13.974300 -9.499000
C -9.003300 -13.974300 -12.990800
N -8.548300 -13.974300 -11.731000
H -8.353000 -13.974300 -13.704700
H -7.662400 -13.974300 -11.608600
14
Fragment
H -9.999900 -10.868900 -11.911100
O -9.586700 -10.868900 -11.071500
H -8.673100 -10.868900 -11.009600
O -12.372000 -13.974300 -12.548400
H -11.385100 -13.974300 -10.402600
C -11.180300 -13.974300 -12.304400
N -10.721700 -13.974300 -11.016300
N -10.245900 -13.974300 -13.324900
C -9.410200 -13.974300 -10.648600
O -9.028900 -13.974300 -9.499000
C -9.003300 -13.974300 -12.990800
N -8.548300 -13.974300 -11.731000
H -8.353000 -13.974300 -13.704700
H -7.662400 -13.974300 -11.608600
