3
Fragment
H -9.999900 -10.868900 -11.911100
O -9.586700 -10.868900 -11.071500
H -8.673100 -10.868900 -11.009600
11
Fragment
H -14.609800 -10.868900 -8.559200
H -13.919200 -10.868900 -6.463100
N -13.723900 -10.868900 -8.436900
C -13.268900 -10.868900 -7.177100
O -13.243200 -10.868900 -10.668800
C -12.861900 -10.868900 -9.519200
N -12.026300 -10.868900 -6.842900
N -11.550500 -10.868900 -9.151500
C -11.091900 -10.868900 -7.863400
H -10.887100 -10.868900 -9.765300
O -9.900100 -10.868900 -7.619400
14
Fragment
H -9.999900 -10.868900 -11.911100
O -9.586700 -10.868900 -11.071500
H -8.673100 -10.868900 -11.009600
H -14.609800 -10.868900 -8.559200
H -13.919200 -10.868900 -6.463100
N -13.723900 -10.868900 -8.436900
C -13.268900 -10.868900 -7.177100
O -13.243200 -10.868900 -10.668800
C -12.861900 -10.868900 -9.519200
N -12.026300 -10.868900 -6.842900
N -11.550500 -10.868900 -9.151500
C -11.091900 -10.868900 -7.863400
H -10.887100 -10.868900 -9.765300
O -9.900100 -10.868900 -7.619400
