3
Fragment
H -9.999900 -10.868900 -11.911100
O -9.586700 -10.868900 -11.071500
H -8.673100 -10.868900 -11.009600
11
Fragment
H -13.458400 -10.868900 -15.281800
H -12.767800 -10.868900 -13.185700
N -12.572500 -10.868900 -15.159500
C -12.117500 -10.868900 -13.899700
O -12.091800 -10.868900 -17.391400
C -11.710500 -10.868900 -16.241800
N -10.874900 -10.868900 -13.565600
N -10.399100 -10.868900 -15.874100
C -9.940500 -10.868900 -14.586000
H -9.735700 -10.868900 -16.487900
O -8.748700 -10.868900 -14.342000
14
Fragment
H -9.999900 -10.868900 -11.911100
O -9.586700 -10.868900 -11.071500
H -8.673100 -10.868900 -11.009600
H -13.458400 -10.868900 -15.281800
H -12.767800 -10.868900 -13.185700
N -12.572500 -10.868900 -15.159500
C -12.117500 -10.868900 -13.899700
O -12.091800 -10.868900 -17.391400
C -11.710500 -10.868900 -16.241800
N -10.874900 -10.868900 -13.565600
N -10.399100 -10.868900 -15.874100
C -9.940500 -10.868900 -14.586000
H -9.735700 -10.868900 -16.487900
O -8.748700 -10.868900 -14.342000
