22
Fragment
N -21.552900 -16.982000 -25.285800
N -20.953100 -16.721100 -26.528500
H -20.703800 -17.314000 -23.503600
C -20.583000 -17.129100 -24.427500
C -19.662100 -16.723900 -26.355600
N -19.369100 -16.981200 -25.035700
H -19.019400 -16.570800 -27.037800
N -18.189500 -17.050700 -24.302800
H -17.125900 -16.864600 -25.906000
C -17.100000 -16.966000 -24.961600
F -16.706600 -16.755500 -22.096300
C -15.811900 -17.023300 -24.270600
C -15.634600 -16.895000 -22.890300
F -14.757700 -17.336500 -26.347400
C -14.630300 -17.192700 -25.005800
C -14.394100 -16.906000 -22.282900
H -14.310900 -16.798000 -21.343000
C -13.367200 -17.230800 -24.460200
C -13.266900 -17.079300 -23.083800
H -12.597000 -17.354800 -25.002700
C -11.960000 -17.137500 -22.453600
N -10.946500 -17.182900 -21.933700
22
Fragment
N -23.412400 -16.965400 -34.058100
C -22.389100 -16.931300 -33.557500
H -21.757800 -17.095500 -30.996100
C -21.073000 -16.944500 -32.930400
C -20.983600 -17.058500 -31.544100
H -20.018300 -16.822700 -34.684200
C -19.941200 -16.904100 -33.740400
C -19.716100 -17.114600 -31.008700
F -19.601600 -17.226700 -29.660500
C -18.707400 -16.984400 -33.135800
C -18.531500 -17.073500 -31.748400
F -17.625400 -16.991300 -33.934900
C -17.241000 -17.097200 -31.056500
H -17.213700 -17.127600 -30.107700
N -16.152400 -17.076700 -31.724600
H -15.336400 -16.616500 -28.989400
N -14.974500 -17.056900 -30.973400
C -14.692600 -16.803900 -29.662600
C -13.764600 -17.267100 -31.570000
H -13.644400 -17.465900 -32.490800
N -13.395000 -16.859300 -29.474900
N -12.798500 -17.159500 -30.705900
44
Fragment
N -21.552900 -16.982000 -25.285800
N -20.953100 -16.721100 -26.528500
H -20.703800 -17.314000 -23.503600
C -20.583000 -17.129100 -24.427500
C -19.662100 -16.723900 -26.355600
N -19.369100 -16.981200 -25.035700
H -19.019400 -16.570800 -27.037800
N -18.189500 -17.050700 -24.302800
H -17.125900 -16.864600 -25.906000
C -17.100000 -16.966000 -24.961600
F -16.706600 -16.755500 -22.096300
C -15.811900 -17.023300 -24.270600
C -15.634600 -16.895000 -22.890300
F -14.757700 -17.336500 -26.347400
C -14.630300 -17.192700 -25.005800
C -14.394100 -16.906000 -22.282900
H -14.310900 -16.798000 -21.343000
C -13.367200 -17.230800 -24.460200
C -13.266900 -17.079300 -23.083800
H -12.597000 -17.354800 -25.002700
C -11.960000 -17.137500 -22.453600
N -10.946500 -17.182900 -21.933700
N -23.412400 -16.965400 -34.058100
C -22.389100 -16.931300 -33.557500
H -21.757800 -17.095500 -30.996100
C -21.073000 -16.944500 -32.930400
C -20.983600 -17.058500 -31.544100
H -20.018300 -16.822700 -34.684200
C -19.941200 -16.904100 -33.740400
C -19.716100 -17.114600 -31.008700
F -19.601600 -17.226700 -29.660500
C -18.707400 -16.984400 -33.135800
C -18.531500 -17.073500 -31.748400
F -17.625400 -16.991300 -33.934900
C -17.241000 -17.097200 -31.056500
H -17.213700 -17.127600 -30.107700
N -16.152400 -17.076700 -31.724600
H -15.336400 -16.616500 -28.989400
N -14.974500 -17.056900 -30.973400
C -14.692600 -16.803900 -29.662600
C -13.764600 -17.267100 -31.570000
H -13.644400 -17.465900 -32.490800
N -13.395000 -16.859300 -29.474900
N -12.798500 -17.159500 -30.705900
