25
Fragment
N -25.791100 -13.965500 -25.799000
H -25.256800 -15.116800 -27.355200
N -25.089200 -12.960800 -25.145100
C -25.024200 -14.418600 -26.754300
C -23.934900 -12.856700 -25.746100
N -23.845900 -13.746800 -26.761500
H -23.710400 -12.780000 -29.038700
F -23.579800 -12.954700 -31.378000
H -23.252200 -12.241500 -25.503700
H -22.997100 -11.137000 -28.090700
N -22.796500 -13.967700 -27.674900
C -22.784500 -12.895500 -28.678200
O -22.345400 -11.663700 -28.150200
C -22.279400 -13.233000 -31.138500
H -22.010000 -13.964700 -27.227700
C -21.861000 -13.280700 -29.819100
H -21.784900 -13.405200 -33.105100
C -21.457200 -13.465500 -32.216000
C -20.525400 -13.609600 -29.635000
C -20.129700 -13.791700 -31.958500
F -20.070500 -13.685700 -28.361900
C -19.641900 -13.869900 -30.659100
C -19.247500 -14.103500 -33.060900
H -18.735600 -14.094800 -30.484200
N -18.550400 -14.400800 -33.926100
25
Fragment
N -18.335100 -13.965500 -25.799000
H -17.800800 -15.116800 -27.355200
N -17.633200 -12.960800 -25.145100
C -17.568200 -14.418600 -26.754300
C -16.478900 -12.856700 -25.746100
N -16.389900 -13.746800 -26.761500
H -16.254400 -12.780000 -29.038700
F -16.123800 -12.954700 -31.378000
H -15.796200 -12.241500 -25.503700
H -15.541100 -11.137000 -28.090700
N -15.340500 -13.967700 -27.674900
C -15.328500 -12.895500 -28.678200
O -14.889400 -11.663700 -28.150200
C -14.823400 -13.233000 -31.138500
H -14.554000 -13.964700 -27.227700
C -14.405000 -13.280700 -29.819100
H -14.328900 -13.405200 -33.105100
C -14.001200 -13.465500 -32.216000
C -13.069400 -13.609600 -29.635000
C -12.673700 -13.791700 -31.958500
F -12.614500 -13.685700 -28.361900
C -12.185900 -13.869900 -30.659100
C -11.791500 -14.103500 -33.060900
H -11.279600 -14.094800 -30.484200
N -11.094400 -14.400800 -33.926100
50
Fragment
N -25.791100 -13.965500 -25.799000
H -25.256800 -15.116800 -27.355200
N -25.089200 -12.960800 -25.145100
C -25.024200 -14.418600 -26.754300
C -23.934900 -12.856700 -25.746100
N -23.845900 -13.746800 -26.761500
H -23.710400 -12.780000 -29.038700
F -23.579800 -12.954700 -31.378000
H -23.252200 -12.241500 -25.503700
H -22.997100 -11.137000 -28.090700
N -22.796500 -13.967700 -27.674900
C -22.784500 -12.895500 -28.678200
O -22.345400 -11.663700 -28.150200
C -22.279400 -13.233000 -31.138500
H -22.010000 -13.964700 -27.227700
C -21.861000 -13.280700 -29.819100
H -21.784900 -13.405200 -33.105100
C -21.457200 -13.465500 -32.216000
C -20.525400 -13.609600 -29.635000
C -20.129700 -13.791700 -31.958500
F -20.070500 -13.685700 -28.361900
C -19.641900 -13.869900 -30.659100
C -19.247500 -14.103500 -33.060900
H -18.735600 -14.094800 -30.484200
N -18.550400 -14.400800 -33.926100
N -18.335100 -13.965500 -25.799000
H -17.800800 -15.116800 -27.355200
N -17.633200 -12.960800 -25.145100
C -17.568200 -14.418600 -26.754300
C -16.478900 -12.856700 -25.746100
N -16.389900 -13.746800 -26.761500
H -16.254400 -12.780000 -29.038700
F -16.123800 -12.954700 -31.378000
H -15.796200 -12.241500 -25.503700
H -15.541100 -11.137000 -28.090700
N -15.340500 -13.967700 -27.674900
C -15.328500 -12.895500 -28.678200
O -14.889400 -11.663700 -28.150200
C -14.823400 -13.233000 -31.138500
H -14.554000 -13.964700 -27.227700
C -14.405000 -13.280700 -29.819100
H -14.328900 -13.405200 -33.105100
C -14.001200 -13.465500 -32.216000
C -13.069400 -13.609600 -29.635000
C -12.673700 -13.791700 -31.958500
F -12.614500 -13.685700 -28.361900
C -12.185900 -13.869900 -30.659100
C -11.791500 -14.103500 -33.060900
H -11.279600 -14.094800 -30.484200
N -11.094400 -14.400800 -33.926100
