25
Fragment
N -25.791100 -13.965500 -25.799000
H -25.256800 -15.116800 -27.355200
N -25.089200 -12.960800 -25.145100
C -25.024200 -14.418600 -26.754300
C -23.934900 -12.856700 -25.746100
N -23.845900 -13.746800 -26.761500
H -23.710400 -12.780000 -29.038700
F -23.579800 -12.954700 -31.378000
H -23.252200 -12.241500 -25.503700
H -22.997100 -11.137000 -28.090700
N -22.796500 -13.967700 -27.674900
C -22.784500 -12.895500 -28.678200
O -22.345400 -11.663700 -28.150200
C -22.279400 -13.233000 -31.138500
H -22.010000 -13.964700 -27.227700
C -21.861000 -13.280700 -29.819100
H -21.784900 -13.405200 -33.105100
C -21.457200 -13.465500 -32.216000
C -20.525400 -13.609600 -29.635000
C -20.129700 -13.791700 -31.958500
F -20.070500 -13.685700 -28.361900
C -19.641900 -13.869900 -30.659100
C -19.247500 -14.103500 -33.060900
H -18.735600 -14.094800 -30.484200
N -18.550400 -14.400800 -33.926100
25
Fragment
H -23.192500 -14.028000 -37.698700
N -23.014600 -13.000100 -35.988200
C -22.622000 -13.586300 -37.082200
N -21.897400 -12.460200 -35.372100
H -21.827700 -11.952900 -39.554400
O -21.572100 -12.663900 -39.921500
N -21.281800 -13.471800 -37.209100
F -21.182600 -14.472000 -41.805700
C -20.869300 -12.776700 -36.129700
H -20.834400 -14.773200 -38.527700
N -20.468600 -13.999900 -38.233300
C -20.366300 -13.072000 -39.355400
H -19.965900 -12.548300 -35.942900
H -19.893200 -12.253800 -39.029400
C -19.869600 -14.394700 -41.521900
C -19.451400 -13.762100 -40.361100
H -19.322100 -15.390000 -43.216900
C -18.996900 -14.973400 -42.426600
C -18.080000 -13.780900 -40.143600
C -17.633600 -14.931400 -42.154700
F -17.624300 -13.184800 -39.014900
C -17.147900 -14.342200 -40.991800
C -16.707000 -15.479800 -43.119100
H -16.219300 -14.326800 -40.791500
N -15.989200 -15.891100 -43.906900
50
Fragment
N -25.791100 -13.965500 -25.799000
H -25.256800 -15.116800 -27.355200
N -25.089200 -12.960800 -25.145100
C -25.024200 -14.418600 -26.754300
C -23.934900 -12.856700 -25.746100
N -23.845900 -13.746800 -26.761500
H -23.710400 -12.780000 -29.038700
F -23.579800 -12.954700 -31.378000
H -23.252200 -12.241500 -25.503700
H -22.997100 -11.137000 -28.090700
N -22.796500 -13.967700 -27.674900
C -22.784500 -12.895500 -28.678200
O -22.345400 -11.663700 -28.150200
C -22.279400 -13.233000 -31.138500
H -22.010000 -13.964700 -27.227700
C -21.861000 -13.280700 -29.819100
H -21.784900 -13.405200 -33.105100
C -21.457200 -13.465500 -32.216000
C -20.525400 -13.609600 -29.635000
C -20.129700 -13.791700 -31.958500
F -20.070500 -13.685700 -28.361900
C -19.641900 -13.869900 -30.659100
C -19.247500 -14.103500 -33.060900
H -18.735600 -14.094800 -30.484200
N -18.550400 -14.400800 -33.926100
H -23.192500 -14.028000 -37.698700
N -23.014600 -13.000100 -35.988200
C -22.622000 -13.586300 -37.082200
N -21.897400 -12.460200 -35.372100
H -21.827700 -11.952900 -39.554400
O -21.572100 -12.663900 -39.921500
N -21.281800 -13.471800 -37.209100
F -21.182600 -14.472000 -41.805700
C -20.869300 -12.776700 -36.129700
H -20.834400 -14.773200 -38.527700
N -20.468600 -13.999900 -38.233300
C -20.366300 -13.072000 -39.355400
H -19.965900 -12.548300 -35.942900
H -19.893200 -12.253800 -39.029400
C -19.869600 -14.394700 -41.521900
C -19.451400 -13.762100 -40.361100
H -19.322100 -15.390000 -43.216900
C -18.996900 -14.973400 -42.426600
C -18.080000 -13.780900 -40.143600
C -17.633600 -14.931400 -42.154700
F -17.624300 -13.184800 -39.014900
C -17.147900 -14.342200 -40.991800
C -16.707000 -15.479800 -43.119100
H -16.219300 -14.326800 -40.791500
N -15.989200 -15.891100 -43.906900
