22
Fragment
N -21.552900 -16.982000 -25.285800
N -20.953100 -16.721100 -26.528500
H -20.703800 -17.314000 -23.503600
C -20.583000 -17.129100 -24.427500
C -19.662100 -16.723900 -26.355600
N -19.369100 -16.981200 -25.035700
H -19.019400 -16.570800 -27.037800
N -18.189500 -17.050700 -24.302800
H -17.125900 -16.864600 -25.906000
C -17.100000 -16.966000 -24.961600
F -16.706600 -16.755500 -22.096300
C -15.811900 -17.023300 -24.270600
C -15.634600 -16.895000 -22.890300
F -14.757700 -17.336500 -26.347400
C -14.630300 -17.192700 -25.005800
C -14.394100 -16.906000 -22.282900
H -14.310900 -16.798000 -21.343000
C -13.367200 -17.230800 -24.460200
C -13.266900 -17.079300 -23.083800
H -12.597000 -17.354800 -25.002700
C -11.960000 -17.137500 -22.453600
N -10.946500 -17.182900 -21.933700
22
Fragment
N -27.326900 -13.883000 -25.285800
N -26.727100 -14.143900 -26.528500
H -26.477800 -13.551000 -23.503600
C -26.357000 -13.735900 -24.427500
C -25.436100 -14.141100 -26.355600
N -25.143100 -13.883800 -25.035700
H -24.793400 -14.294200 -27.037800
N -23.963500 -13.814300 -24.302800
H -22.899900 -14.000400 -25.906000
C -22.874000 -13.899000 -24.961600
F -22.480600 -14.109500 -22.096300
C -21.585900 -13.841700 -24.270600
C -21.408600 -13.970000 -22.890300
F -20.531700 -13.528500 -26.347400
C -20.404300 -13.672300 -25.005800
C -20.168100 -13.959000 -22.282900
H -20.084900 -14.067000 -21.343000
C -19.141200 -13.634200 -24.460200
C -19.040900 -13.785700 -23.083800
H -18.371000 -13.510200 -25.002700
C -17.734000 -13.727500 -22.453600
N -16.720500 -13.682100 -21.933700
44
Fragment
N -21.552900 -16.982000 -25.285800
N -20.953100 -16.721100 -26.528500
H -20.703800 -17.314000 -23.503600
C -20.583000 -17.129100 -24.427500
C -19.662100 -16.723900 -26.355600
N -19.369100 -16.981200 -25.035700
H -19.019400 -16.570800 -27.037800
N -18.189500 -17.050700 -24.302800
H -17.125900 -16.864600 -25.906000
C -17.100000 -16.966000 -24.961600
F -16.706600 -16.755500 -22.096300
C -15.811900 -17.023300 -24.270600
C -15.634600 -16.895000 -22.890300
F -14.757700 -17.336500 -26.347400
C -14.630300 -17.192700 -25.005800
C -14.394100 -16.906000 -22.282900
H -14.310900 -16.798000 -21.343000
C -13.367200 -17.230800 -24.460200
C -13.266900 -17.079300 -23.083800
H -12.597000 -17.354800 -25.002700
C -11.960000 -17.137500 -22.453600
N -10.946500 -17.182900 -21.933700
N -27.326900 -13.883000 -25.285800
N -26.727100 -14.143900 -26.528500
H -26.477800 -13.551000 -23.503600
C -26.357000 -13.735900 -24.427500
C -25.436100 -14.141100 -26.355600
N -25.143100 -13.883800 -25.035700
H -24.793400 -14.294200 -27.037800
N -23.963500 -13.814300 -24.302800
H -22.899900 -14.000400 -25.906000
C -22.874000 -13.899000 -24.961600
F -22.480600 -14.109500 -22.096300
C -21.585900 -13.841700 -24.270600
C -21.408600 -13.970000 -22.890300
F -20.531700 -13.528500 -26.347400
C -20.404300 -13.672300 -25.005800
C -20.168100 -13.959000 -22.282900
H -20.084900 -14.067000 -21.343000
C -19.141200 -13.634200 -24.460200
C -19.040900 -13.785700 -23.083800
H -18.371000 -13.510200 -25.002700
C -17.734000 -13.727500 -22.453600
N -16.720500 -13.682100 -21.933700
