25
Fragment
N -25.791100 -13.965500 -25.799000
H -25.256800 -15.116800 -27.355200
N -25.089200 -12.960800 -25.145100
C -25.024200 -14.418600 -26.754300
C -23.934900 -12.856700 -25.746100
N -23.845900 -13.746800 -26.761500
H -23.710400 -12.780000 -29.038700
F -23.579800 -12.954700 -31.378000
H -23.252200 -12.241500 -25.503700
H -22.997100 -11.137000 -28.090700
N -22.796500 -13.967700 -27.674900
C -22.784500 -12.895500 -28.678200
O -22.345400 -11.663700 -28.150200
C -22.279400 -13.233000 -31.138500
H -22.010000 -13.964700 -27.227700
C -21.861000 -13.280700 -29.819100
H -21.784900 -13.405200 -33.105100
C -21.457200 -13.465500 -32.216000
C -20.525400 -13.609600 -29.635000
C -20.129700 -13.791700 -31.958500
F -20.070500 -13.685700 -28.361900
C -19.641900 -13.869900 -30.659100
C -19.247500 -14.103500 -33.060900
H -18.735600 -14.094800 -30.484200
N -18.550400 -14.400800 -33.926100
25
Fragment
N -33.247100 -13.965500 -25.799000
H -32.712800 -15.116800 -27.355200
N -32.545200 -12.960800 -25.145100
C -32.480200 -14.418600 -26.754300
C -31.390900 -12.856700 -25.746100
N -31.301900 -13.746800 -26.761500
H -31.166400 -12.780000 -29.038700
F -31.035800 -12.954700 -31.378000
H -30.708200 -12.241500 -25.503700
H -30.453100 -11.137000 -28.090700
N -30.252500 -13.967700 -27.674900
C -30.240500 -12.895500 -28.678200
O -29.801400 -11.663700 -28.150200
C -29.735400 -13.233000 -31.138500
H -29.466000 -13.964700 -27.227700
C -29.317000 -13.280700 -29.819100
H -29.240900 -13.405200 -33.105100
C -28.913200 -13.465500 -32.216000
C -27.981400 -13.609600 -29.635000
C -27.585700 -13.791700 -31.958500
F -27.526500 -13.685700 -28.361900
C -27.097900 -13.869900 -30.659100
C -26.703500 -14.103500 -33.060900
H -26.191600 -14.094800 -30.484200
N -26.006400 -14.400800 -33.926100
50
Fragment
N -25.791100 -13.965500 -25.799000
H -25.256800 -15.116800 -27.355200
N -25.089200 -12.960800 -25.145100
C -25.024200 -14.418600 -26.754300
C -23.934900 -12.856700 -25.746100
N -23.845900 -13.746800 -26.761500
H -23.710400 -12.780000 -29.038700
F -23.579800 -12.954700 -31.378000
H -23.252200 -12.241500 -25.503700
H -22.997100 -11.137000 -28.090700
N -22.796500 -13.967700 -27.674900
C -22.784500 -12.895500 -28.678200
O -22.345400 -11.663700 -28.150200
C -22.279400 -13.233000 -31.138500
H -22.010000 -13.964700 -27.227700
C -21.861000 -13.280700 -29.819100
H -21.784900 -13.405200 -33.105100
C -21.457200 -13.465500 -32.216000
C -20.525400 -13.609600 -29.635000
C -20.129700 -13.791700 -31.958500
F -20.070500 -13.685700 -28.361900
C -19.641900 -13.869900 -30.659100
C -19.247500 -14.103500 -33.060900
H -18.735600 -14.094800 -30.484200
N -18.550400 -14.400800 -33.926100
N -33.247100 -13.965500 -25.799000
H -32.712800 -15.116800 -27.355200
N -32.545200 -12.960800 -25.145100
C -32.480200 -14.418600 -26.754300
C -31.390900 -12.856700 -25.746100
N -31.301900 -13.746800 -26.761500
H -31.166400 -12.780000 -29.038700
F -31.035800 -12.954700 -31.378000
H -30.708200 -12.241500 -25.503700
H -30.453100 -11.137000 -28.090700
N -30.252500 -13.967700 -27.674900
C -30.240500 -12.895500 -28.678200
O -29.801400 -11.663700 -28.150200
C -29.735400 -13.233000 -31.138500
H -29.466000 -13.964700 -27.227700
C -29.317000 -13.280700 -29.819100
H -29.240900 -13.405200 -33.105100
C -28.913200 -13.465500 -32.216000
C -27.981400 -13.609600 -29.635000
C -27.585700 -13.791700 -31.958500
F -27.526500 -13.685700 -28.361900
C -27.097900 -13.869900 -30.659100
C -26.703500 -14.103500 -33.060900
H -26.191600 -14.094800 -30.484200
N -26.006400 -14.400800 -33.926100
