25
Fragment
N -25.791100 -13.965500 -25.799000
H -25.256800 -15.116800 -27.355200
N -25.089200 -12.960800 -25.145100
C -25.024200 -14.418600 -26.754300
C -23.934900 -12.856700 -25.746100
N -23.845900 -13.746800 -26.761500
H -23.710400 -12.780000 -29.038700
F -23.579800 -12.954700 -31.378000
H -23.252200 -12.241500 -25.503700
H -22.997100 -11.137000 -28.090700
N -22.796500 -13.967700 -27.674900
C -22.784500 -12.895500 -28.678200
O -22.345400 -11.663700 -28.150200
C -22.279400 -13.233000 -31.138500
H -22.010000 -13.964700 -27.227700
C -21.861000 -13.280700 -29.819100
H -21.784900 -13.405200 -33.105100
C -21.457200 -13.465500 -32.216000
C -20.525400 -13.609600 -29.635000
C -20.129700 -13.791700 -31.958500
F -20.070500 -13.685700 -28.361900
C -19.641900 -13.869900 -30.659100
C -19.247500 -14.103500 -33.060900
H -18.735600 -14.094800 -30.484200
N -18.550400 -14.400800 -33.926100
25
Fragment
N -27.107800 -14.518000 -19.863100
H -26.877700 -16.082300 -22.978400
C -26.390000 -14.929300 -20.650800
C -25.949100 -16.066800 -22.778200
F -25.472700 -17.224200 -24.755100
C -25.463400 -15.477700 -21.615300
C -25.017000 -16.628200 -23.626400
C -24.100100 -15.435600 -21.343400
H -23.774900 -15.019000 -20.553100
C -23.645600 -16.647000 -23.408900
C -23.227400 -16.014300 -22.248100
H -23.203800 -18.155200 -24.740600
H -23.131100 -17.860800 -27.827100
C -22.730700 -17.337100 -24.414500
N -22.628400 -16.409200 -25.536700
H -22.262600 -15.635900 -25.242300
C -22.227700 -17.632400 -27.640200
F -21.914400 -15.937100 -21.964300
N -21.815200 -16.937300 -26.560800
O -21.524900 -17.745100 -23.848500
H -21.269300 -18.456200 -24.215600
N -21.199600 -17.948800 -28.397800
C -20.475000 -16.822700 -26.687700
N -20.082400 -17.409000 -27.781800
H -19.904500 -16.381000 -26.071300
50
Fragment
N -25.791100 -13.965500 -25.799000
H -25.256800 -15.116800 -27.355200
N -25.089200 -12.960800 -25.145100
C -25.024200 -14.418600 -26.754300
C -23.934900 -12.856700 -25.746100
N -23.845900 -13.746800 -26.761500
H -23.710400 -12.780000 -29.038700
F -23.579800 -12.954700 -31.378000
H -23.252200 -12.241500 -25.503700
H -22.997100 -11.137000 -28.090700
N -22.796500 -13.967700 -27.674900
C -22.784500 -12.895500 -28.678200
O -22.345400 -11.663700 -28.150200
C -22.279400 -13.233000 -31.138500
H -22.010000 -13.964700 -27.227700
C -21.861000 -13.280700 -29.819100
H -21.784900 -13.405200 -33.105100
C -21.457200 -13.465500 -32.216000
C -20.525400 -13.609600 -29.635000
C -20.129700 -13.791700 -31.958500
F -20.070500 -13.685700 -28.361900
C -19.641900 -13.869900 -30.659100
C -19.247500 -14.103500 -33.060900
H -18.735600 -14.094800 -30.484200
N -18.550400 -14.400800 -33.926100
N -27.107800 -14.518000 -19.863100
H -26.877700 -16.082300 -22.978400
C -26.390000 -14.929300 -20.650800
C -25.949100 -16.066800 -22.778200
F -25.472700 -17.224200 -24.755100
C -25.463400 -15.477700 -21.615300
C -25.017000 -16.628200 -23.626400
C -24.100100 -15.435600 -21.343400
H -23.774900 -15.019000 -20.553100
C -23.645600 -16.647000 -23.408900
C -23.227400 -16.014300 -22.248100
H -23.203800 -18.155200 -24.740600
H -23.131100 -17.860800 -27.827100
C -22.730700 -17.337100 -24.414500
N -22.628400 -16.409200 -25.536700
H -22.262600 -15.635900 -25.242300
C -22.227700 -17.632400 -27.640200
F -21.914400 -15.937100 -21.964300
N -21.815200 -16.937300 -26.560800
O -21.524900 -17.745100 -23.848500
H -21.269300 -18.456200 -24.215600
N -21.199600 -17.948800 -28.397800
C -20.475000 -16.822700 -26.687700
N -20.082400 -17.409000 -27.781800
H -19.904500 -16.381000 -26.071300
