25
Fragment
N -25.791100 -13.965500 -25.799000
H -25.256800 -15.116800 -27.355200
N -25.089200 -12.960800 -25.145100
C -25.024200 -14.418600 -26.754300
C -23.934900 -12.856700 -25.746100
N -23.845900 -13.746800 -26.761500
H -23.710400 -12.780000 -29.038700
F -23.579800 -12.954700 -31.378000
H -23.252200 -12.241500 -25.503700
H -22.997100 -11.137000 -28.090700
N -22.796500 -13.967700 -27.674900
C -22.784500 -12.895500 -28.678200
O -22.345400 -11.663700 -28.150200
C -22.279400 -13.233000 -31.138500
H -22.010000 -13.964700 -27.227700
C -21.861000 -13.280700 -29.819100
H -21.784900 -13.405200 -33.105100
C -21.457200 -13.465500 -32.216000
C -20.525400 -13.609600 -29.635000
C -20.129700 -13.791700 -31.958500
F -20.070500 -13.685700 -28.361900
C -19.641900 -13.869900 -30.659100
C -19.247500 -14.103500 -33.060900
H -18.735600 -14.094800 -30.484200
N -18.550400 -14.400800 -33.926100
25
Fragment
N -31.705400 -7.450100 -19.863100
H -31.475300 -9.014400 -22.978400
C -30.987500 -7.861400 -20.650800
C -30.546600 -8.999000 -22.778200
F -30.070200 -10.156400 -24.755100
C -30.060900 -8.409800 -21.615300
C -29.614500 -9.560300 -23.626400
C -28.697700 -8.367800 -21.343400
H -28.372500 -7.951200 -20.553100
C -28.243200 -9.579100 -23.408900
C -27.824900 -8.946500 -22.248100
H -27.801300 -11.087400 -24.740600
H -27.728700 -10.792900 -27.827100
C -27.328300 -10.269200 -24.414500
N -27.225900 -9.341300 -25.536700
H -26.860200 -8.568000 -25.242300
C -26.825200 -10.564500 -27.640200
F -26.511900 -8.869200 -21.964300
N -26.412800 -9.869400 -26.560800
O -26.122400 -10.677300 -23.848500
H -25.866900 -11.388300 -24.215600
N -25.797200 -10.881000 -28.397800
C -25.072500 -9.754900 -26.687700
N -24.679900 -10.341100 -27.781800
H -24.502000 -9.313200 -26.071300
50
Fragment
N -25.791100 -13.965500 -25.799000
H -25.256800 -15.116800 -27.355200
N -25.089200 -12.960800 -25.145100
C -25.024200 -14.418600 -26.754300
C -23.934900 -12.856700 -25.746100
N -23.845900 -13.746800 -26.761500
H -23.710400 -12.780000 -29.038700
F -23.579800 -12.954700 -31.378000
H -23.252200 -12.241500 -25.503700
H -22.997100 -11.137000 -28.090700
N -22.796500 -13.967700 -27.674900
C -22.784500 -12.895500 -28.678200
O -22.345400 -11.663700 -28.150200
C -22.279400 -13.233000 -31.138500
H -22.010000 -13.964700 -27.227700
C -21.861000 -13.280700 -29.819100
H -21.784900 -13.405200 -33.105100
C -21.457200 -13.465500 -32.216000
C -20.525400 -13.609600 -29.635000
C -20.129700 -13.791700 -31.958500
F -20.070500 -13.685700 -28.361900
C -19.641900 -13.869900 -30.659100
C -19.247500 -14.103500 -33.060900
H -18.735600 -14.094800 -30.484200
N -18.550400 -14.400800 -33.926100
N -31.705400 -7.450100 -19.863100
H -31.475300 -9.014400 -22.978400
C -30.987500 -7.861400 -20.650800
C -30.546600 -8.999000 -22.778200
F -30.070200 -10.156400 -24.755100
C -30.060900 -8.409800 -21.615300
C -29.614500 -9.560300 -23.626400
C -28.697700 -8.367800 -21.343400
H -28.372500 -7.951200 -20.553100
C -28.243200 -9.579100 -23.408900
C -27.824900 -8.946500 -22.248100
H -27.801300 -11.087400 -24.740600
H -27.728700 -10.792900 -27.827100
C -27.328300 -10.269200 -24.414500
N -27.225900 -9.341300 -25.536700
H -26.860200 -8.568000 -25.242300
C -26.825200 -10.564500 -27.640200
F -26.511900 -8.869200 -21.964300
N -26.412800 -9.869400 -26.560800
O -26.122400 -10.677300 -23.848500
H -25.866900 -11.388300 -24.215600
N -25.797200 -10.881000 -28.397800
C -25.072500 -9.754900 -26.687700
N -24.679900 -10.341100 -27.781800
H -24.502000 -9.313200 -26.071300
