49
Fragment
H -13.338100 -103.348100 -18.897100
H -13.199300 -101.375500 -17.224800
C -12.879400 -103.323200 -18.029800
C -12.820400 -102.235900 -17.134300
H -12.283600 -96.394800 -9.516900
C -12.179700 -104.327200 -17.421400
N -12.137600 -102.527400 -16.036400
H -11.956400 -105.163400 -17.673200
N -11.746000 -103.824000 -16.226800
H -11.517800 -94.992400 -9.851400
C -11.438800 -95.956400 -9.605900
H -11.270900 -98.334700 -8.787200
C -10.956500 -104.476100 -15.259300
H -10.908300 -96.027800 -8.734000
H -10.863400 -102.974500 -13.903000
C -10.746500 -98.685800 -9.528400
O -10.716000 -96.540000 -10.692200
H -10.632700 -100.621800 -8.779600
C -10.602200 -103.838100 -14.071000
N -10.588800 -105.713700 -15.586100
C -10.415600 -97.865800 -10.589400
H -10.376400 -107.850300 -16.943500
C -10.374800 -100.036800 -9.533400
C -9.837100 -106.370900 -14.704500
C -9.823800 -104.560400 -13.172700
C -9.805000 -108.266900 -16.303300
C -9.698100 -98.402200 -11.685200
O -9.680500 -102.658600 -11.788500
C -9.654500 -100.563800 -10.590900
H -9.620200 -102.483000 -9.783000
N -9.472600 -107.665500 -15.123700
O -9.461900 -97.520600 -12.702400
C -9.429400 -105.862700 -13.476600
C -9.370800 -103.962800 -11.873400
C -9.309300 -99.726400 -11.673000
H -9.278600 -98.760600 -14.267800
C -9.226500 -102.003400 -10.566700
H -9.220400 -110.189900 -16.973900
C -9.191100 -109.494800 -16.294300
H -8.888100 -106.388900 -12.838800
O -8.785900 -104.577600 -11.014700
H -8.774400 -100.084400 -12.435900
C -8.758800 -98.019400 -13.837000
H -8.733600 -97.286100 -14.465500
N -8.666300 -108.447200 -14.352300
C -8.499800 -109.553100 -15.071700
H -8.248700 -102.109500 -10.543100
H -7.911000 -110.248900 -14.723900
H -7.885400 -98.341200 -13.576100
49
Fragment
H -7.852800 -98.262600 -9.228100
H -7.827200 -86.354900 -8.080300
H -7.489600 -94.494300 -12.261100
C -7.238500 -87.050700 -7.732400
N -7.071900 -88.156600 -8.451800
H -7.004700 -99.317700 -8.338700
C -6.979500 -98.584400 -8.967200
H -6.963900 -96.519400 -10.368300
O -6.952400 -92.026200 -11.789500
H -6.850100 -90.214900 -9.965400
C -6.547100 -87.109000 -6.509900
H -6.517900 -86.413900 -5.830300
C -6.511800 -94.600400 -12.237500
H -6.459700 -97.843200 -8.536400
C -6.429000 -96.877400 -11.131200
C -6.367500 -92.641000 -10.930800
C -6.308900 -90.741100 -9.327600
O -6.276300 -99.083200 -10.101800
N -6.265700 -88.938300 -7.680500
H -6.118000 -94.120800 -13.021200
C -6.083700 -96.040000 -12.213200
O -6.057700 -93.945200 -11.015700
C -6.040100 -98.201600 -11.119000
C -5.933300 -88.336900 -6.500900
C -5.914500 -92.043400 -9.631500
C -5.901200 -90.232900 -8.099700
C -5.363500 -96.567000 -13.270800
H -5.361800 -88.753500 -5.860700
C -5.322700 -98.738000 -12.214800
N -5.149500 -90.890100 -7.218100
C -5.136100 -92.765700 -8.733200
H -5.105600 -95.982000 -14.024600
O -5.022200 -100.063800 -12.112000
C -4.991800 -97.918000 -13.275800
H -4.874800 -93.629300 -8.901200
H -4.830000 -100.576000 -14.070200
C -4.781700 -92.127700 -7.544900
H -4.467400 -98.269100 -14.017000
C -4.299400 -100.647400 -13.198300
H -4.220400 -101.611400 -12.952800
N -3.992300 -92.779800 -6.577400
H -3.781900 -91.440400 -5.130900
N -3.600600 -94.076400 -6.767800
C -3.558600 -92.276600 -5.382800
H -3.454700 -100.209000 -13.287200
C -2.917900 -94.367900 -5.669900
C -2.858900 -93.280600 -4.774400
H -2.538900 -95.228300 -5.579400
H -2.400200 -93.255700 -3.907100
98
Fragment
H -13.338100 -103.348100 -18.897100
H -13.199300 -101.375500 -17.224800
C -12.879400 -103.323200 -18.029800
C -12.820400 -102.235900 -17.134300
H -12.283600 -96.394800 -9.516900
C -12.179700 -104.327200 -17.421400
N -12.137600 -102.527400 -16.036400
H -11.956400 -105.163400 -17.673200
N -11.746000 -103.824000 -16.226800
H -11.517800 -94.992400 -9.851400
C -11.438800 -95.956400 -9.605900
H -11.270900 -98.334700 -8.787200
C -10.956500 -104.476100 -15.259300
H -10.908300 -96.027800 -8.734000
H -10.863400 -102.974500 -13.903000
C -10.746500 -98.685800 -9.528400
O -10.716000 -96.540000 -10.692200
H -10.632700 -100.621800 -8.779600
C -10.602200 -103.838100 -14.071000
N -10.588800 -105.713700 -15.586100
C -10.415600 -97.865800 -10.589400
H -10.376400 -107.850300 -16.943500
C -10.374800 -100.036800 -9.533400
C -9.837100 -106.370900 -14.704500
C -9.823800 -104.560400 -13.172700
C -9.805000 -108.266900 -16.303300
C -9.698100 -98.402200 -11.685200
O -9.680500 -102.658600 -11.788500
C -9.654500 -100.563800 -10.590900
H -9.620200 -102.483000 -9.783000
N -9.472600 -107.665500 -15.123700
O -9.461900 -97.520600 -12.702400
C -9.429400 -105.862700 -13.476600
C -9.370800 -103.962800 -11.873400
C -9.309300 -99.726400 -11.673000
H -9.278600 -98.760600 -14.267800
C -9.226500 -102.003400 -10.566700
H -9.220400 -110.189900 -16.973900
C -9.191100 -109.494800 -16.294300
H -8.888100 -106.388900 -12.838800
O -8.785900 -104.577600 -11.014700
H -8.774400 -100.084400 -12.435900
C -8.758800 -98.019400 -13.837000
H -8.733600 -97.286100 -14.465500
N -8.666300 -108.447200 -14.352300
C -8.499800 -109.553100 -15.071700
H -8.248700 -102.109500 -10.543100
H -7.911000 -110.248900 -14.723900
H -7.885400 -98.341200 -13.576100
H -7.852800 -98.262600 -9.228100
H -7.827200 -86.354900 -8.080300
H -7.489600 -94.494300 -12.261100
C -7.238500 -87.050700 -7.732400
N -7.071900 -88.156600 -8.451800
H -7.004700 -99.317700 -8.338700
C -6.979500 -98.584400 -8.967200
H -6.963900 -96.519400 -10.368300
O -6.952400 -92.026200 -11.789500
H -6.850100 -90.214900 -9.965400
C -6.547100 -87.109000 -6.509900
H -6.517900 -86.413900 -5.830300
C -6.511800 -94.600400 -12.237500
H -6.459700 -97.843200 -8.536400
C -6.429000 -96.877400 -11.131200
C -6.367500 -92.641000 -10.930800
C -6.308900 -90.741100 -9.327600
O -6.276300 -99.083200 -10.101800
N -6.265700 -88.938300 -7.680500
H -6.118000 -94.120800 -13.021200
C -6.083700 -96.040000 -12.213200
O -6.057700 -93.945200 -11.015700
C -6.040100 -98.201600 -11.119000
C -5.933300 -88.336900 -6.500900
C -5.914500 -92.043400 -9.631500
C -5.901200 -90.232900 -8.099700
C -5.363500 -96.567000 -13.270800
H -5.361800 -88.753500 -5.860700
C -5.322700 -98.738000 -12.214800
N -5.149500 -90.890100 -7.218100
C -5.136100 -92.765700 -8.733200
H -5.105600 -95.982000 -14.024600
O -5.022200 -100.063800 -12.112000
C -4.991800 -97.918000 -13.275800
H -4.874800 -93.629300 -8.901200
H -4.830000 -100.576000 -14.070200
C -4.781700 -92.127700 -7.544900
H -4.467400 -98.269100 -14.017000
C -4.299400 -100.647400 -13.198300
H -4.220400 -101.611400 -12.952800
N -3.992300 -92.779800 -6.577400
H -3.781900 -91.440400 -5.130900
N -3.600600 -94.076400 -6.767800
C -3.558600 -92.276600 -5.382800
H -3.454700 -100.209000 -13.287200
C -2.917900 -94.367900 -5.669900
C -2.858900 -93.280600 -4.774400
H -2.538900 -95.228300 -5.579400
H -2.400200 -93.255700 -3.907100
