49
Fragment
H -13.338100 -103.348100 -18.897100
H -13.199300 -101.375500 -17.224800
C -12.879400 -103.323200 -18.029800
C -12.820400 -102.235900 -17.134300
H -12.283600 -96.394800 -9.516900
C -12.179700 -104.327200 -17.421400
N -12.137600 -102.527400 -16.036400
H -11.956400 -105.163400 -17.673200
N -11.746000 -103.824000 -16.226800
H -11.517800 -94.992400 -9.851400
C -11.438800 -95.956400 -9.605900
H -11.270900 -98.334700 -8.787200
C -10.956500 -104.476100 -15.259300
H -10.908300 -96.027800 -8.734000
H -10.863400 -102.974500 -13.903000
C -10.746500 -98.685800 -9.528400
O -10.716000 -96.540000 -10.692200
H -10.632700 -100.621800 -8.779600
C -10.602200 -103.838100 -14.071000
N -10.588800 -105.713700 -15.586100
C -10.415600 -97.865800 -10.589400
H -10.376400 -107.850300 -16.943500
C -10.374800 -100.036800 -9.533400
C -9.837100 -106.370900 -14.704500
C -9.823800 -104.560400 -13.172700
C -9.805000 -108.266900 -16.303300
C -9.698100 -98.402200 -11.685200
O -9.680500 -102.658600 -11.788500
C -9.654500 -100.563800 -10.590900
H -9.620200 -102.483000 -9.783000
N -9.472600 -107.665500 -15.123700
O -9.461900 -97.520600 -12.702400
C -9.429400 -105.862700 -13.476600
C -9.370800 -103.962800 -11.873400
C -9.309300 -99.726400 -11.673000
H -9.278600 -98.760600 -14.267800
C -9.226500 -102.003400 -10.566700
H -9.220400 -110.189900 -16.973900
C -9.191100 -109.494800 -16.294300
H -8.888100 -106.388900 -12.838800
O -8.785900 -104.577600 -11.014700
H -8.774400 -100.084400 -12.435900
C -8.758800 -98.019400 -13.837000
H -8.733600 -97.286100 -14.465500
N -8.666300 -108.447200 -14.352300
C -8.499800 -109.553100 -15.071700
H -8.248700 -102.109500 -10.543100
H -7.911000 -110.248900 -14.723900
H -7.885400 -98.341200 -13.576100
49
Fragment
H -8.322200 -101.624500 -7.882600
C -7.812900 -102.350300 -7.411700
H -7.707700 -104.036200 -8.817600
H -7.556800 -108.531900 -12.253500
C -7.519400 -103.595400 -7.908400
H -7.299700 -106.644500 -10.429100
C -7.216200 -102.305800 -6.139500
H -7.170100 -101.552400 -5.473000
C -7.101600 -108.535100 -11.404400
C -6.995000 -107.544000 -10.467100
N -6.780400 -104.220800 -6.940500
N -6.588100 -103.436700 -5.847800
N -6.486900 -106.192500 -8.106200
C -6.441400 -109.638100 -10.835100
H -6.354100 -110.517500 -11.181700
N -6.295600 -108.069200 -9.418500
C -6.236800 -105.525100 -6.982200
H -6.210300 -113.302800 -3.679100
H -6.168100 -114.679000 -2.903700
C -5.984500 -107.421800 -8.206800
N -5.943200 -109.371400 -9.630300
C -5.681700 -113.899800 -3.086200
C -5.503300 -106.030300 -5.912100
H -5.501400 -113.420700 -2.250000
H -5.370500 -105.510700 -5.130900
C -5.219100 -108.041100 -7.221100
C -4.989600 -107.317500 -6.055000
H -4.869100 -108.898800 -7.335300
H -4.541000 -111.677500 -3.496600
O -4.474300 -114.360500 -3.693400
C -4.179800 -107.868000 -4.918600
O -3.916300 -107.228400 -3.922800
O -3.775100 -109.130900 -5.125300
C -3.734900 -112.045200 -3.867600
C -3.557700 -113.408300 -4.031600
H -3.487600 -109.528000 -3.223000
C -2.958500 -109.669500 -4.026700
C -2.731500 -111.135000 -4.237200
C -2.340000 -113.890400 -4.568300
O -2.251200 -115.250200 -4.665100
H -2.131300 -109.206900 -4.028700
C -1.542000 -111.615800 -4.755200
C -1.346400 -112.997300 -4.924000
H -1.104100 -116.763000 -4.956100
C -0.986000 -115.799600 -5.022200
H -0.812500 -110.996000 -4.994100
H -0.714500 -115.603000 -5.921500
H -0.548600 -113.289700 -5.283000
H -0.259000 -115.537500 -4.340400
98
Fragment
H -13.338100 -103.348100 -18.897100
H -13.199300 -101.375500 -17.224800
C -12.879400 -103.323200 -18.029800
C -12.820400 -102.235900 -17.134300
H -12.283600 -96.394800 -9.516900
C -12.179700 -104.327200 -17.421400
N -12.137600 -102.527400 -16.036400
H -11.956400 -105.163400 -17.673200
N -11.746000 -103.824000 -16.226800
H -11.517800 -94.992400 -9.851400
C -11.438800 -95.956400 -9.605900
H -11.270900 -98.334700 -8.787200
C -10.956500 -104.476100 -15.259300
H -10.908300 -96.027800 -8.734000
H -10.863400 -102.974500 -13.903000
C -10.746500 -98.685800 -9.528400
O -10.716000 -96.540000 -10.692200
H -10.632700 -100.621800 -8.779600
C -10.602200 -103.838100 -14.071000
N -10.588800 -105.713700 -15.586100
C -10.415600 -97.865800 -10.589400
H -10.376400 -107.850300 -16.943500
C -10.374800 -100.036800 -9.533400
C -9.837100 -106.370900 -14.704500
C -9.823800 -104.560400 -13.172700
C -9.805000 -108.266900 -16.303300
C -9.698100 -98.402200 -11.685200
O -9.680500 -102.658600 -11.788500
C -9.654500 -100.563800 -10.590900
H -9.620200 -102.483000 -9.783000
N -9.472600 -107.665500 -15.123700
O -9.461900 -97.520600 -12.702400
C -9.429400 -105.862700 -13.476600
C -9.370800 -103.962800 -11.873400
C -9.309300 -99.726400 -11.673000
H -9.278600 -98.760600 -14.267800
C -9.226500 -102.003400 -10.566700
H -9.220400 -110.189900 -16.973900
C -9.191100 -109.494800 -16.294300
H -8.888100 -106.388900 -12.838800
O -8.785900 -104.577600 -11.014700
H -8.774400 -100.084400 -12.435900
C -8.758800 -98.019400 -13.837000
H -8.733600 -97.286100 -14.465500
N -8.666300 -108.447200 -14.352300
C -8.499800 -109.553100 -15.071700
H -8.248700 -102.109500 -10.543100
H -7.911000 -110.248900 -14.723900
H -7.885400 -98.341200 -13.576100
H -8.322200 -101.624500 -7.882600
C -7.812900 -102.350300 -7.411700
H -7.707700 -104.036200 -8.817600
H -7.556800 -108.531900 -12.253500
C -7.519400 -103.595400 -7.908400
H -7.299700 -106.644500 -10.429100
C -7.216200 -102.305800 -6.139500
H -7.170100 -101.552400 -5.473000
C -7.101600 -108.535100 -11.404400
C -6.995000 -107.544000 -10.467100
N -6.780400 -104.220800 -6.940500
N -6.588100 -103.436700 -5.847800
N -6.486900 -106.192500 -8.106200
C -6.441400 -109.638100 -10.835100
H -6.354100 -110.517500 -11.181700
N -6.295600 -108.069200 -9.418500
C -6.236800 -105.525100 -6.982200
H -6.210300 -113.302800 -3.679100
H -6.168100 -114.679000 -2.903700
C -5.984500 -107.421800 -8.206800
N -5.943200 -109.371400 -9.630300
C -5.681700 -113.899800 -3.086200
C -5.503300 -106.030300 -5.912100
H -5.501400 -113.420700 -2.250000
H -5.370500 -105.510700 -5.130900
C -5.219100 -108.041100 -7.221100
C -4.989600 -107.317500 -6.055000
H -4.869100 -108.898800 -7.335300
H -4.541000 -111.677500 -3.496600
O -4.474300 -114.360500 -3.693400
C -4.179800 -107.868000 -4.918600
O -3.916300 -107.228400 -3.922800
O -3.775100 -109.130900 -5.125300
C -3.734900 -112.045200 -3.867600
C -3.557700 -113.408300 -4.031600
H -3.487600 -109.528000 -3.223000
C -2.958500 -109.669500 -4.026700
C -2.731500 -111.135000 -4.237200
C -2.340000 -113.890400 -4.568300
O -2.251200 -115.250200 -4.665100
H -2.131300 -109.206900 -4.028700
C -1.542000 -111.615800 -4.755200
C -1.346400 -112.997300 -4.924000
H -1.104100 -116.763000 -4.956100
C -0.986000 -115.799600 -5.022200
H -0.812500 -110.996000 -4.994100
H -0.714500 -115.603000 -5.921500
H -0.548600 -113.289700 -5.283000
H -0.259000 -115.537500 -4.340400
