49
Fragment
H -13.338100 -103.348100 -18.897100
H -13.199300 -101.375500 -17.224800
C -12.879400 -103.323200 -18.029800
C -12.820400 -102.235900 -17.134300
H -12.283600 -96.394800 -9.516900
C -12.179700 -104.327200 -17.421400
N -12.137600 -102.527400 -16.036400
H -11.956400 -105.163400 -17.673200
N -11.746000 -103.824000 -16.226800
H -11.517800 -94.992400 -9.851400
C -11.438800 -95.956400 -9.605900
H -11.270900 -98.334700 -8.787200
C -10.956500 -104.476100 -15.259300
H -10.908300 -96.027800 -8.734000
H -10.863400 -102.974500 -13.903000
C -10.746500 -98.685800 -9.528400
O -10.716000 -96.540000 -10.692200
H -10.632700 -100.621800 -8.779600
C -10.602200 -103.838100 -14.071000
N -10.588800 -105.713700 -15.586100
C -10.415600 -97.865800 -10.589400
H -10.376400 -107.850300 -16.943500
C -10.374800 -100.036800 -9.533400
C -9.837100 -106.370900 -14.704500
C -9.823800 -104.560400 -13.172700
C -9.805000 -108.266900 -16.303300
C -9.698100 -98.402200 -11.685200
O -9.680500 -102.658600 -11.788500
C -9.654500 -100.563800 -10.590900
H -9.620200 -102.483000 -9.783000
N -9.472600 -107.665500 -15.123700
O -9.461900 -97.520600 -12.702400
C -9.429400 -105.862700 -13.476600
C -9.370800 -103.962800 -11.873400
C -9.309300 -99.726400 -11.673000
H -9.278600 -98.760600 -14.267800
C -9.226500 -102.003400 -10.566700
H -9.220400 -110.189900 -16.973900
C -9.191100 -109.494800 -16.294300
H -8.888100 -106.388900 -12.838800
O -8.785900 -104.577600 -11.014700
H -8.774400 -100.084400 -12.435900
C -8.758800 -98.019400 -13.837000
H -8.733600 -97.286100 -14.465500
N -8.666300 -108.447200 -14.352300
C -8.499800 -109.553100 -15.071700
H -8.248700 -102.109500 -10.543100
H -7.911000 -110.248900 -14.723900
H -7.885400 -98.341200 -13.576100
6
Fragment
N -14.333800 -111.981600 -13.874100
C -13.339200 -111.837400 -14.423000
H -12.228500 -111.107400 -15.978100
C -12.076000 -111.652600 -15.125000
H -11.691900 -112.568800 -15.286400
H -11.510800 -111.159800 -14.594700
55
Fragment
H -13.338100 -103.348100 -18.897100
H -13.199300 -101.375500 -17.224800
C -12.879400 -103.323200 -18.029800
C -12.820400 -102.235900 -17.134300
H -12.283600 -96.394800 -9.516900
C -12.179700 -104.327200 -17.421400
N -12.137600 -102.527400 -16.036400
H -11.956400 -105.163400 -17.673200
N -11.746000 -103.824000 -16.226800
H -11.517800 -94.992400 -9.851400
C -11.438800 -95.956400 -9.605900
H -11.270900 -98.334700 -8.787200
C -10.956500 -104.476100 -15.259300
H -10.908300 -96.027800 -8.734000
H -10.863400 -102.974500 -13.903000
C -10.746500 -98.685800 -9.528400
O -10.716000 -96.540000 -10.692200
H -10.632700 -100.621800 -8.779600
C -10.602200 -103.838100 -14.071000
N -10.588800 -105.713700 -15.586100
C -10.415600 -97.865800 -10.589400
H -10.376400 -107.850300 -16.943500
C -10.374800 -100.036800 -9.533400
C -9.837100 -106.370900 -14.704500
C -9.823800 -104.560400 -13.172700
C -9.805000 -108.266900 -16.303300
C -9.698100 -98.402200 -11.685200
O -9.680500 -102.658600 -11.788500
C -9.654500 -100.563800 -10.590900
H -9.620200 -102.483000 -9.783000
N -9.472600 -107.665500 -15.123700
O -9.461900 -97.520600 -12.702400
C -9.429400 -105.862700 -13.476600
C -9.370800 -103.962800 -11.873400
C -9.309300 -99.726400 -11.673000
H -9.278600 -98.760600 -14.267800
C -9.226500 -102.003400 -10.566700
H -9.220400 -110.189900 -16.973900
C -9.191100 -109.494800 -16.294300
H -8.888100 -106.388900 -12.838800
O -8.785900 -104.577600 -11.014700
H -8.774400 -100.084400 -12.435900
C -8.758800 -98.019400 -13.837000
H -8.733600 -97.286100 -14.465500
N -8.666300 -108.447200 -14.352300
C -8.499800 -109.553100 -15.071700
H -8.248700 -102.109500 -10.543100
H -7.911000 -110.248900 -14.723900
H -7.885400 -98.341200 -13.576100
N -14.333800 -111.981600 -13.874100
C -13.339200 -111.837400 -14.423000
H -12.228500 -111.107400 -15.978100
C -12.076000 -111.652600 -15.125000
H -11.691900 -112.568800 -15.286400
H -11.510800 -111.159800 -14.594700
