17
Fragment
H -16.826500 -12.955200 -15.530800
O -16.774400 -13.634800 -15.018500
H -16.553000 -15.976000 -14.174900
C -16.443900 -14.711000 -15.785000
C -16.389200 -15.958700 -15.157800
H -16.173400 -13.834000 -17.634700
C -16.163200 -14.620500 -17.137900
C -16.083400 -17.095500 -15.875800
H -16.053100 -17.949800 -15.443800
C -15.845200 -15.775300 -17.872800
C -15.806900 -17.024500 -17.239600
O -15.538900 -14.455900 -19.799600
C -15.520000 -15.672200 -19.318700
O -15.495100 -18.179000 -17.899100
H -15.352500 -17.918900 -18.794700
H -15.304400 -14.525300 -20.725900
O -15.243300 -16.665400 -20.000500
21
Fragment
H -15.779200 -21.115800 -15.014000
H -15.077800 -19.962100 -15.925200
C -14.998300 -20.837500 -15.446200
O -14.890500 -23.642900 -13.971500
N -14.672000 -21.830400 -16.471100
C -14.656800 -24.004700 -15.124500
C -14.550800 -23.188800 -16.281700
H -14.546100 -25.893100 -14.770600
H -14.512300 -20.754000 -18.176000
N -14.464200 -25.343500 -15.431800
C -14.457500 -21.611800 -17.772200
H -14.410300 -25.183100 -19.719500
H -14.277300 -20.817800 -14.837200
C -14.266200 -23.708000 -17.521000
N -14.207100 -22.731400 -18.456400
C -14.162000 -25.911700 -16.659600
N -14.073400 -25.057000 -17.729600
O -13.990600 -27.120800 -16.774600
H -13.826400 -26.514800 -19.066700
C -13.778200 -25.583000 -19.065900
H -12.941500 -25.336200 -19.338700
38
Fragment
H -16.826500 -12.955200 -15.530800
O -16.774400 -13.634800 -15.018500
H -16.553000 -15.976000 -14.174900
C -16.443900 -14.711000 -15.785000
C -16.389200 -15.958700 -15.157800
H -16.173400 -13.834000 -17.634700
C -16.163200 -14.620500 -17.137900
C -16.083400 -17.095500 -15.875800
H -16.053100 -17.949800 -15.443800
C -15.845200 -15.775300 -17.872800
C -15.806900 -17.024500 -17.239600
O -15.538900 -14.455900 -19.799600
C -15.520000 -15.672200 -19.318700
O -15.495100 -18.179000 -17.899100
H -15.352500 -17.918900 -18.794700
H -15.304400 -14.525300 -20.725900
O -15.243300 -16.665400 -20.000500
H -15.779200 -21.115800 -15.014000
H -15.077800 -19.962100 -15.925200
C -14.998300 -20.837500 -15.446200
O -14.890500 -23.642900 -13.971500
N -14.672000 -21.830400 -16.471100
C -14.656800 -24.004700 -15.124500
C -14.550800 -23.188800 -16.281700
H -14.546100 -25.893100 -14.770600
H -14.512300 -20.754000 -18.176000
N -14.464200 -25.343500 -15.431800
C -14.457500 -21.611800 -17.772200
H -14.410300 -25.183100 -19.719500
H -14.277300 -20.817800 -14.837200
C -14.266200 -23.708000 -17.521000
N -14.207100 -22.731400 -18.456400
C -14.162000 -25.911700 -16.659600
N -14.073400 -25.057000 -17.729600
O -13.990600 -27.120800 -16.774600
H -13.826400 -26.514800 -19.066700
C -13.778200 -25.583000 -19.065900
H -12.941500 -25.336200 -19.338700
