21
Fragment
H -11.067100 -11.101400 -42.695700
O -10.867100 -13.402300 -40.752800
H -10.511700 -13.699100 -38.375200
C -10.265500 -12.649000 -40.005500
C -10.112400 -11.037500 -42.771200
N -10.097900 -12.959200 -38.652000
H -9.886700 -10.368300 -43.421800
H -9.755400 -11.884800 -43.046900
C -9.647700 -11.394700 -40.303500
N -9.542900 -10.666900 -41.471700
C -9.459500 -12.230700 -37.671700
O -9.412900 -12.668700 -36.517700
C -9.004900 -10.643400 -39.356300
N -8.901100 -11.037500 -38.038600
C -8.864400 -9.555700 -41.170900
H -8.661000 -8.891700 -41.789700
H -8.658700 -9.310500 -37.055100
N -8.510300 -9.502300 -39.885100
H -8.309000 -10.566600 -36.184900
C -8.238100 -10.173600 -37.057700
H -7.311600 -10.077000 -37.290700
21
Fragment
H -15.287200 -8.993700 -48.502200
C -14.360700 -8.897100 -48.735200
H -14.289800 -8.504100 -49.608000
N -14.088500 -9.568400 -45.907800
H -13.940100 -9.760200 -48.737800
H -13.937700 -10.179000 -44.003200
C -13.734300 -9.515000 -44.622000
N -13.697700 -8.033200 -47.754300
C -13.593800 -8.427300 -46.436500
O -13.185900 -6.402000 -49.275100
C -13.139300 -6.840000 -48.121200
N -13.055900 -8.403800 -44.321200
C -12.951000 -7.676000 -45.489400
H -12.843400 -7.185900 -42.746000
H -12.712100 -8.702400 -42.371100
N -12.500800 -6.111500 -47.140900
C -12.486400 -8.033200 -43.021700
C -12.333300 -6.421700 -45.787400
H -12.087000 -5.371600 -47.417700
O -11.731700 -5.668400 -45.040100
H -11.531700 -7.969300 -43.097200
42
Fragment
H -11.067100 -11.101400 -42.695700
O -10.867100 -13.402300 -40.752800
H -10.511700 -13.699100 -38.375200
C -10.265500 -12.649000 -40.005500
C -10.112400 -11.037500 -42.771200
N -10.097900 -12.959200 -38.652000
H -9.886700 -10.368300 -43.421800
H -9.755400 -11.884800 -43.046900
C -9.647700 -11.394700 -40.303500
N -9.542900 -10.666900 -41.471700
C -9.459500 -12.230700 -37.671700
O -9.412900 -12.668700 -36.517700
C -9.004900 -10.643400 -39.356300
N -8.901100 -11.037500 -38.038600
C -8.864400 -9.555700 -41.170900
H -8.661000 -8.891700 -41.789700
H -8.658700 -9.310500 -37.055100
N -8.510300 -9.502300 -39.885100
H -8.309000 -10.566600 -36.184900
C -8.238100 -10.173600 -37.057700
H -7.311600 -10.077000 -37.290700
H -15.287200 -8.993700 -48.502200
C -14.360700 -8.897100 -48.735200
H -14.289800 -8.504100 -49.608000
N -14.088500 -9.568400 -45.907800
H -13.940100 -9.760200 -48.737800
H -13.937700 -10.179000 -44.003200
C -13.734300 -9.515000 -44.622000
N -13.697700 -8.033200 -47.754300
C -13.593800 -8.427300 -46.436500
O -13.185900 -6.402000 -49.275100
C -13.139300 -6.840000 -48.121200
N -13.055900 -8.403800 -44.321200
C -12.951000 -7.676000 -45.489400
H -12.843400 -7.185900 -42.746000
H -12.712100 -8.702400 -42.371100
N -12.500800 -6.111500 -47.140900
C -12.486400 -8.033200 -43.021700
C -12.333300 -6.421700 -45.787400
H -12.087000 -5.371600 -47.417700
O -11.731700 -5.668400 -45.040100
H -11.531700 -7.969300 -43.097200
