21
Fragment
H -44.762600 -27.542900 -12.597500
H -44.687700 -27.130700 -14.042400
H -44.527200 -24.592400 -13.606700
C -44.187700 -27.311100 -13.294500
C -43.758600 -24.833200 -13.127500
H -43.601600 -27.983400 -13.483300
N -43.441600 -26.112000 -12.890100
N -42.899600 -23.968100 -12.583700
C -42.295800 -26.085000 -12.129200
C -41.992400 -24.755700 -11.952700
O -41.628500 -28.331500 -11.748700
C -41.469100 -27.121300 -11.615100
H -41.030600 -22.440700 -11.668100
H -41.014600 -22.668100 -10.099800
N -40.890700 -24.338200 -11.244100
C -40.642700 -22.920800 -10.974000
N -40.378400 -26.601500 -10.923900
C -40.042600 -25.281900 -10.716200
H -39.826700 -27.173300 -10.608000
H -39.714400 -22.739200 -10.949300
O -39.024400 -24.969600 -10.102000
21
Fragment
O -41.233700 -24.969600 -8.050000
H -40.543700 -22.739200 -7.202700
H -40.431400 -27.173300 -7.544000
C -40.215500 -25.281900 -7.435800
N -39.879700 -26.601500 -7.228100
C -39.615400 -22.920800 -7.178000
N -39.367400 -24.338200 -6.907900
H -39.243500 -22.668100 -8.052200
H -39.227500 -22.440700 -6.483900
C -38.789000 -27.121300 -6.536900
O -38.629600 -28.331500 -6.403300
C -38.265700 -24.755700 -6.199300
C -37.962300 -26.085000 -6.022800
N -37.358500 -23.968100 -5.568300
N -36.816500 -26.112000 -5.261900
H -36.656500 -27.983400 -4.668700
C -36.499500 -24.833200 -5.024500
C -36.070400 -27.311100 -4.857500
H -35.730900 -24.592400 -4.545300
H -35.570400 -27.130700 -4.109600
H -35.495500 -27.542900 -5.554500
42
Fragment
H -44.762600 -27.542900 -12.597500
H -44.687700 -27.130700 -14.042400
H -44.527200 -24.592400 -13.606700
C -44.187700 -27.311100 -13.294500
C -43.758600 -24.833200 -13.127500
H -43.601600 -27.983400 -13.483300
N -43.441600 -26.112000 -12.890100
N -42.899600 -23.968100 -12.583700
C -42.295800 -26.085000 -12.129200
C -41.992400 -24.755700 -11.952700
O -41.628500 -28.331500 -11.748700
C -41.469100 -27.121300 -11.615100
H -41.030600 -22.440700 -11.668100
H -41.014600 -22.668100 -10.099800
N -40.890700 -24.338200 -11.244100
C -40.642700 -22.920800 -10.974000
N -40.378400 -26.601500 -10.923900
C -40.042600 -25.281900 -10.716200
H -39.826700 -27.173300 -10.608000
H -39.714400 -22.739200 -10.949300
O -39.024400 -24.969600 -10.102000
O -41.233700 -24.969600 -8.050000
H -40.543700 -22.739200 -7.202700
H -40.431400 -27.173300 -7.544000
C -40.215500 -25.281900 -7.435800
N -39.879700 -26.601500 -7.228100
C -39.615400 -22.920800 -7.178000
N -39.367400 -24.338200 -6.907900
H -39.243500 -22.668100 -8.052200
H -39.227500 -22.440700 -6.483900
C -38.789000 -27.121300 -6.536900
O -38.629600 -28.331500 -6.403300
C -38.265700 -24.755700 -6.199300
C -37.962300 -26.085000 -6.022800
N -37.358500 -23.968100 -5.568300
N -36.816500 -26.112000 -5.261900
H -36.656500 -27.983400 -4.668700
C -36.499500 -24.833200 -5.024500
C -36.070400 -27.311100 -4.857500
H -35.730900 -24.592400 -4.545300
H -35.570400 -27.130700 -4.109600
H -35.495500 -27.542900 -5.554500
