21
Fragment
H -11.067100 -11.101400 -42.695700
O -10.867100 -13.402300 -40.752800
H -10.511700 -13.699100 -38.375200
C -10.265500 -12.649000 -40.005500
C -10.112400 -11.037500 -42.771200
N -10.097900 -12.959200 -38.652000
H -9.886700 -10.368300 -43.421800
H -9.755400 -11.884800 -43.046900
C -9.647700 -11.394700 -40.303500
N -9.542900 -10.666900 -41.471700
C -9.459500 -12.230700 -37.671700
O -9.412900 -12.668700 -36.517700
C -9.004900 -10.643400 -39.356300
N -8.901100 -11.037500 -38.038600
C -8.864400 -9.555700 -41.170900
H -8.661000 -8.891700 -41.789700
H -8.658700 -9.310500 -37.055100
N -8.510300 -9.502300 -39.885100
H -8.309000 -10.566600 -36.184900
C -8.238100 -10.173600 -37.057700
H -7.311600 -10.077000 -37.290700
17
Fragment
H -7.635300 -14.671700 -39.290300
O -6.990100 -13.968700 -38.821600
O -6.881000 -13.096500 -40.876000
C -6.573200 -13.065300 -39.683200
H -6.229600 -11.690300 -41.377900
C -5.737600 -11.998600 -39.099300
H -5.669100 -12.721000 -37.201800
O -5.598400 -10.879200 -41.214600
C -5.389000 -12.015200 -37.738900
C -5.301000 -10.932600 -39.894600
C -4.637200 -10.998700 -37.188600
C -4.544200 -9.901500 -39.346100
H -4.408900 -11.018100 -36.287000
H -4.258900 -9.193800 -39.877700
C -4.221300 -9.940300 -37.998000
O -3.474700 -8.913600 -37.498900
H -3.250700 -9.052200 -36.633600
38
Fragment
H -11.067100 -11.101400 -42.695700
O -10.867100 -13.402300 -40.752800
H -10.511700 -13.699100 -38.375200
C -10.265500 -12.649000 -40.005500
C -10.112400 -11.037500 -42.771200
N -10.097900 -12.959200 -38.652000
H -9.886700 -10.368300 -43.421800
H -9.755400 -11.884800 -43.046900
C -9.647700 -11.394700 -40.303500
N -9.542900 -10.666900 -41.471700
C -9.459500 -12.230700 -37.671700
O -9.412900 -12.668700 -36.517700
C -9.004900 -10.643400 -39.356300
N -8.901100 -11.037500 -38.038600
C -8.864400 -9.555700 -41.170900
H -8.661000 -8.891700 -41.789700
H -8.658700 -9.310500 -37.055100
N -8.510300 -9.502300 -39.885100
H -8.309000 -10.566600 -36.184900
C -8.238100 -10.173600 -37.057700
H -7.311600 -10.077000 -37.290700
H -7.635300 -14.671700 -39.290300
O -6.990100 -13.968700 -38.821600
O -6.881000 -13.096500 -40.876000
C -6.573200 -13.065300 -39.683200
H -6.229600 -11.690300 -41.377900
C -5.737600 -11.998600 -39.099300
H -5.669100 -12.721000 -37.201800
O -5.598400 -10.879200 -41.214600
C -5.389000 -12.015200 -37.738900
C -5.301000 -10.932600 -39.894600
C -4.637200 -10.998700 -37.188600
C -4.544200 -9.901500 -39.346100
H -4.408900 -11.018100 -36.287000
H -4.258900 -9.193800 -39.877700
C -4.221300 -9.940300 -37.998000
O -3.474700 -8.913600 -37.498900
H -3.250700 -9.052200 -36.633600
