21
Fragment
O -25.313900 -21.283600 -26.538000
H -24.742400 -20.540500 -29.219200
H -24.572200 -22.076200 -29.490100
H -24.286000 -21.111300 -24.354600
C -24.111700 -21.184100 -26.273900
C -24.092400 -21.198800 -29.497100
H -23.725500 -21.052400 -30.384900
N -23.667400 -21.115000 -24.960300
C -23.021200 -21.140300 -27.191400
N -22.965000 -21.190900 -28.568100
C -22.371700 -21.005000 -24.502000
O -22.130900 -20.894300 -23.301900
C -21.712500 -21.109300 -26.769400
C -21.668700 -21.205200 -28.886600
N -21.372600 -21.036400 -25.435900
H -21.324000 -21.299400 -29.809900
N -20.862800 -21.156700 -27.817100
C -19.978700 -20.957200 -24.987900
H -19.838300 -21.641100 -24.335700
H -19.814500 -20.156500 -24.562500
H -19.432800 -21.039600 -25.756600
17
Fragment
H -23.462500 -20.377900 -18.322600
O -23.269500 -20.385100 -20.843300
H -23.008400 -20.534100 -21.591400
C -22.494300 -20.400300 -18.628100
C -22.202700 -20.407800 -19.992500
O -21.760900 -20.466000 -16.378700
C -21.446500 -20.438300 -17.710900
H -20.998600 -20.514900 -15.816300
C -20.885500 -20.442600 -20.443700
H -20.633700 -20.457300 -21.347300
C -20.129900 -20.459600 -18.140800
C -19.860400 -20.465200 -19.504900
H -19.375700 -20.463700 -17.511300
C -18.428300 -20.467400 -19.934700
O -18.251900 -20.414800 -21.240100
O -17.502900 -20.484200 -19.136100
H -17.355000 -20.348500 -21.422900
38
Fragment
O -25.313900 -21.283600 -26.538000
H -24.742400 -20.540500 -29.219200
H -24.572200 -22.076200 -29.490100
H -24.286000 -21.111300 -24.354600
C -24.111700 -21.184100 -26.273900
C -24.092400 -21.198800 -29.497100
H -23.725500 -21.052400 -30.384900
N -23.667400 -21.115000 -24.960300
C -23.021200 -21.140300 -27.191400
N -22.965000 -21.190900 -28.568100
C -22.371700 -21.005000 -24.502000
O -22.130900 -20.894300 -23.301900
C -21.712500 -21.109300 -26.769400
C -21.668700 -21.205200 -28.886600
N -21.372600 -21.036400 -25.435900
H -21.324000 -21.299400 -29.809900
N -20.862800 -21.156700 -27.817100
C -19.978700 -20.957200 -24.987900
H -19.838300 -21.641100 -24.335700
H -19.814500 -20.156500 -24.562500
H -19.432800 -21.039600 -25.756600
H -23.462500 -20.377900 -18.322600
O -23.269500 -20.385100 -20.843300
H -23.008400 -20.534100 -21.591400
C -22.494300 -20.400300 -18.628100
C -22.202700 -20.407800 -19.992500
O -21.760900 -20.466000 -16.378700
C -21.446500 -20.438300 -17.710900
H -20.998600 -20.514900 -15.816300
C -20.885500 -20.442600 -20.443700
H -20.633700 -20.457300 -21.347300
C -20.129900 -20.459600 -18.140800
C -19.860400 -20.465200 -19.504900
H -19.375700 -20.463700 -17.511300
C -18.428300 -20.467400 -19.934700
O -18.251900 -20.414800 -21.240100
O -17.502900 -20.484200 -19.136100
H -17.355000 -20.348500 -21.422900
