21
Fragment
O -25.313900 -21.283600 -26.538000
H -24.742400 -20.540500 -29.219200
H -24.572200 -22.076200 -29.490100
H -24.286000 -21.111300 -24.354600
C -24.111700 -21.184100 -26.273900
C -24.092400 -21.198800 -29.497100
H -23.725500 -21.052400 -30.384900
N -23.667400 -21.115000 -24.960300
C -23.021200 -21.140300 -27.191400
N -22.965000 -21.190900 -28.568100
C -22.371700 -21.005000 -24.502000
O -22.130900 -20.894300 -23.301900
C -21.712500 -21.109300 -26.769400
C -21.668700 -21.205200 -28.886600
N -21.372600 -21.036400 -25.435900
H -21.324000 -21.299400 -29.809900
N -20.862800 -21.156700 -27.817100
C -19.978700 -20.957200 -24.987900
H -19.838300 -21.641100 -24.335700
H -19.814500 -20.156500 -24.562500
H -19.432800 -21.039600 -25.756600
21
Fragment
H -31.262700 -23.867900 -31.727100
H -30.889300 -25.019700 -32.719600
H -30.796900 -23.599100 -33.207900
C -30.696700 -24.139200 -32.440400
N -29.757700 -24.483500 -29.663000
N -29.297400 -24.033100 -32.011800
H -29.209200 -24.745800 -27.752600
C -28.936200 -24.556300 -28.604500
C -28.935700 -24.195500 -30.697800
O -28.574100 -23.664700 -34.134000
C -28.321800 -23.786000 -32.943900
N -27.656100 -24.338200 -28.915600
C -27.626500 -24.101700 -30.277000
N -27.022900 -23.695600 -32.482500
H -26.928400 -24.533400 -27.124000
C -26.561600 -23.859300 -31.182500
C -26.536500 -24.263600 -27.972500
H -26.368500 -23.601700 -33.072400
H -26.247900 -23.343200 -27.918000
H -25.790800 -24.776500 -28.308600
O -25.357400 -23.809500 -30.918300
42
Fragment
O -25.313900 -21.283600 -26.538000
H -24.742400 -20.540500 -29.219200
H -24.572200 -22.076200 -29.490100
H -24.286000 -21.111300 -24.354600
C -24.111700 -21.184100 -26.273900
C -24.092400 -21.198800 -29.497100
H -23.725500 -21.052400 -30.384900
N -23.667400 -21.115000 -24.960300
C -23.021200 -21.140300 -27.191400
N -22.965000 -21.190900 -28.568100
C -22.371700 -21.005000 -24.502000
O -22.130900 -20.894300 -23.301900
C -21.712500 -21.109300 -26.769400
C -21.668700 -21.205200 -28.886600
N -21.372600 -21.036400 -25.435900
H -21.324000 -21.299400 -29.809900
N -20.862800 -21.156700 -27.817100
C -19.978700 -20.957200 -24.987900
H -19.838300 -21.641100 -24.335700
H -19.814500 -20.156500 -24.562500
H -19.432800 -21.039600 -25.756600
H -31.262700 -23.867900 -31.727100
H -30.889300 -25.019700 -32.719600
H -30.796900 -23.599100 -33.207900
C -30.696700 -24.139200 -32.440400
N -29.757700 -24.483500 -29.663000
N -29.297400 -24.033100 -32.011800
H -29.209200 -24.745800 -27.752600
C -28.936200 -24.556300 -28.604500
C -28.935700 -24.195500 -30.697800
O -28.574100 -23.664700 -34.134000
C -28.321800 -23.786000 -32.943900
N -27.656100 -24.338200 -28.915600
C -27.626500 -24.101700 -30.277000
N -27.022900 -23.695600 -32.482500
H -26.928400 -24.533400 -27.124000
C -26.561600 -23.859300 -31.182500
C -26.536500 -24.263600 -27.972500
H -26.368500 -23.601700 -33.072400
H -26.247900 -23.343200 -27.918000
H -25.790800 -24.776500 -28.308600
O -25.357400 -23.809500 -30.918300
