21
Fragment
O -25.313900 -21.283600 -26.538000
H -24.742400 -20.540500 -29.219200
H -24.572200 -22.076200 -29.490100
H -24.286000 -21.111300 -24.354600
C -24.111700 -21.184100 -26.273900
C -24.092400 -21.198800 -29.497100
H -23.725500 -21.052400 -30.384900
N -23.667400 -21.115000 -24.960300
C -23.021200 -21.140300 -27.191400
N -22.965000 -21.190900 -28.568100
C -22.371700 -21.005000 -24.502000
O -22.130900 -20.894300 -23.301900
C -21.712500 -21.109300 -26.769400
C -21.668700 -21.205200 -28.886600
N -21.372600 -21.036400 -25.435900
H -21.324000 -21.299400 -29.809900
N -20.862800 -21.156700 -27.817100
C -19.978700 -20.957200 -24.987900
H -19.838300 -21.641100 -24.335700
H -19.814500 -20.156500 -24.562500
H -19.432800 -21.039600 -25.756600
17
Fragment
H -23.138500 -24.414400 -26.199300
O -22.945600 -24.407200 -28.720000
H -22.684400 -24.258200 -29.468100
C -22.170300 -24.392000 -26.504700
C -21.878700 -24.384500 -27.869100
O -21.436900 -24.326300 -24.255300
C -21.122500 -24.354000 -25.587600
H -20.674600 -24.277400 -23.692900
C -20.561500 -24.349700 -28.320300
H -20.309700 -24.335000 -29.223900
C -19.805900 -24.332700 -26.017500
C -19.536500 -24.327100 -27.381600
H -19.051700 -24.328600 -25.388000
C -18.104300 -24.324900 -27.811300
O -17.927900 -24.377500 -29.116800
O -17.178900 -24.308100 -27.012800
H -17.031000 -24.443800 -29.299500
38
Fragment
O -25.313900 -21.283600 -26.538000
H -24.742400 -20.540500 -29.219200
H -24.572200 -22.076200 -29.490100
H -24.286000 -21.111300 -24.354600
C -24.111700 -21.184100 -26.273900
C -24.092400 -21.198800 -29.497100
H -23.725500 -21.052400 -30.384900
N -23.667400 -21.115000 -24.960300
C -23.021200 -21.140300 -27.191400
N -22.965000 -21.190900 -28.568100
C -22.371700 -21.005000 -24.502000
O -22.130900 -20.894300 -23.301900
C -21.712500 -21.109300 -26.769400
C -21.668700 -21.205200 -28.886600
N -21.372600 -21.036400 -25.435900
H -21.324000 -21.299400 -29.809900
N -20.862800 -21.156700 -27.817100
C -19.978700 -20.957200 -24.987900
H -19.838300 -21.641100 -24.335700
H -19.814500 -20.156500 -24.562500
H -19.432800 -21.039600 -25.756600
H -23.138500 -24.414400 -26.199300
O -22.945600 -24.407200 -28.720000
H -22.684400 -24.258200 -29.468100
C -22.170300 -24.392000 -26.504700
C -21.878700 -24.384500 -27.869100
O -21.436900 -24.326300 -24.255300
C -21.122500 -24.354000 -25.587600
H -20.674600 -24.277400 -23.692900
C -20.561500 -24.349700 -28.320300
H -20.309700 -24.335000 -29.223900
C -19.805900 -24.332700 -26.017500
C -19.536500 -24.327100 -27.381600
H -19.051700 -24.328600 -25.388000
C -18.104300 -24.324900 -27.811300
O -17.927900 -24.377500 -29.116800
O -17.178900 -24.308100 -27.012800
H -17.031000 -24.443800 -29.299500
