21
Fragment
H -44.762600 -27.542900 -12.597500
H -44.687700 -27.130700 -14.042400
H -44.527200 -24.592400 -13.606700
C -44.187700 -27.311100 -13.294500
C -43.758600 -24.833200 -13.127500
H -43.601600 -27.983400 -13.483300
N -43.441600 -26.112000 -12.890100
N -42.899600 -23.968100 -12.583700
C -42.295800 -26.085000 -12.129200
C -41.992400 -24.755700 -11.952700
O -41.628500 -28.331500 -11.748700
C -41.469100 -27.121300 -11.615100
H -41.030600 -22.440700 -11.668100
H -41.014600 -22.668100 -10.099800
N -40.890700 -24.338200 -11.244100
C -40.642700 -22.920800 -10.974000
N -40.378400 -26.601500 -10.923900
C -40.042600 -25.281900 -10.716200
H -39.826700 -27.173300 -10.608000
H -39.714400 -22.739200 -10.949300
O -39.024400 -24.969600 -10.102000
17
Fragment
H -50.915700 -23.918800 -12.328800
H -50.407400 -29.362000 -12.822600
H -50.402100 -26.097500 -12.612000
O -50.262200 -28.469900 -12.935800
O -50.126800 -23.503400 -12.660700
C -49.612100 -25.831300 -13.045500
C -49.327400 -24.481000 -13.158700
C -49.095800 -28.236800 -13.506500
C -48.770700 -26.793000 -13.624200
O -48.367500 -29.136000 -13.905900
C -48.158600 -24.069900 -13.817300
O -47.904200 -22.737100 -13.848500
C -47.639600 -26.381300 -14.319000
C -47.336200 -25.025100 -14.415600
H -47.090100 -22.597100 -14.006100
H -47.074100 -27.045400 -14.761200
H -46.466800 -24.664900 -14.920900
38
Fragment
H -44.762600 -27.542900 -12.597500
H -44.687700 -27.130700 -14.042400
H -44.527200 -24.592400 -13.606700
C -44.187700 -27.311100 -13.294500
C -43.758600 -24.833200 -13.127500
H -43.601600 -27.983400 -13.483300
N -43.441600 -26.112000 -12.890100
N -42.899600 -23.968100 -12.583700
C -42.295800 -26.085000 -12.129200
C -41.992400 -24.755700 -11.952700
O -41.628500 -28.331500 -11.748700
C -41.469100 -27.121300 -11.615100
H -41.030600 -22.440700 -11.668100
H -41.014600 -22.668100 -10.099800
N -40.890700 -24.338200 -11.244100
C -40.642700 -22.920800 -10.974000
N -40.378400 -26.601500 -10.923900
C -40.042600 -25.281900 -10.716200
H -39.826700 -27.173300 -10.608000
H -39.714400 -22.739200 -10.949300
O -39.024400 -24.969600 -10.102000
H -50.915700 -23.918800 -12.328800
H -50.407400 -29.362000 -12.822600
H -50.402100 -26.097500 -12.612000
O -50.262200 -28.469900 -12.935800
O -50.126800 -23.503400 -12.660700
C -49.612100 -25.831300 -13.045500
C -49.327400 -24.481000 -13.158700
C -49.095800 -28.236800 -13.506500
C -48.770700 -26.793000 -13.624200
O -48.367500 -29.136000 -13.905900
C -48.158600 -24.069900 -13.817300
O -47.904200 -22.737100 -13.848500
C -47.639600 -26.381300 -14.319000
C -47.336200 -25.025100 -14.415600
H -47.090100 -22.597100 -14.006100
H -47.074100 -27.045400 -14.761200
H -46.466800 -24.664900 -14.920900
