21
Fragment
H -11.067100 -11.101400 -42.695700
O -10.867100 -13.402300 -40.752800
H -10.511700 -13.699100 -38.375200
C -10.265500 -12.649000 -40.005500
C -10.112400 -11.037500 -42.771200
N -10.097900 -12.959200 -38.652000
H -9.886700 -10.368300 -43.421800
H -9.755400 -11.884800 -43.046900
C -9.647700 -11.394700 -40.303500
N -9.542900 -10.666900 -41.471700
C -9.459500 -12.230700 -37.671700
O -9.412900 -12.668700 -36.517700
C -9.004900 -10.643400 -39.356300
N -8.901100 -11.037500 -38.038600
C -8.864400 -9.555700 -41.170900
H -8.661000 -8.891700 -41.789700
H -8.658700 -9.310500 -37.055100
N -8.510300 -9.502300 -39.885100
H -8.309000 -10.566600 -36.184900
C -8.238100 -10.173600 -37.057700
H -7.311600 -10.077000 -37.290700
21
Fragment
H -12.843900 -13.255400 -34.203300
C -11.917400 -13.352000 -34.436400
H -11.846500 -13.745100 -35.309200
N -11.645300 -12.680700 -31.609000
H -11.496800 -12.489000 -34.439000
H -11.494500 -12.070100 -29.704400
C -11.291100 -12.734100 -30.323200
N -11.254400 -14.215900 -33.455500
C -11.150600 -13.821800 -32.137700
O -10.742600 -15.847100 -34.976300
C -10.696000 -15.409100 -33.822400
N -10.612600 -13.845300 -30.022400
C -10.507800 -14.573200 -31.190600
H -10.400200 -15.063200 -28.447200
H -10.268900 -13.546700 -28.072300
N -10.057600 -16.137600 -32.842100
C -10.043200 -14.215900 -28.722900
C -9.890100 -15.827400 -31.488600
H -9.643800 -16.877600 -33.118900
O -9.288400 -16.580700 -30.741300
H -9.088400 -14.279800 -28.798400
42
Fragment
H -11.067100 -11.101400 -42.695700
O -10.867100 -13.402300 -40.752800
H -10.511700 -13.699100 -38.375200
C -10.265500 -12.649000 -40.005500
C -10.112400 -11.037500 -42.771200
N -10.097900 -12.959200 -38.652000
H -9.886700 -10.368300 -43.421800
H -9.755400 -11.884800 -43.046900
C -9.647700 -11.394700 -40.303500
N -9.542900 -10.666900 -41.471700
C -9.459500 -12.230700 -37.671700
O -9.412900 -12.668700 -36.517700
C -9.004900 -10.643400 -39.356300
N -8.901100 -11.037500 -38.038600
C -8.864400 -9.555700 -41.170900
H -8.661000 -8.891700 -41.789700
H -8.658700 -9.310500 -37.055100
N -8.510300 -9.502300 -39.885100
H -8.309000 -10.566600 -36.184900
C -8.238100 -10.173600 -37.057700
H -7.311600 -10.077000 -37.290700
H -12.843900 -13.255400 -34.203300
C -11.917400 -13.352000 -34.436400
H -11.846500 -13.745100 -35.309200
N -11.645300 -12.680700 -31.609000
H -11.496800 -12.489000 -34.439000
H -11.494500 -12.070100 -29.704400
C -11.291100 -12.734100 -30.323200
N -11.254400 -14.215900 -33.455500
C -11.150600 -13.821800 -32.137700
O -10.742600 -15.847100 -34.976300
C -10.696000 -15.409100 -33.822400
N -10.612600 -13.845300 -30.022400
C -10.507800 -14.573200 -31.190600
H -10.400200 -15.063200 -28.447200
H -10.268900 -13.546700 -28.072300
N -10.057600 -16.137600 -32.842100
C -10.043200 -14.215900 -28.722900
C -9.890100 -15.827400 -31.488600
H -9.643800 -16.877600 -33.118900
O -9.288400 -16.580700 -30.741300
H -9.088400 -14.279800 -28.798400
