21
Fragment
O -25.313900 -21.283600 -26.538000
H -24.742400 -20.540500 -29.219200
H -24.572200 -22.076200 -29.490100
H -24.286000 -21.111300 -24.354600
C -24.111700 -21.184100 -26.273900
C -24.092400 -21.198800 -29.497100
H -23.725500 -21.052400 -30.384900
N -23.667400 -21.115000 -24.960300
C -23.021200 -21.140300 -27.191400
N -22.965000 -21.190900 -28.568100
C -22.371700 -21.005000 -24.502000
O -22.130900 -20.894300 -23.301900
C -21.712500 -21.109300 -26.769400
C -21.668700 -21.205200 -28.886600
N -21.372600 -21.036400 -25.435900
H -21.324000 -21.299400 -29.809900
N -20.862800 -21.156700 -27.817100
C -19.978700 -20.957200 -24.987900
H -19.838300 -21.641100 -24.335700
H -19.814500 -20.156500 -24.562500
H -19.432800 -21.039600 -25.756600
17
Fragment
H -27.774300 -17.785100 -31.804300
O -27.580800 -17.439300 -34.313800
H -27.286800 -17.325700 -35.077800
C -26.821300 -17.674000 -32.106100
C -26.525200 -17.491400 -33.458400
O -26.118000 -17.856900 -29.863500
C -25.784400 -17.708700 -31.181900
H -25.360900 -17.814500 -29.301100
C -25.201800 -17.360000 -33.883900
H -24.971700 -17.228400 -34.825800
C -24.466500 -17.579700 -31.585800
C -24.182100 -17.408100 -32.941500
H -23.725500 -17.600800 -30.914200
C -22.757700 -17.276900 -33.346200
O -22.562300 -17.183900 -34.645900
O -21.837000 -17.260800 -32.529700
H -21.604200 -17.213000 -34.846300
38
Fragment
O -25.313900 -21.283600 -26.538000
H -24.742400 -20.540500 -29.219200
H -24.572200 -22.076200 -29.490100
H -24.286000 -21.111300 -24.354600
C -24.111700 -21.184100 -26.273900
C -24.092400 -21.198800 -29.497100
H -23.725500 -21.052400 -30.384900
N -23.667400 -21.115000 -24.960300
C -23.021200 -21.140300 -27.191400
N -22.965000 -21.190900 -28.568100
C -22.371700 -21.005000 -24.502000
O -22.130900 -20.894300 -23.301900
C -21.712500 -21.109300 -26.769400
C -21.668700 -21.205200 -28.886600
N -21.372600 -21.036400 -25.435900
H -21.324000 -21.299400 -29.809900
N -20.862800 -21.156700 -27.817100
C -19.978700 -20.957200 -24.987900
H -19.838300 -21.641100 -24.335700
H -19.814500 -20.156500 -24.562500
H -19.432800 -21.039600 -25.756600
H -27.774300 -17.785100 -31.804300
O -27.580800 -17.439300 -34.313800
H -27.286800 -17.325700 -35.077800
C -26.821300 -17.674000 -32.106100
C -26.525200 -17.491400 -33.458400
O -26.118000 -17.856900 -29.863500
C -25.784400 -17.708700 -31.181900
H -25.360900 -17.814500 -29.301100
C -25.201800 -17.360000 -33.883900
H -24.971700 -17.228400 -34.825800
C -24.466500 -17.579700 -31.585800
C -24.182100 -17.408100 -32.941500
H -23.725500 -17.600800 -30.914200
C -22.757700 -17.276900 -33.346200
O -22.562300 -17.183900 -34.645900
O -21.837000 -17.260800 -32.529700
H -21.604200 -17.213000 -34.846300
