21
Fragment
H -44.762600 -27.542900 -12.597500
H -44.687700 -27.130700 -14.042400
H -44.527200 -24.592400 -13.606700
C -44.187700 -27.311100 -13.294500
C -43.758600 -24.833200 -13.127500
H -43.601600 -27.983400 -13.483300
N -43.441600 -26.112000 -12.890100
N -42.899600 -23.968100 -12.583700
C -42.295800 -26.085000 -12.129200
C -41.992400 -24.755700 -11.952700
O -41.628500 -28.331500 -11.748700
C -41.469100 -27.121300 -11.615100
H -41.030600 -22.440700 -11.668100
H -41.014600 -22.668100 -10.099800
N -40.890700 -24.338200 -11.244100
C -40.642700 -22.920800 -10.974000
N -40.378400 -26.601500 -10.923900
C -40.042600 -25.281900 -10.716200
H -39.826700 -27.173300 -10.608000
H -39.714400 -22.739200 -10.949300
O -39.024400 -24.969600 -10.102000
21
Fragment
H -44.762600 -29.305100 -8.967100
H -44.687700 -29.717300 -10.412000
H -44.527200 -32.255600 -9.976300
C -44.187700 -29.536900 -9.664100
C -43.758600 -32.014800 -9.497100
H -43.601600 -28.864600 -9.852900
N -43.441600 -30.736000 -9.259700
N -42.899600 -32.879900 -8.953300
C -42.295800 -30.763000 -8.498800
C -41.992400 -32.092300 -8.322300
O -41.628500 -28.516500 -8.118300
C -41.469100 -29.726700 -7.984700
H -41.030600 -34.407300 -8.037700
H -41.014600 -34.179900 -6.469400
N -40.890700 -32.509800 -7.613700
C -40.642700 -33.927200 -7.343600
N -40.378400 -30.246500 -7.293500
C -40.042600 -31.566100 -7.085800
H -39.826700 -29.674700 -6.977600
H -39.714400 -34.108800 -7.318900
O -39.024400 -31.878400 -6.471600
42
Fragment
H -44.762600 -27.542900 -12.597500
H -44.687700 -27.130700 -14.042400
H -44.527200 -24.592400 -13.606700
C -44.187700 -27.311100 -13.294500
C -43.758600 -24.833200 -13.127500
H -43.601600 -27.983400 -13.483300
N -43.441600 -26.112000 -12.890100
N -42.899600 -23.968100 -12.583700
C -42.295800 -26.085000 -12.129200
C -41.992400 -24.755700 -11.952700
O -41.628500 -28.331500 -11.748700
C -41.469100 -27.121300 -11.615100
H -41.030600 -22.440700 -11.668100
H -41.014600 -22.668100 -10.099800
N -40.890700 -24.338200 -11.244100
C -40.642700 -22.920800 -10.974000
N -40.378400 -26.601500 -10.923900
C -40.042600 -25.281900 -10.716200
H -39.826700 -27.173300 -10.608000
H -39.714400 -22.739200 -10.949300
O -39.024400 -24.969600 -10.102000
H -44.762600 -29.305100 -8.967100
H -44.687700 -29.717300 -10.412000
H -44.527200 -32.255600 -9.976300
C -44.187700 -29.536900 -9.664100
C -43.758600 -32.014800 -9.497100
H -43.601600 -28.864600 -9.852900
N -43.441600 -30.736000 -9.259700
N -42.899600 -32.879900 -8.953300
C -42.295800 -30.763000 -8.498800
C -41.992400 -32.092300 -8.322300
O -41.628500 -28.516500 -8.118300
C -41.469100 -29.726700 -7.984700
H -41.030600 -34.407300 -8.037700
H -41.014600 -34.179900 -6.469400
N -40.890700 -32.509800 -7.613700
C -40.642700 -33.927200 -7.343600
N -40.378400 -30.246500 -7.293500
C -40.042600 -31.566100 -7.085800
H -39.826700 -29.674700 -6.977600
H -39.714400 -34.108800 -7.318900
O -39.024400 -31.878400 -6.471600
