21
Fragment
O -25.313900 -21.283600 -26.538000
H -24.742400 -20.540500 -29.219200
H -24.572200 -22.076200 -29.490100
H -24.286000 -21.111300 -24.354600
C -24.111700 -21.184100 -26.273900
C -24.092400 -21.198800 -29.497100
H -23.725500 -21.052400 -30.384900
N -23.667400 -21.115000 -24.960300
C -23.021200 -21.140300 -27.191400
N -22.965000 -21.190900 -28.568100
C -22.371700 -21.005000 -24.502000
O -22.130900 -20.894300 -23.301900
C -21.712500 -21.109300 -26.769400
C -21.668700 -21.205200 -28.886600
N -21.372600 -21.036400 -25.435900
H -21.324000 -21.299400 -29.809900
N -20.862800 -21.156700 -27.817100
C -19.978700 -20.957200 -24.987900
H -19.838300 -21.641100 -24.335700
H -19.814500 -20.156500 -24.562500
H -19.432800 -21.039600 -25.756600
17
Fragment
H -19.513000 -23.611900 -20.290200
O -19.280200 -23.659700 -22.606700
O -18.554900 -23.582800 -20.490600
C -18.359500 -23.675800 -21.790300
H -17.391700 -23.999700 -24.222200
C -16.935100 -23.807000 -22.195000
C -16.650700 -23.978600 -23.550700
H -16.145500 -23.627300 -20.310700
C -15.915400 -23.758900 -21.252600
H -15.756300 -24.213400 -25.835400
C -15.332800 -24.107600 -23.954600
O -14.999200 -24.255800 -25.273000
C -14.592000 -23.890300 -21.678100
C -14.295900 -24.072900 -23.030300
H -13.830400 -23.724600 -20.058700
O -13.536400 -23.838200 -20.822700
H -13.342900 -24.184000 -23.332200
38
Fragment
O -25.313900 -21.283600 -26.538000
H -24.742400 -20.540500 -29.219200
H -24.572200 -22.076200 -29.490100
H -24.286000 -21.111300 -24.354600
C -24.111700 -21.184100 -26.273900
C -24.092400 -21.198800 -29.497100
H -23.725500 -21.052400 -30.384900
N -23.667400 -21.115000 -24.960300
C -23.021200 -21.140300 -27.191400
N -22.965000 -21.190900 -28.568100
C -22.371700 -21.005000 -24.502000
O -22.130900 -20.894300 -23.301900
C -21.712500 -21.109300 -26.769400
C -21.668700 -21.205200 -28.886600
N -21.372600 -21.036400 -25.435900
H -21.324000 -21.299400 -29.809900
N -20.862800 -21.156700 -27.817100
C -19.978700 -20.957200 -24.987900
H -19.838300 -21.641100 -24.335700
H -19.814500 -20.156500 -24.562500
H -19.432800 -21.039600 -25.756600
H -19.513000 -23.611900 -20.290200
O -19.280200 -23.659700 -22.606700
O -18.554900 -23.582800 -20.490600
C -18.359500 -23.675800 -21.790300
H -17.391700 -23.999700 -24.222200
C -16.935100 -23.807000 -22.195000
C -16.650700 -23.978600 -23.550700
H -16.145500 -23.627300 -20.310700
C -15.915400 -23.758900 -21.252600
H -15.756300 -24.213400 -25.835400
C -15.332800 -24.107600 -23.954600
O -14.999200 -24.255800 -25.273000
C -14.592000 -23.890300 -21.678100
C -14.295900 -24.072900 -23.030300
H -13.830400 -23.724600 -20.058700
O -13.536400 -23.838200 -20.822700
H -13.342900 -24.184000 -23.332200
