21
Fragment
O -25.313900 -21.283600 -26.538000
H -24.742400 -20.540500 -29.219200
H -24.572200 -22.076200 -29.490100
H -24.286000 -21.111300 -24.354600
C -24.111700 -21.184100 -26.273900
C -24.092400 -21.198800 -29.497100
H -23.725500 -21.052400 -30.384900
N -23.667400 -21.115000 -24.960300
C -23.021200 -21.140300 -27.191400
N -22.965000 -21.190900 -28.568100
C -22.371700 -21.005000 -24.502000
O -22.130900 -20.894300 -23.301900
C -21.712500 -21.109300 -26.769400
C -21.668700 -21.205200 -28.886600
N -21.372600 -21.036400 -25.435900
H -21.324000 -21.299400 -29.809900
N -20.862800 -21.156700 -27.817100
C -19.978700 -20.957200 -24.987900
H -19.838300 -21.641100 -24.335700
H -19.814500 -20.156500 -24.562500
H -19.432800 -21.039600 -25.756600
21
Fragment
H -31.586700 -20.924400 -23.850500
H -31.213300 -19.772600 -24.842900
H -31.120900 -21.193200 -25.331300
C -31.020700 -20.653100 -24.563800
N -30.081700 -20.308800 -21.786300
N -29.621400 -20.759200 -24.135100
H -29.533200 -20.046500 -19.875900
C -29.260100 -20.236000 -20.727800
C -29.259600 -20.596800 -22.821100
O -28.898100 -21.127600 -26.257400
C -28.645800 -21.006300 -25.067200
N -27.980100 -20.454100 -21.039000
C -27.950500 -20.690600 -22.400400
N -27.346900 -21.096700 -24.605800
H -27.252400 -20.258900 -19.247400
C -26.885600 -20.933000 -23.305900
C -26.860500 -20.528700 -20.095800
H -26.692500 -21.190600 -25.195800
H -26.571900 -21.449100 -20.041300
H -26.114700 -20.015800 -20.432000
O -25.681400 -20.982800 -23.041700
42
Fragment
O -25.313900 -21.283600 -26.538000
H -24.742400 -20.540500 -29.219200
H -24.572200 -22.076200 -29.490100
H -24.286000 -21.111300 -24.354600
C -24.111700 -21.184100 -26.273900
C -24.092400 -21.198800 -29.497100
H -23.725500 -21.052400 -30.384900
N -23.667400 -21.115000 -24.960300
C -23.021200 -21.140300 -27.191400
N -22.965000 -21.190900 -28.568100
C -22.371700 -21.005000 -24.502000
O -22.130900 -20.894300 -23.301900
C -21.712500 -21.109300 -26.769400
C -21.668700 -21.205200 -28.886600
N -21.372600 -21.036400 -25.435900
H -21.324000 -21.299400 -29.809900
N -20.862800 -21.156700 -27.817100
C -19.978700 -20.957200 -24.987900
H -19.838300 -21.641100 -24.335700
H -19.814500 -20.156500 -24.562500
H -19.432800 -21.039600 -25.756600
H -31.586700 -20.924400 -23.850500
H -31.213300 -19.772600 -24.842900
H -31.120900 -21.193200 -25.331300
C -31.020700 -20.653100 -24.563800
N -30.081700 -20.308800 -21.786300
N -29.621400 -20.759200 -24.135100
H -29.533200 -20.046500 -19.875900
C -29.260100 -20.236000 -20.727800
C -29.259600 -20.596800 -22.821100
O -28.898100 -21.127600 -26.257400
C -28.645800 -21.006300 -25.067200
N -27.980100 -20.454100 -21.039000
C -27.950500 -20.690600 -22.400400
N -27.346900 -21.096700 -24.605800
H -27.252400 -20.258900 -19.247400
C -26.885600 -20.933000 -23.305900
C -26.860500 -20.528700 -20.095800
H -26.692500 -21.190600 -25.195800
H -26.571900 -21.449100 -20.041300
H -26.114700 -20.015800 -20.432000
O -25.681400 -20.982800 -23.041700
