21
Fragment
H -11.067100 -11.101400 -42.695700
O -10.867100 -13.402300 -40.752800
H -10.511700 -13.699100 -38.375200
C -10.265500 -12.649000 -40.005500
C -10.112400 -11.037500 -42.771200
N -10.097900 -12.959200 -38.652000
H -9.886700 -10.368300 -43.421800
H -9.755400 -11.884800 -43.046900
C -9.647700 -11.394700 -40.303500
N -9.542900 -10.666900 -41.471700
C -9.459500 -12.230700 -37.671700
O -9.412900 -12.668700 -36.517700
C -9.004900 -10.643400 -39.356300
N -8.901100 -11.037500 -38.038600
C -8.864400 -9.555700 -41.170900
H -8.661000 -8.891700 -41.789700
H -8.658700 -9.310500 -37.055100
N -8.510300 -9.502300 -39.885100
H -8.309000 -10.566600 -36.184900
C -8.238100 -10.173600 -37.057700
H -7.311600 -10.077000 -37.290700
21
Fragment
H -11.067100 -4.744500 -42.695700
O -10.867100 -7.045400 -40.752800
H -10.511700 -7.342200 -38.375200
C -10.265500 -6.292100 -40.005500
C -10.112400 -4.680600 -42.771200
N -10.097900 -6.602300 -38.652000
H -9.886700 -4.011400 -43.421800
H -9.755400 -5.527900 -43.046900
C -9.647700 -5.037800 -40.303500
N -9.542900 -4.310000 -41.471700
C -9.459500 -5.873800 -37.671700
O -9.412900 -6.311800 -36.517700
C -9.004900 -4.286500 -39.356300
N -8.901100 -4.680600 -38.038600
C -8.864400 -3.198800 -41.170900
H -8.661000 -2.534800 -41.789700
H -8.658700 -2.953600 -37.055100
N -8.510300 -3.145400 -39.885100
H -8.309000 -4.209700 -36.184900
C -8.238100 -3.816700 -37.057700
H -7.311600 -3.720100 -37.290700
42
Fragment
H -11.067100 -11.101400 -42.695700
O -10.867100 -13.402300 -40.752800
H -10.511700 -13.699100 -38.375200
C -10.265500 -12.649000 -40.005500
C -10.112400 -11.037500 -42.771200
N -10.097900 -12.959200 -38.652000
H -9.886700 -10.368300 -43.421800
H -9.755400 -11.884800 -43.046900
C -9.647700 -11.394700 -40.303500
N -9.542900 -10.666900 -41.471700
C -9.459500 -12.230700 -37.671700
O -9.412900 -12.668700 -36.517700
C -9.004900 -10.643400 -39.356300
N -8.901100 -11.037500 -38.038600
C -8.864400 -9.555700 -41.170900
H -8.661000 -8.891700 -41.789700
H -8.658700 -9.310500 -37.055100
N -8.510300 -9.502300 -39.885100
H -8.309000 -10.566600 -36.184900
C -8.238100 -10.173600 -37.057700
H -7.311600 -10.077000 -37.290700
H -11.067100 -4.744500 -42.695700
O -10.867100 -7.045400 -40.752800
H -10.511700 -7.342200 -38.375200
C -10.265500 -6.292100 -40.005500
C -10.112400 -4.680600 -42.771200
N -10.097900 -6.602300 -38.652000
H -9.886700 -4.011400 -43.421800
H -9.755400 -5.527900 -43.046900
C -9.647700 -5.037800 -40.303500
N -9.542900 -4.310000 -41.471700
C -9.459500 -5.873800 -37.671700
O -9.412900 -6.311800 -36.517700
C -9.004900 -4.286500 -39.356300
N -8.901100 -4.680600 -38.038600
C -8.864400 -3.198800 -41.170900
H -8.661000 -2.534800 -41.789700
H -8.658700 -2.953600 -37.055100
N -8.510300 -3.145400 -39.885100
H -8.309000 -4.209700 -36.184900
C -8.238100 -3.816700 -37.057700
H -7.311600 -3.720100 -37.290700
