21
Fragment
H -11.067100 -11.101400 -42.695700
O -10.867100 -13.402300 -40.752800
H -10.511700 -13.699100 -38.375200
C -10.265500 -12.649000 -40.005500
C -10.112400 -11.037500 -42.771200
N -10.097900 -12.959200 -38.652000
H -9.886700 -10.368300 -43.421800
H -9.755400 -11.884800 -43.046900
C -9.647700 -11.394700 -40.303500
N -9.542900 -10.666900 -41.471700
C -9.459500 -12.230700 -37.671700
O -9.412900 -12.668700 -36.517700
C -9.004900 -10.643400 -39.356300
N -8.901100 -11.037500 -38.038600
C -8.864400 -9.555700 -41.170900
H -8.661000 -8.891700 -41.789700
H -8.658700 -9.310500 -37.055100
N -8.510300 -9.502300 -39.885100
H -8.309000 -10.566600 -36.184900
C -8.238100 -10.173600 -37.057700
H -7.311600 -10.077000 -37.290700
17
Fragment
H -11.408900 -10.018500 -49.159300
O -11.184900 -10.157100 -48.294000
C -10.438300 -9.130400 -47.794900
H -10.400700 -9.876900 -45.915200
H -10.250600 -8.052600 -49.505900
C -10.115400 -9.169200 -46.446800
C -10.022400 -8.072000 -48.604200
C -9.358600 -8.138100 -45.898300
C -9.270600 -7.055500 -48.054000
O -9.061200 -8.191500 -44.578300
H -8.990500 -6.349700 -48.591100
C -8.922000 -7.072100 -46.693600
H -8.430000 -7.380400 -44.415000
C -8.086400 -6.005400 -46.109700
O -7.778600 -5.974200 -44.916900
O -7.669400 -5.102000 -46.971300
H -7.024200 -4.399000 -46.502600
38
Fragment
H -11.067100 -11.101400 -42.695700
O -10.867100 -13.402300 -40.752800
H -10.511700 -13.699100 -38.375200
C -10.265500 -12.649000 -40.005500
C -10.112400 -11.037500 -42.771200
N -10.097900 -12.959200 -38.652000
H -9.886700 -10.368300 -43.421800
H -9.755400 -11.884800 -43.046900
C -9.647700 -11.394700 -40.303500
N -9.542900 -10.666900 -41.471700
C -9.459500 -12.230700 -37.671700
O -9.412900 -12.668700 -36.517700
C -9.004900 -10.643400 -39.356300
N -8.901100 -11.037500 -38.038600
C -8.864400 -9.555700 -41.170900
H -8.661000 -8.891700 -41.789700
H -8.658700 -9.310500 -37.055100
N -8.510300 -9.502300 -39.885100
H -8.309000 -10.566600 -36.184900
C -8.238100 -10.173600 -37.057700
H -7.311600 -10.077000 -37.290700
H -11.408900 -10.018500 -49.159300
O -11.184900 -10.157100 -48.294000
C -10.438300 -9.130400 -47.794900
H -10.400700 -9.876900 -45.915200
H -10.250600 -8.052600 -49.505900
C -10.115400 -9.169200 -46.446800
C -10.022400 -8.072000 -48.604200
C -9.358600 -8.138100 -45.898300
C -9.270600 -7.055500 -48.054000
O -9.061200 -8.191500 -44.578300
H -8.990500 -6.349700 -48.591100
C -8.922000 -7.072100 -46.693600
H -8.430000 -7.380400 -44.415000
C -8.086400 -6.005400 -46.109700
O -7.778600 -5.974200 -44.916900
O -7.669400 -5.102000 -46.971300
H -7.024200 -4.399000 -46.502600
