21
Fragment
H -44.762600 -27.542900 -12.597500
H -44.687700 -27.130700 -14.042400
H -44.527200 -24.592400 -13.606700
C -44.187700 -27.311100 -13.294500
C -43.758600 -24.833200 -13.127500
H -43.601600 -27.983400 -13.483300
N -43.441600 -26.112000 -12.890100
N -42.899600 -23.968100 -12.583700
C -42.295800 -26.085000 -12.129200
C -41.992400 -24.755700 -11.952700
O -41.628500 -28.331500 -11.748700
C -41.469100 -27.121300 -11.615100
H -41.030600 -22.440700 -11.668100
H -41.014600 -22.668100 -10.099800
N -40.890700 -24.338200 -11.244100
C -40.642700 -22.920800 -10.974000
N -40.378400 -26.601500 -10.923900
C -40.042600 -25.281900 -10.716200
H -39.826700 -27.173300 -10.608000
H -39.714400 -22.739200 -10.949300
O -39.024400 -24.969600 -10.102000
17
Fragment
H -47.167700 -31.770900 -14.920900
H -46.560400 -34.151400 -14.761200
H -46.544300 -29.703100 -14.006100
C -46.298200 -32.131100 -14.415600
C -45.994800 -33.487300 -14.319000
O -45.730300 -29.843100 -13.848500
C -45.475800 -31.175900 -13.817300
O -45.266900 -36.242000 -13.905900
C -44.863700 -33.899000 -13.624200
C -44.538700 -35.342800 -13.506500
C -44.307000 -31.587000 -13.158700
C -44.022400 -32.937300 -13.045500
O -43.507600 -30.609400 -12.660700
O -43.372300 -35.575900 -12.935800
H -43.232400 -33.203500 -12.612000
H -43.227000 -36.468000 -12.822600
H -42.718700 -31.024800 -12.328800
38
Fragment
H -44.762600 -27.542900 -12.597500
H -44.687700 -27.130700 -14.042400
H -44.527200 -24.592400 -13.606700
C -44.187700 -27.311100 -13.294500
C -43.758600 -24.833200 -13.127500
H -43.601600 -27.983400 -13.483300
N -43.441600 -26.112000 -12.890100
N -42.899600 -23.968100 -12.583700
C -42.295800 -26.085000 -12.129200
C -41.992400 -24.755700 -11.952700
O -41.628500 -28.331500 -11.748700
C -41.469100 -27.121300 -11.615100
H -41.030600 -22.440700 -11.668100
H -41.014600 -22.668100 -10.099800
N -40.890700 -24.338200 -11.244100
C -40.642700 -22.920800 -10.974000
N -40.378400 -26.601500 -10.923900
C -40.042600 -25.281900 -10.716200
H -39.826700 -27.173300 -10.608000
H -39.714400 -22.739200 -10.949300
O -39.024400 -24.969600 -10.102000
H -47.167700 -31.770900 -14.920900
H -46.560400 -34.151400 -14.761200
H -46.544300 -29.703100 -14.006100
C -46.298200 -32.131100 -14.415600
C -45.994800 -33.487300 -14.319000
O -45.730300 -29.843100 -13.848500
C -45.475800 -31.175900 -13.817300
O -45.266900 -36.242000 -13.905900
C -44.863700 -33.899000 -13.624200
C -44.538700 -35.342800 -13.506500
C -44.307000 -31.587000 -13.158700
C -44.022400 -32.937300 -13.045500
O -43.507600 -30.609400 -12.660700
O -43.372300 -35.575900 -12.935800
H -43.232400 -33.203500 -12.612000
H -43.227000 -36.468000 -12.822600
H -42.718700 -31.024800 -12.328800
