25
Fragment
H -11.730400 -39.079300 -6.697900
H -11.730400 -36.679700 -6.697900
H -10.951600 -39.876800 -5.555200
H -10.951600 -35.882200 -5.555200
C -10.891800 -39.104500 -6.172100
C -10.891800 -36.654500 -6.172100
N -10.811500 -37.879500 -5.372100
H -10.722800 -38.963600 -8.819700
H -10.722800 -36.795400 -8.819700
C -9.883400 -38.659100 -8.391700
C -9.883400 -37.099900 -8.391700
N -9.766400 -39.335100 -7.100100
N -9.766400 -36.423900 -7.100100
C -9.534400 -37.879500 -4.659800
H -9.483300 -38.680300 -4.079600
H -9.483300 -37.078700 -4.079600
H -9.135600 -38.963600 -8.963700
H -9.135600 -36.795400 -8.963700
C -8.474900 -39.105500 -6.387800
C -8.474900 -36.653500 -6.387800
N -8.400300 -37.879500 -5.586600
H -8.305700 -39.877800 -5.792000
H -8.305700 -35.881200 -5.792000
H -7.748000 -39.084100 -7.059300
H -7.748000 -36.674900 -7.059300
15
Fragment
O -13.394800 -33.747100 -1.350900
H -13.369800 -31.226600 -1.178800
H -13.250100 -34.586500 -1.575400
O -13.213100 -28.861900 -1.601100
C -13.016400 -31.531900 -2.006200
C -12.926600 -32.896100 -2.288300
N -12.691800 -29.199800 -2.655900
C -12.576600 -30.635400 -2.967100
C -12.392300 -33.315000 -3.516200
H -12.330100 -34.242100 -3.713900
O -12.247700 -28.394200 -3.465400
C -12.046900 -31.018300 -4.192200
C -11.956300 -32.379900 -4.441900
H -11.759500 -30.376300 -4.830700
H -11.587200 -32.677900 -5.265100
40
Fragment
H -11.730400 -39.079300 -6.697900
H -11.730400 -36.679700 -6.697900
H -10.951600 -39.876800 -5.555200
H -10.951600 -35.882200 -5.555200
C -10.891800 -39.104500 -6.172100
C -10.891800 -36.654500 -6.172100
N -10.811500 -37.879500 -5.372100
H -10.722800 -38.963600 -8.819700
H -10.722800 -36.795400 -8.819700
C -9.883400 -38.659100 -8.391700
C -9.883400 -37.099900 -8.391700
N -9.766400 -39.335100 -7.100100
N -9.766400 -36.423900 -7.100100
C -9.534400 -37.879500 -4.659800
H -9.483300 -38.680300 -4.079600
H -9.483300 -37.078700 -4.079600
H -9.135600 -38.963600 -8.963700
H -9.135600 -36.795400 -8.963700
C -8.474900 -39.105500 -6.387800
C -8.474900 -36.653500 -6.387800
N -8.400300 -37.879500 -5.586600
H -8.305700 -39.877800 -5.792000
H -8.305700 -35.881200 -5.792000
H -7.748000 -39.084100 -7.059300
H -7.748000 -36.674900 -7.059300
O -13.394800 -33.747100 -1.350900
H -13.369800 -31.226600 -1.178800
H -13.250100 -34.586500 -1.575400
O -13.213100 -28.861900 -1.601100
C -13.016400 -31.531900 -2.006200
C -12.926600 -32.896100 -2.288300
N -12.691800 -29.199800 -2.655900
C -12.576600 -30.635400 -2.967100
C -12.392300 -33.315000 -3.516200
H -12.330100 -34.242100 -3.713900
O -12.247700 -28.394200 -3.465400
C -12.046900 -31.018300 -4.192200
C -11.956300 -32.379900 -4.441900
H -11.759500 -30.376300 -4.830700
H -11.587200 -32.677900 -5.265100
