25
Fragment
H -11.730400 -39.079300 -6.697900
H -11.730400 -36.679700 -6.697900
H -10.951600 -39.876800 -5.555200
H -10.951600 -35.882200 -5.555200
C -10.891800 -39.104500 -6.172100
C -10.891800 -36.654500 -6.172100
N -10.811500 -37.879500 -5.372100
H -10.722800 -38.963600 -8.819700
H -10.722800 -36.795400 -8.819700
C -9.883400 -38.659100 -8.391700
C -9.883400 -37.099900 -8.391700
N -9.766400 -39.335100 -7.100100
N -9.766400 -36.423900 -7.100100
C -9.534400 -37.879500 -4.659800
H -9.483300 -38.680300 -4.079600
H -9.483300 -37.078700 -4.079600
H -9.135600 -38.963600 -8.963700
H -9.135600 -36.795400 -8.963700
C -8.474900 -39.105500 -6.387800
C -8.474900 -36.653500 -6.387800
N -8.400300 -37.879500 -5.586600
H -8.305700 -39.877800 -5.792000
H -8.305700 -35.881200 -5.792000
H -7.748000 -39.084100 -7.059300
H -7.748000 -36.674900 -7.059300
15
Fragment
O -13.648800 -46.373600 -6.937500
H -13.623800 -43.853100 -6.765400
H -13.504100 -47.213000 -7.162100
O -13.467000 -41.488400 -7.187800
C -13.270400 -44.158400 -7.592800
C -13.180500 -45.522600 -7.874900
N -12.945800 -41.826300 -8.242500
C -12.830600 -43.261900 -8.553700
C -12.646200 -45.941500 -9.102900
H -12.584000 -46.868600 -9.300500
O -12.501600 -41.020700 -9.052000
C -12.300800 -43.644800 -9.778900
C -12.210200 -45.006400 -10.028600
H -12.013400 -43.002800 -10.417400
H -11.841200 -45.304400 -10.851800
40
Fragment
H -11.730400 -39.079300 -6.697900
H -11.730400 -36.679700 -6.697900
H -10.951600 -39.876800 -5.555200
H -10.951600 -35.882200 -5.555200
C -10.891800 -39.104500 -6.172100
C -10.891800 -36.654500 -6.172100
N -10.811500 -37.879500 -5.372100
H -10.722800 -38.963600 -8.819700
H -10.722800 -36.795400 -8.819700
C -9.883400 -38.659100 -8.391700
C -9.883400 -37.099900 -8.391700
N -9.766400 -39.335100 -7.100100
N -9.766400 -36.423900 -7.100100
C -9.534400 -37.879500 -4.659800
H -9.483300 -38.680300 -4.079600
H -9.483300 -37.078700 -4.079600
H -9.135600 -38.963600 -8.963700
H -9.135600 -36.795400 -8.963700
C -8.474900 -39.105500 -6.387800
C -8.474900 -36.653500 -6.387800
N -8.400300 -37.879500 -5.586600
H -8.305700 -39.877800 -5.792000
H -8.305700 -35.881200 -5.792000
H -7.748000 -39.084100 -7.059300
H -7.748000 -36.674900 -7.059300
O -13.648800 -46.373600 -6.937500
H -13.623800 -43.853100 -6.765400
H -13.504100 -47.213000 -7.162100
O -13.467000 -41.488400 -7.187800
C -13.270400 -44.158400 -7.592800
C -13.180500 -45.522600 -7.874900
N -12.945800 -41.826300 -8.242500
C -12.830600 -43.261900 -8.553700
C -12.646200 -45.941500 -9.102900
H -12.584000 -46.868600 -9.300500
O -12.501600 -41.020700 -9.052000
C -12.300800 -43.644800 -9.778900
C -12.210200 -45.006400 -10.028600
H -12.013400 -43.002800 -10.417400
H -11.841200 -45.304400 -10.851800
