28
Fragment
H -35.440600 -12.971900 -19.354000
H -35.309700 -9.491000 -17.462600
H -35.299500 -10.640200 -20.665400
H -35.258700 -10.886300 -16.690800
H -35.194800 -12.878400 -17.783400
N -35.188500 -11.083100 -18.699000
C -34.889200 -12.532300 -18.659700
C -34.866400 -10.376000 -17.441700
H -34.834900 -9.408500 -19.769400
C -34.707800 -10.379900 -19.915700
H -33.833500 -11.911600 -21.757900
H -33.699400 -13.777100 -20.671500
N -33.511000 -12.965400 -18.851400
C -33.371500 -10.159800 -17.148000
N -33.338500 -10.586400 -20.340900
H -33.200800 -10.444200 -16.215200
H -33.187900 -9.187700 -17.195900
C -33.122100 -11.827800 -21.075800
C -33.103600 -13.115400 -20.240100
H -32.726400 -12.593400 -17.057100
C -32.528900 -12.321300 -17.988600
N -32.415800 -10.842200 -18.009500
C -32.314400 -10.262300 -19.360200
H -32.294600 -9.277300 -19.261900
H -32.260600 -11.757700 -21.555100
H -32.185500 -13.486800 -20.258600
H -31.640800 -12.692700 -18.217200
H -31.441000 -10.534400 -19.737500
28
Fragment
H -33.639300 -6.507400 -25.499000
H -33.508400 -9.988300 -23.607600
H -33.498200 -8.839100 -26.810300
H -33.457400 -8.593000 -22.835800
H -33.393400 -6.600900 -23.928300
N -33.387200 -8.396200 -24.843900
C -33.087900 -6.947000 -24.804600
C -33.065100 -9.103300 -23.586700
H -33.033600 -10.070800 -25.914400
C -32.906500 -9.099400 -26.060600
H -32.032200 -7.567700 -27.902900
H -31.898100 -5.702200 -26.816400
N -31.709600 -6.513900 -24.996300
C -31.570200 -9.319500 -23.292900
N -31.537200 -8.892900 -26.485800
H -31.399400 -9.035100 -22.360100
H -31.386600 -10.291600 -23.340900
C -31.320700 -7.651500 -27.220800
C -31.302300 -6.363900 -26.385100
H -30.925100 -6.885900 -23.202000
C -30.727600 -7.158000 -24.133600
N -30.614500 -8.637100 -24.154500
C -30.513100 -9.217000 -25.505100
H -30.493300 -10.202000 -25.406800
H -30.459300 -7.721600 -27.700100
H -30.384200 -5.992500 -26.403500
H -29.839400 -6.786600 -24.362100
H -29.639700 -8.944900 -25.882400
56
Fragment
H -35.440600 -12.971900 -19.354000
H -35.309700 -9.491000 -17.462600
H -35.299500 -10.640200 -20.665400
H -35.258700 -10.886300 -16.690800
H -35.194800 -12.878400 -17.783400
N -35.188500 -11.083100 -18.699000
C -34.889200 -12.532300 -18.659700
C -34.866400 -10.376000 -17.441700
H -34.834900 -9.408500 -19.769400
C -34.707800 -10.379900 -19.915700
H -33.833500 -11.911600 -21.757900
H -33.699400 -13.777100 -20.671500
N -33.511000 -12.965400 -18.851400
C -33.371500 -10.159800 -17.148000
N -33.338500 -10.586400 -20.340900
H -33.200800 -10.444200 -16.215200
H -33.187900 -9.187700 -17.195900
C -33.122100 -11.827800 -21.075800
C -33.103600 -13.115400 -20.240100
H -32.726400 -12.593400 -17.057100
C -32.528900 -12.321300 -17.988600
N -32.415800 -10.842200 -18.009500
C -32.314400 -10.262300 -19.360200
H -32.294600 -9.277300 -19.261900
H -32.260600 -11.757700 -21.555100
H -32.185500 -13.486800 -20.258600
H -31.640800 -12.692700 -18.217200
H -31.441000 -10.534400 -19.737500
H -33.639300 -6.507400 -25.499000
H -33.508400 -9.988300 -23.607600
H -33.498200 -8.839100 -26.810300
H -33.457400 -8.593000 -22.835800
H -33.393400 -6.600900 -23.928300
N -33.387200 -8.396200 -24.843900
C -33.087900 -6.947000 -24.804600
C -33.065100 -9.103300 -23.586700
H -33.033600 -10.070800 -25.914400
C -32.906500 -9.099400 -26.060600
H -32.032200 -7.567700 -27.902900
H -31.898100 -5.702200 -26.816400
N -31.709600 -6.513900 -24.996300
C -31.570200 -9.319500 -23.292900
N -31.537200 -8.892900 -26.485800
H -31.399400 -9.035100 -22.360100
H -31.386600 -10.291600 -23.340900
C -31.320700 -7.651500 -27.220800
C -31.302300 -6.363900 -26.385100
H -30.925100 -6.885900 -23.202000
C -30.727600 -7.158000 -24.133600
N -30.614500 -8.637100 -24.154500
C -30.513100 -9.217000 -25.505100
H -30.493300 -10.202000 -25.406800
H -30.459300 -7.721600 -27.700100
H -30.384200 -5.992500 -26.403500
H -29.839400 -6.786600 -24.362100
H -29.639700 -8.944900 -25.882400
