25
Fragment
H -11.730400 -39.079300 -6.697900
H -11.730400 -36.679700 -6.697900
H -10.951600 -39.876800 -5.555200
H -10.951600 -35.882200 -5.555200
C -10.891800 -39.104500 -6.172100
C -10.891800 -36.654500 -6.172100
N -10.811500 -37.879500 -5.372100
H -10.722800 -38.963600 -8.819700
H -10.722800 -36.795400 -8.819700
C -9.883400 -38.659100 -8.391700
C -9.883400 -37.099900 -8.391700
N -9.766400 -39.335100 -7.100100
N -9.766400 -36.423900 -7.100100
C -9.534400 -37.879500 -4.659800
H -9.483300 -38.680300 -4.079600
H -9.483300 -37.078700 -4.079600
H -9.135600 -38.963600 -8.963700
H -9.135600 -36.795400 -8.963700
C -8.474900 -39.105500 -6.387800
C -8.474900 -36.653500 -6.387800
N -8.400300 -37.879500 -5.586600
H -8.305700 -39.877800 -5.792000
H -8.305700 -35.881200 -5.792000
H -7.748000 -39.084100 -7.059300
H -7.748000 -36.674900 -7.059300
15
Fragment
O -13.648800 -29.385400 -6.937500
H -13.623800 -31.905900 -6.765400
H -13.504100 -28.546000 -7.162100
O -13.467000 -34.270600 -7.187800
C -13.270400 -31.600600 -7.592800
C -13.180500 -30.236400 -7.874900
N -12.945800 -33.932700 -8.242500
C -12.830600 -32.497100 -8.553700
C -12.646200 -29.817500 -9.102900
H -12.584000 -28.890400 -9.300500
O -12.501600 -34.738300 -9.052000
C -12.300800 -32.114200 -9.778900
C -12.210200 -30.752600 -10.028600
H -12.013400 -32.756200 -10.417400
H -11.841200 -30.454600 -10.851800
40
Fragment
H -11.730400 -39.079300 -6.697900
H -11.730400 -36.679700 -6.697900
H -10.951600 -39.876800 -5.555200
H -10.951600 -35.882200 -5.555200
C -10.891800 -39.104500 -6.172100
C -10.891800 -36.654500 -6.172100
N -10.811500 -37.879500 -5.372100
H -10.722800 -38.963600 -8.819700
H -10.722800 -36.795400 -8.819700
C -9.883400 -38.659100 -8.391700
C -9.883400 -37.099900 -8.391700
N -9.766400 -39.335100 -7.100100
N -9.766400 -36.423900 -7.100100
C -9.534400 -37.879500 -4.659800
H -9.483300 -38.680300 -4.079600
H -9.483300 -37.078700 -4.079600
H -9.135600 -38.963600 -8.963700
H -9.135600 -36.795400 -8.963700
C -8.474900 -39.105500 -6.387800
C -8.474900 -36.653500 -6.387800
N -8.400300 -37.879500 -5.586600
H -8.305700 -39.877800 -5.792000
H -8.305700 -35.881200 -5.792000
H -7.748000 -39.084100 -7.059300
H -7.748000 -36.674900 -7.059300
O -13.648800 -29.385400 -6.937500
H -13.623800 -31.905900 -6.765400
H -13.504100 -28.546000 -7.162100
O -13.467000 -34.270600 -7.187800
C -13.270400 -31.600600 -7.592800
C -13.180500 -30.236400 -7.874900
N -12.945800 -33.932700 -8.242500
C -12.830600 -32.497100 -8.553700
C -12.646200 -29.817500 -9.102900
H -12.584000 -28.890400 -9.300500
O -12.501600 -34.738300 -9.052000
C -12.300800 -32.114200 -9.778900
C -12.210200 -30.752600 -10.028600
H -12.013400 -32.756200 -10.417400
H -11.841200 -30.454600 -10.851800
