28
Fragment
H -35.440600 -12.971900 -19.354000
H -35.309700 -9.491000 -17.462600
H -35.299500 -10.640200 -20.665400
H -35.258700 -10.886300 -16.690800
H -35.194800 -12.878400 -17.783400
N -35.188500 -11.083100 -18.699000
C -34.889200 -12.532300 -18.659700
C -34.866400 -10.376000 -17.441700
H -34.834900 -9.408500 -19.769400
C -34.707800 -10.379900 -19.915700
H -33.833500 -11.911600 -21.757900
H -33.699400 -13.777100 -20.671500
N -33.511000 -12.965400 -18.851400
C -33.371500 -10.159800 -17.148000
N -33.338500 -10.586400 -20.340900
H -33.200800 -10.444200 -16.215200
H -33.187900 -9.187700 -17.195900
C -33.122100 -11.827800 -21.075800
C -33.103600 -13.115400 -20.240100
H -32.726400 -12.593400 -17.057100
C -32.528900 -12.321300 -17.988600
N -32.415800 -10.842200 -18.009500
C -32.314400 -10.262300 -19.360200
H -32.294600 -9.277300 -19.261900
H -32.260600 -11.757700 -21.555100
H -32.185500 -13.486800 -20.258600
H -31.640800 -12.692700 -18.217200
H -31.441000 -10.534400 -19.737500
15
Fragment
O -29.837200 -6.016500 -20.897600
O -29.499600 -8.120900 -20.482200
N -29.127200 -6.949600 -20.497000
H -28.118400 -4.612700 -19.837000
C -27.776800 -6.624300 -20.018900
C -27.473600 -5.301600 -19.728900
H -27.121000 -8.556000 -20.071800
C -26.872700 -7.661200 -19.870200
C -26.202400 -5.025700 -19.281500
H -25.965800 -4.128300 -19.077500
C -25.589600 -7.358600 -19.416700
C -25.257400 -6.031400 -19.120500
O -24.717900 -8.388400 -19.242200
H -24.386200 -5.818500 -18.808400
H -23.883000 -8.103400 -19.061500
43
Fragment
H -35.440600 -12.971900 -19.354000
H -35.309700 -9.491000 -17.462600
H -35.299500 -10.640200 -20.665400
H -35.258700 -10.886300 -16.690800
H -35.194800 -12.878400 -17.783400
N -35.188500 -11.083100 -18.699000
C -34.889200 -12.532300 -18.659700
C -34.866400 -10.376000 -17.441700
H -34.834900 -9.408500 -19.769400
C -34.707800 -10.379900 -19.915700
H -33.833500 -11.911600 -21.757900
H -33.699400 -13.777100 -20.671500
N -33.511000 -12.965400 -18.851400
C -33.371500 -10.159800 -17.148000
N -33.338500 -10.586400 -20.340900
H -33.200800 -10.444200 -16.215200
H -33.187900 -9.187700 -17.195900
C -33.122100 -11.827800 -21.075800
C -33.103600 -13.115400 -20.240100
H -32.726400 -12.593400 -17.057100
C -32.528900 -12.321300 -17.988600
N -32.415800 -10.842200 -18.009500
C -32.314400 -10.262300 -19.360200
H -32.294600 -9.277300 -19.261900
H -32.260600 -11.757700 -21.555100
H -32.185500 -13.486800 -20.258600
H -31.640800 -12.692700 -18.217200
H -31.441000 -10.534400 -19.737500
O -29.837200 -6.016500 -20.897600
O -29.499600 -8.120900 -20.482200
N -29.127200 -6.949600 -20.497000
H -28.118400 -4.612700 -19.837000
C -27.776800 -6.624300 -20.018900
C -27.473600 -5.301600 -19.728900
H -27.121000 -8.556000 -20.071800
C -26.872700 -7.661200 -19.870200
C -26.202400 -5.025700 -19.281500
H -25.965800 -4.128300 -19.077500
C -25.589600 -7.358600 -19.416700
C -25.257400 -6.031400 -19.120500
O -24.717900 -8.388400 -19.242200
H -24.386200 -5.818500 -18.808400
H -23.883000 -8.103400 -19.061500
