20
Fragment
H -41.658900 -17.304300 -11.482100
N -40.902700 -18.200500 -9.902600
C -40.862800 -17.682500 -11.127400
H -39.778400 -19.122200 -8.564300
C -39.767200 -18.737700 -9.433000
H -39.747500 -17.280400 -12.778100
C -39.724600 -17.664600 -11.910100
C -38.583100 -18.764100 -10.138500
C -38.543200 -18.213100 -11.418300
H -38.150700 -18.004400 -14.071200
H -37.803700 -19.152700 -9.757900
C -37.320400 -18.074800 -13.617200
C -37.291200 -18.211300 -12.235100
H -36.183900 -17.943400 -15.270800
C -36.139200 -18.041600 -14.327200
C -36.036400 -18.322700 -11.638600
H -35.959000 -18.426100 -10.697200
N -34.933600 -18.138600 -13.757400
C -34.904300 -18.280200 -12.430900
H -34.058100 -18.357100 -12.007300
20
Fragment
H -41.671500 -17.304300 -4.063300
N -40.915200 -18.200500 -2.483800
C -40.875400 -17.682500 -3.708700
H -39.791000 -19.122200 -1.145500
C -39.779700 -18.737700 -2.014200
H -39.760100 -17.280400 -5.359300
C -39.737200 -17.664600 -4.491300
C -38.595700 -18.764100 -2.719700
C -38.555700 -18.213100 -3.999500
H -38.163300 -18.004400 -6.652400
H -37.816200 -19.152700 -2.339100
C -37.332900 -18.074800 -6.198400
C -37.303800 -18.211300 -4.816300
H -36.196500 -17.943400 -7.852000
C -36.151800 -18.041600 -6.908400
C -36.049000 -18.322700 -4.219800
H -35.971500 -18.426100 -3.278400
N -34.946100 -18.138600 -6.338600
C -34.916900 -18.280200 -5.012100
H -34.070600 -18.357100 -4.588500
40
Fragment
H -41.658900 -17.304300 -11.482100
N -40.902700 -18.200500 -9.902600
C -40.862800 -17.682500 -11.127400
H -39.778400 -19.122200 -8.564300
C -39.767200 -18.737700 -9.433000
H -39.747500 -17.280400 -12.778100
C -39.724600 -17.664600 -11.910100
C -38.583100 -18.764100 -10.138500
C -38.543200 -18.213100 -11.418300
H -38.150700 -18.004400 -14.071200
H -37.803700 -19.152700 -9.757900
C -37.320400 -18.074800 -13.617200
C -37.291200 -18.211300 -12.235100
H -36.183900 -17.943400 -15.270800
C -36.139200 -18.041600 -14.327200
C -36.036400 -18.322700 -11.638600
H -35.959000 -18.426100 -10.697200
N -34.933600 -18.138600 -13.757400
C -34.904300 -18.280200 -12.430900
H -34.058100 -18.357100 -12.007300
H -41.671500 -17.304300 -4.063300
N -40.915200 -18.200500 -2.483800
C -40.875400 -17.682500 -3.708700
H -39.791000 -19.122200 -1.145500
C -39.779700 -18.737700 -2.014200
H -39.760100 -17.280400 -5.359300
C -39.737200 -17.664600 -4.491300
C -38.595700 -18.764100 -2.719700
C -38.555700 -18.213100 -3.999500
H -38.163300 -18.004400 -6.652400
H -37.816200 -19.152700 -2.339100
C -37.332900 -18.074800 -6.198400
C -37.303800 -18.211300 -4.816300
H -36.196500 -17.943400 -7.852000
C -36.151800 -18.041600 -6.908400
C -36.049000 -18.322700 -4.219800
H -35.971500 -18.426100 -3.278400
N -34.946100 -18.138600 -6.338600
C -34.916900 -18.280200 -5.012100
H -34.070600 -18.357100 -4.588500
