20
Fragment
H -41.658900 -17.304300 -11.482100
N -40.902700 -18.200500 -9.902600
C -40.862800 -17.682500 -11.127400
H -39.778400 -19.122200 -8.564300
C -39.767200 -18.737700 -9.433000
H -39.747500 -17.280400 -12.778100
C -39.724600 -17.664600 -11.910100
C -38.583100 -18.764100 -10.138500
C -38.543200 -18.213100 -11.418300
H -38.150700 -18.004400 -14.071200
H -37.803700 -19.152700 -9.757900
C -37.320400 -18.074800 -13.617200
C -37.291200 -18.211300 -12.235100
H -36.183900 -17.943400 -15.270800
C -36.139200 -18.041600 -14.327200
C -36.036400 -18.322700 -11.638600
H -35.959000 -18.426100 -10.697200
N -34.933600 -18.138600 -13.757400
C -34.904300 -18.280200 -12.430900
H -34.058100 -18.357100 -12.007300
20
Fragment
H -45.236300 -21.422900 -10.249100
C -44.390000 -21.499800 -9.825400
N -44.360800 -21.641400 -8.499000
H -43.335400 -21.353900 -11.559200
C -43.257900 -21.457300 -10.617800
C -43.155100 -21.738400 -7.929200
H -43.110400 -21.836600 -6.985500
C -42.003100 -21.568700 -10.021300
C -41.974000 -21.705200 -8.639200
H -41.490600 -20.627300 -12.498400
H -41.143600 -21.775600 -8.185200
C -40.751200 -21.566900 -10.838100
C -40.711200 -21.015900 -12.117900
C -39.569700 -22.115400 -10.346200
H -39.546800 -22.499600 -9.478200
C -39.527100 -21.042300 -12.823400
H -39.515900 -20.657800 -13.692100
C -38.431500 -22.097500 -11.128900
N -38.391600 -21.579500 -12.353800
H -37.635400 -22.475700 -10.774300
40
Fragment
H -41.658900 -17.304300 -11.482100
N -40.902700 -18.200500 -9.902600
C -40.862800 -17.682500 -11.127400
H -39.778400 -19.122200 -8.564300
C -39.767200 -18.737700 -9.433000
H -39.747500 -17.280400 -12.778100
C -39.724600 -17.664600 -11.910100
C -38.583100 -18.764100 -10.138500
C -38.543200 -18.213100 -11.418300
H -38.150700 -18.004400 -14.071200
H -37.803700 -19.152700 -9.757900
C -37.320400 -18.074800 -13.617200
C -37.291200 -18.211300 -12.235100
H -36.183900 -17.943400 -15.270800
C -36.139200 -18.041600 -14.327200
C -36.036400 -18.322700 -11.638600
H -35.959000 -18.426100 -10.697200
N -34.933600 -18.138600 -13.757400
C -34.904300 -18.280200 -12.430900
H -34.058100 -18.357100 -12.007300
H -45.236300 -21.422900 -10.249100
C -44.390000 -21.499800 -9.825400
N -44.360800 -21.641400 -8.499000
H -43.335400 -21.353900 -11.559200
C -43.257900 -21.457300 -10.617800
C -43.155100 -21.738400 -7.929200
H -43.110400 -21.836600 -6.985500
C -42.003100 -21.568700 -10.021300
C -41.974000 -21.705200 -8.639200
H -41.490600 -20.627300 -12.498400
H -41.143600 -21.775600 -8.185200
C -40.751200 -21.566900 -10.838100
C -40.711200 -21.015900 -12.117900
C -39.569700 -22.115400 -10.346200
H -39.546800 -22.499600 -9.478200
C -39.527100 -21.042300 -12.823400
H -39.515900 -20.657800 -13.692100
C -38.431500 -22.097500 -11.128900
N -38.391600 -21.579500 -12.353800
H -37.635400 -22.475700 -10.774300
