20
Fragment
H -41.658900 -17.304300 -11.482100
N -40.902700 -18.200500 -9.902600
C -40.862800 -17.682500 -11.127400
H -39.778400 -19.122200 -8.564300
C -39.767200 -18.737700 -9.433000
H -39.747500 -17.280400 -12.778100
C -39.724600 -17.664600 -11.910100
C -38.583100 -18.764100 -10.138500
C -38.543200 -18.213100 -11.418300
H -38.150700 -18.004400 -14.071200
H -37.803700 -19.152700 -9.757900
C -37.320400 -18.074800 -13.617200
C -37.291200 -18.211300 -12.235100
H -36.183900 -17.943400 -15.270800
C -36.139200 -18.041600 -14.327200
C -36.036400 -18.322700 -11.638600
H -35.959000 -18.426100 -10.697200
N -34.933600 -18.138600 -13.757400
C -34.904300 -18.280200 -12.430900
H -34.058100 -18.357100 -12.007300
13
Fragment
O -33.649400 -18.131200 -9.573200
H -33.148500 -17.927500 -7.270400
C -32.560300 -18.166100 -9.024200
N -32.443800 -17.943400 -7.681400
H -31.364300 -19.465700 -9.941200
H -31.307600 -18.046900 -10.601500
C -31.301400 -18.507000 -9.765400
C -31.286300 -17.939600 -6.955100
O -31.272200 -17.771100 -5.746600
N -30.121000 -18.091700 -7.668800
C -30.015100 -18.298800 -9.022700
H -29.419900 -18.073400 -7.240700
O -28.927300 -18.350800 -9.559900
33
Fragment
H -41.658900 -17.304300 -11.482100
N -40.902700 -18.200500 -9.902600
C -40.862800 -17.682500 -11.127400
H -39.778400 -19.122200 -8.564300
C -39.767200 -18.737700 -9.433000
H -39.747500 -17.280400 -12.778100
C -39.724600 -17.664600 -11.910100
C -38.583100 -18.764100 -10.138500
C -38.543200 -18.213100 -11.418300
H -38.150700 -18.004400 -14.071200
H -37.803700 -19.152700 -9.757900
C -37.320400 -18.074800 -13.617200
C -37.291200 -18.211300 -12.235100
H -36.183900 -17.943400 -15.270800
C -36.139200 -18.041600 -14.327200
C -36.036400 -18.322700 -11.638600
H -35.959000 -18.426100 -10.697200
N -34.933600 -18.138600 -13.757400
C -34.904300 -18.280200 -12.430900
H -34.058100 -18.357100 -12.007300
O -33.649400 -18.131200 -9.573200
H -33.148500 -17.927500 -7.270400
C -32.560300 -18.166100 -9.024200
N -32.443800 -17.943400 -7.681400
H -31.364300 -19.465700 -9.941200
H -31.307600 -18.046900 -10.601500
C -31.301400 -18.507000 -9.765400
C -31.286300 -17.939600 -6.955100
O -31.272200 -17.771100 -5.746600
N -30.121000 -18.091700 -7.668800
C -30.015100 -18.298800 -9.022700
H -29.419900 -18.073400 -7.240700
O -28.927300 -18.350800 -9.559900
