20
Fragment
H -41.658900 -17.304300 -11.482100
N -40.902700 -18.200500 -9.902600
C -40.862800 -17.682500 -11.127400
H -39.778400 -19.122200 -8.564300
C -39.767200 -18.737700 -9.433000
H -39.747500 -17.280400 -12.778100
C -39.724600 -17.664600 -11.910100
C -38.583100 -18.764100 -10.138500
C -38.543200 -18.213100 -11.418300
H -38.150700 -18.004400 -14.071200
H -37.803700 -19.152700 -9.757900
C -37.320400 -18.074800 -13.617200
C -37.291200 -18.211300 -12.235100
H -36.183900 -17.943400 -15.270800
C -36.139200 -18.041600 -14.327200
C -36.036400 -18.322700 -11.638600
H -35.959000 -18.426100 -10.697200
N -34.933600 -18.138600 -13.757400
C -34.904300 -18.280200 -12.430900
H -34.058100 -18.357100 -12.007300
13
Fragment
O -37.144600 -21.088600 -8.272700
H -36.752400 -21.653600 -5.942500
C -36.066300 -21.243200 -7.726700
N -35.996400 -21.570000 -6.397200
O -34.875500 -22.082500 -4.492800
C -34.838800 -21.769300 -5.672400
C -34.767700 -21.076800 -8.458900
H -34.758300 -21.600500 -9.191900
H -34.732500 -20.168500 -8.791300
N -33.654800 -21.600100 -6.345300
C -33.502400 -21.290300 -7.671000
H -32.899600 -21.693400 -5.905400
O -32.402000 -21.171600 -8.165900
33
Fragment
H -41.658900 -17.304300 -11.482100
N -40.902700 -18.200500 -9.902600
C -40.862800 -17.682500 -11.127400
H -39.778400 -19.122200 -8.564300
C -39.767200 -18.737700 -9.433000
H -39.747500 -17.280400 -12.778100
C -39.724600 -17.664600 -11.910100
C -38.583100 -18.764100 -10.138500
C -38.543200 -18.213100 -11.418300
H -38.150700 -18.004400 -14.071200
H -37.803700 -19.152700 -9.757900
C -37.320400 -18.074800 -13.617200
C -37.291200 -18.211300 -12.235100
H -36.183900 -17.943400 -15.270800
C -36.139200 -18.041600 -14.327200
C -36.036400 -18.322700 -11.638600
H -35.959000 -18.426100 -10.697200
N -34.933600 -18.138600 -13.757400
C -34.904300 -18.280200 -12.430900
H -34.058100 -18.357100 -12.007300
O -37.144600 -21.088600 -8.272700
H -36.752400 -21.653600 -5.942500
C -36.066300 -21.243200 -7.726700
N -35.996400 -21.570000 -6.397200
O -34.875500 -22.082500 -4.492800
C -34.838800 -21.769300 -5.672400
C -34.767700 -21.076800 -8.458900
H -34.758300 -21.600500 -9.191900
H -34.732500 -20.168500 -8.791300
N -33.654800 -21.600100 -6.345300
C -33.502400 -21.290300 -7.671000
H -32.899600 -21.693400 -5.905400
O -32.402000 -21.171600 -8.165900
