20
Fragment
H -41.658900 -17.304300 -11.482100
N -40.902700 -18.200500 -9.902600
C -40.862800 -17.682500 -11.127400
H -39.778400 -19.122200 -8.564300
C -39.767200 -18.737700 -9.433000
H -39.747500 -17.280400 -12.778100
C -39.724600 -17.664600 -11.910100
C -38.583100 -18.764100 -10.138500
C -38.543200 -18.213100 -11.418300
H -38.150700 -18.004400 -14.071200
H -37.803700 -19.152700 -9.757900
C -37.320400 -18.074800 -13.617200
C -37.291200 -18.211300 -12.235100
H -36.183900 -17.943400 -15.270800
C -36.139200 -18.041600 -14.327200
C -36.036400 -18.322700 -11.638600
H -35.959000 -18.426100 -10.697200
N -34.933600 -18.138600 -13.757400
C -34.904300 -18.280200 -12.430900
H -34.058100 -18.357100 -12.007300
20
Fragment
H -45.248800 -21.422900 -2.830300
C -44.402500 -21.499800 -2.406700
N -44.373300 -21.641400 -1.080200
H -43.347900 -21.353900 -4.140400
C -43.270500 -21.457300 -3.199000
C -43.167600 -21.738400 -0.510400
H -43.123000 -21.836600 0.433300
C -42.015600 -21.568700 -2.602500
C -41.986500 -21.705200 -1.220400
H -41.503200 -20.627300 -5.079600
H -41.156100 -21.775600 -0.766400
C -40.763700 -21.566900 -3.419300
C -40.723700 -21.015900 -4.699100
C -39.582200 -22.115400 -2.927500
H -39.559400 -22.499600 -2.059500
C -39.539700 -21.042300 -5.404600
H -39.528400 -20.657800 -6.273300
C -38.444100 -22.097500 -3.710100
N -38.404200 -21.579500 -4.935000
H -37.647900 -22.475700 -3.355500
40
Fragment
H -41.658900 -17.304300 -11.482100
N -40.902700 -18.200500 -9.902600
C -40.862800 -17.682500 -11.127400
H -39.778400 -19.122200 -8.564300
C -39.767200 -18.737700 -9.433000
H -39.747500 -17.280400 -12.778100
C -39.724600 -17.664600 -11.910100
C -38.583100 -18.764100 -10.138500
C -38.543200 -18.213100 -11.418300
H -38.150700 -18.004400 -14.071200
H -37.803700 -19.152700 -9.757900
C -37.320400 -18.074800 -13.617200
C -37.291200 -18.211300 -12.235100
H -36.183900 -17.943400 -15.270800
C -36.139200 -18.041600 -14.327200
C -36.036400 -18.322700 -11.638600
H -35.959000 -18.426100 -10.697200
N -34.933600 -18.138600 -13.757400
C -34.904300 -18.280200 -12.430900
H -34.058100 -18.357100 -12.007300
H -45.248800 -21.422900 -2.830300
C -44.402500 -21.499800 -2.406700
N -44.373300 -21.641400 -1.080200
H -43.347900 -21.353900 -4.140400
C -43.270500 -21.457300 -3.199000
C -43.167600 -21.738400 -0.510400
H -43.123000 -21.836600 0.433300
C -42.015600 -21.568700 -2.602500
C -41.986500 -21.705200 -1.220400
H -41.503200 -20.627300 -5.079600
H -41.156100 -21.775600 -0.766400
C -40.763700 -21.566900 -3.419300
C -40.723700 -21.015900 -4.699100
C -39.582200 -22.115400 -2.927500
H -39.559400 -22.499600 -2.059500
C -39.539700 -21.042300 -5.404600
H -39.528400 -20.657800 -6.273300
C -38.444100 -22.097500 -3.710100
N -38.404200 -21.579500 -4.935000
H -37.647900 -22.475700 -3.355500
