20
Fragment
H -41.658900 -17.304300 -11.482100
N -40.902700 -18.200500 -9.902600
C -40.862800 -17.682500 -11.127400
H -39.778400 -19.122200 -8.564300
C -39.767200 -18.737700 -9.433000
H -39.747500 -17.280400 -12.778100
C -39.724600 -17.664600 -11.910100
C -38.583100 -18.764100 -10.138500
C -38.543200 -18.213100 -11.418300
H -38.150700 -18.004400 -14.071200
H -37.803700 -19.152700 -9.757900
C -37.320400 -18.074800 -13.617200
C -37.291200 -18.211300 -12.235100
H -36.183900 -17.943400 -15.270800
C -36.139200 -18.041600 -14.327200
C -36.036400 -18.322700 -11.638600
H -35.959000 -18.426100 -10.697200
N -34.933600 -18.138600 -13.757400
C -34.904300 -18.280200 -12.430900
H -34.058100 -18.357100 -12.007300
20
Fragment
H -41.646400 -17.304300 -18.900800
N -40.890100 -18.200500 -17.321400
C -40.850200 -17.682500 -18.546200
H -39.765900 -19.122200 -15.983000
C -39.754600 -18.737700 -16.851800
H -39.734900 -17.280400 -20.196900
C -39.712100 -17.664600 -19.328900
C -38.570600 -18.764100 -17.557300
C -38.530600 -18.213100 -18.837000
H -38.138200 -18.004400 -21.490000
H -37.791100 -19.152700 -17.176700
C -37.307800 -18.074800 -21.036000
C -37.278700 -18.211300 -19.653900
H -36.171400 -17.943400 -22.689600
C -36.126700 -18.041600 -21.746000
C -36.023900 -18.322700 -19.057400
H -35.946400 -18.426100 -18.115900
N -34.921000 -18.138600 -21.176200
C -34.891800 -18.280200 -19.849700
H -34.045500 -18.357100 -19.426100
40
Fragment
H -41.658900 -17.304300 -11.482100
N -40.902700 -18.200500 -9.902600
C -40.862800 -17.682500 -11.127400
H -39.778400 -19.122200 -8.564300
C -39.767200 -18.737700 -9.433000
H -39.747500 -17.280400 -12.778100
C -39.724600 -17.664600 -11.910100
C -38.583100 -18.764100 -10.138500
C -38.543200 -18.213100 -11.418300
H -38.150700 -18.004400 -14.071200
H -37.803700 -19.152700 -9.757900
C -37.320400 -18.074800 -13.617200
C -37.291200 -18.211300 -12.235100
H -36.183900 -17.943400 -15.270800
C -36.139200 -18.041600 -14.327200
C -36.036400 -18.322700 -11.638600
H -35.959000 -18.426100 -10.697200
N -34.933600 -18.138600 -13.757400
C -34.904300 -18.280200 -12.430900
H -34.058100 -18.357100 -12.007300
H -41.646400 -17.304300 -18.900800
N -40.890100 -18.200500 -17.321400
C -40.850200 -17.682500 -18.546200
H -39.765900 -19.122200 -15.983000
C -39.754600 -18.737700 -16.851800
H -39.734900 -17.280400 -20.196900
C -39.712100 -17.664600 -19.328900
C -38.570600 -18.764100 -17.557300
C -38.530600 -18.213100 -18.837000
H -38.138200 -18.004400 -21.490000
H -37.791100 -19.152700 -17.176700
C -37.307800 -18.074800 -21.036000
C -37.278700 -18.211300 -19.653900
H -36.171400 -17.943400 -22.689600
C -36.126700 -18.041600 -21.746000
C -36.023900 -18.322700 -19.057400
H -35.946400 -18.426100 -18.115900
N -34.921000 -18.138600 -21.176200
C -34.891800 -18.280200 -19.849700
H -34.045500 -18.357100 -19.426100
