20
Fragment
H -41.658900 -17.304300 -11.482100
N -40.902700 -18.200500 -9.902600
C -40.862800 -17.682500 -11.127400
H -39.778400 -19.122200 -8.564300
C -39.767200 -18.737700 -9.433000
H -39.747500 -17.280400 -12.778100
C -39.724600 -17.664600 -11.910100
C -38.583100 -18.764100 -10.138500
C -38.543200 -18.213100 -11.418300
H -38.150700 -18.004400 -14.071200
H -37.803700 -19.152700 -9.757900
C -37.320400 -18.074800 -13.617200
C -37.291200 -18.211300 -12.235100
H -36.183900 -17.943400 -15.270800
C -36.139200 -18.041600 -14.327200
C -36.036400 -18.322700 -11.638600
H -35.959000 -18.426100 -10.697200
N -34.933600 -18.138600 -13.757400
C -34.904300 -18.280200 -12.430900
H -34.058100 -18.357100 -12.007300
13
Fragment
O -46.892300 -18.608400 -14.090500
H -46.394800 -18.086600 -16.351000
C -45.791900 -18.489700 -14.585300
N -45.639500 -18.179900 -15.911100
H -44.561800 -19.611500 -13.465100
H -44.536000 -18.179500 -13.064500
C -44.526600 -18.703200 -13.797500
C -44.455500 -18.010700 -16.584000
O -44.418900 -17.697500 -17.763500
N -43.297900 -18.210000 -15.859100
C -43.228000 -18.536800 -14.529700
H -42.541900 -18.126400 -16.313900
O -42.149700 -18.691400 -13.983700
33
Fragment
H -41.658900 -17.304300 -11.482100
N -40.902700 -18.200500 -9.902600
C -40.862800 -17.682500 -11.127400
H -39.778400 -19.122200 -8.564300
C -39.767200 -18.737700 -9.433000
H -39.747500 -17.280400 -12.778100
C -39.724600 -17.664600 -11.910100
C -38.583100 -18.764100 -10.138500
C -38.543200 -18.213100 -11.418300
H -38.150700 -18.004400 -14.071200
H -37.803700 -19.152700 -9.757900
C -37.320400 -18.074800 -13.617200
C -37.291200 -18.211300 -12.235100
H -36.183900 -17.943400 -15.270800
C -36.139200 -18.041600 -14.327200
C -36.036400 -18.322700 -11.638600
H -35.959000 -18.426100 -10.697200
N -34.933600 -18.138600 -13.757400
C -34.904300 -18.280200 -12.430900
H -34.058100 -18.357100 -12.007300
O -46.892300 -18.608400 -14.090500
H -46.394800 -18.086600 -16.351000
C -45.791900 -18.489700 -14.585300
N -45.639500 -18.179900 -15.911100
H -44.561800 -19.611500 -13.465100
H -44.536000 -18.179500 -13.064500
C -44.526600 -18.703200 -13.797500
C -44.455500 -18.010700 -16.584000
O -44.418900 -17.697500 -17.763500
N -43.297900 -18.210000 -15.859100
C -43.228000 -18.536800 -14.529700
H -42.541900 -18.126400 -16.313900
O -42.149700 -18.691400 -13.983700
