20
Fragment
H -41.658900 -17.304300 -11.482100
N -40.902700 -18.200500 -9.902600
C -40.862800 -17.682500 -11.127400
H -39.778400 -19.122200 -8.564300
C -39.767200 -18.737700 -9.433000
H -39.747500 -17.280400 -12.778100
C -39.724600 -17.664600 -11.910100
C -38.583100 -18.764100 -10.138500
C -38.543200 -18.213100 -11.418300
H -38.150700 -18.004400 -14.071200
H -37.803700 -19.152700 -9.757900
C -37.320400 -18.074800 -13.617200
C -37.291200 -18.211300 -12.235100
H -36.183900 -17.943400 -15.270800
C -36.139200 -18.041600 -14.327200
C -36.036400 -18.322700 -11.638600
H -35.959000 -18.426100 -10.697200
N -34.933600 -18.138600 -13.757400
C -34.904300 -18.280200 -12.430900
H -34.058100 -18.357100 -12.007300
20
Fragment
H -41.665200 -15.845700 -7.772700
N -40.909000 -14.949500 -6.193200
C -40.869100 -15.467500 -7.418000
H -39.784700 -14.027800 -4.854900
C -39.773500 -14.412300 -5.723600
H -39.753800 -15.869600 -9.068700
C -39.730900 -15.485400 -8.200700
C -38.589400 -14.385900 -6.429100
C -38.549400 -14.936900 -7.708900
H -38.157000 -15.145600 -10.361800
H -37.810000 -13.997300 -6.048500
C -37.326600 -15.075200 -9.907800
C -37.297500 -14.938700 -8.525700
H -36.190200 -15.206600 -11.561400
C -36.145500 -15.108400 -10.617800
C -36.042700 -14.827300 -7.929200
H -35.965200 -14.723900 -6.987800
N -34.939800 -15.011400 -10.048000
C -34.910600 -14.869800 -8.721500
H -34.064300 -14.792900 -8.297900
40
Fragment
H -41.658900 -17.304300 -11.482100
N -40.902700 -18.200500 -9.902600
C -40.862800 -17.682500 -11.127400
H -39.778400 -19.122200 -8.564300
C -39.767200 -18.737700 -9.433000
H -39.747500 -17.280400 -12.778100
C -39.724600 -17.664600 -11.910100
C -38.583100 -18.764100 -10.138500
C -38.543200 -18.213100 -11.418300
H -38.150700 -18.004400 -14.071200
H -37.803700 -19.152700 -9.757900
C -37.320400 -18.074800 -13.617200
C -37.291200 -18.211300 -12.235100
H -36.183900 -17.943400 -15.270800
C -36.139200 -18.041600 -14.327200
C -36.036400 -18.322700 -11.638600
H -35.959000 -18.426100 -10.697200
N -34.933600 -18.138600 -13.757400
C -34.904300 -18.280200 -12.430900
H -34.058100 -18.357100 -12.007300
H -41.665200 -15.845700 -7.772700
N -40.909000 -14.949500 -6.193200
C -40.869100 -15.467500 -7.418000
H -39.784700 -14.027800 -4.854900
C -39.773500 -14.412300 -5.723600
H -39.753800 -15.869600 -9.068700
C -39.730900 -15.485400 -8.200700
C -38.589400 -14.385900 -6.429100
C -38.549400 -14.936900 -7.708900
H -38.157000 -15.145600 -10.361800
H -37.810000 -13.997300 -6.048500
C -37.326600 -15.075200 -9.907800
C -37.297500 -14.938700 -8.525700
H -36.190200 -15.206600 -11.561400
C -36.145500 -15.108400 -10.617800
C -36.042700 -14.827300 -7.929200
H -35.965200 -14.723900 -6.987800
N -34.939800 -15.011400 -10.048000
C -34.910600 -14.869800 -8.721500
H -34.064300 -14.792900 -8.297900
