13
Fragment
H -11.109600 -11.439400 -33.473900
O -10.904400 -9.441600 -34.854900
N -10.320900 -11.039000 -33.376700
C -10.027600 -9.898900 -34.084000
H -9.722400 -12.324800 -32.061100
C -9.438300 -11.586600 -32.506700
N -8.822000 -9.313400 -33.936800
C -8.261000 -10.997200 -32.343700
C -7.939500 -9.827200 -33.075400
F -7.322400 -11.505600 -31.507700
N -6.764200 -9.230800 -32.923000
H -6.520200 -8.479000 -33.430500
H -6.213000 -9.565400 -32.330900
15
Fragment
H -12.890300 -6.669700 -39.577500
O -12.717600 -7.785900 -37.264100
H -12.517100 -5.046100 -41.186800
C -12.227500 -6.031500 -39.447000
C -12.007200 -5.058600 -40.409100
C -11.714500 -7.119500 -37.287200
C -11.464200 -6.056500 -38.292300
C -11.029200 -4.111900 -40.208000
H -10.883900 -3.451900 -40.848500
H -10.767900 -7.919600 -35.954200
O -10.726500 -7.266700 -36.414400
C -10.481400 -5.096700 -38.110600
C -10.269300 -4.136900 -39.071400
H -9.965000 -5.101500 -37.337200
H -9.603600 -3.499200 -38.946600
28
Fragment
H -11.109600 -11.439400 -33.473900
O -10.904400 -9.441600 -34.854900
N -10.320900 -11.039000 -33.376700
C -10.027600 -9.898900 -34.084000
H -9.722400 -12.324800 -32.061100
C -9.438300 -11.586600 -32.506700
N -8.822000 -9.313400 -33.936800
C -8.261000 -10.997200 -32.343700
C -7.939500 -9.827200 -33.075400
F -7.322400 -11.505600 -31.507700
N -6.764200 -9.230800 -32.923000
H -6.520200 -8.479000 -33.430500
H -6.213000 -9.565400 -32.330900
H -12.890300 -6.669700 -39.577500
O -12.717600 -7.785900 -37.264100
H -12.517100 -5.046100 -41.186800
C -12.227500 -6.031500 -39.447000
C -12.007200 -5.058600 -40.409100
C -11.714500 -7.119500 -37.287200
C -11.464200 -6.056500 -38.292300
C -11.029200 -4.111900 -40.208000
H -10.883900 -3.451900 -40.848500
H -10.767900 -7.919600 -35.954200
O -10.726500 -7.266700 -36.414400
C -10.481400 -5.096700 -38.110600
C -10.269300 -4.136900 -39.071400
H -9.965000 -5.101500 -37.337200
H -9.603600 -3.499200 -38.946600
