13
Fragment
O -29.120300 -28.269100 -10.282300
C -28.040100 -27.649600 -10.399300
N -27.984900 -26.306400 -10.430400
H -27.592300 -23.762500 -10.631800
H -27.033300 -29.336100 -10.499600
N -26.884700 -28.362900 -10.512800
C -26.811300 -25.664500 -10.579900
N -26.787100 -24.349400 -10.651200
H -25.921500 -23.728300 -10.709300
C -25.675000 -27.749200 -10.643600
C -25.626700 -26.425200 -10.676800
H -24.895900 -28.251400 -10.708000
F -24.451800 -25.763600 -10.793100
15
Fragment
H -25.585500 -31.631800 -10.647000
O -24.628700 -31.704600 -10.901000
O -24.097400 -30.683800 -9.039300
C -23.784800 -31.260400 -10.056700
C -22.362100 -31.545700 -10.487900
H -22.324400 -31.478800 -11.454700
H -22.160000 -32.465400 -10.256000
H -21.963500 -29.254400 -10.729400
O -21.475400 -29.354500 -10.145300
H -21.437300 -30.833900 -8.984000
C -21.340500 -30.724000 -9.952900
C -19.944100 -31.245500 -10.235300
O -19.845200 -32.513000 -10.008900
O -19.046800 -30.557500 -10.575100
H -18.957500 -32.888900 -10.062900
28
Fragment
O -29.120300 -28.269100 -10.282300
C -28.040100 -27.649600 -10.399300
N -27.984900 -26.306400 -10.430400
H -27.592300 -23.762500 -10.631800
H -27.033300 -29.336100 -10.499600
N -26.884700 -28.362900 -10.512800
C -26.811300 -25.664500 -10.579900
N -26.787100 -24.349400 -10.651200
H -25.921500 -23.728300 -10.709300
C -25.675000 -27.749200 -10.643600
C -25.626700 -26.425200 -10.676800
H -24.895900 -28.251400 -10.708000
F -24.451800 -25.763600 -10.793100
H -25.585500 -31.631800 -10.647000
O -24.628700 -31.704600 -10.901000
O -24.097400 -30.683800 -9.039300
C -23.784800 -31.260400 -10.056700
C -22.362100 -31.545700 -10.487900
H -22.324400 -31.478800 -11.454700
H -22.160000 -32.465400 -10.256000
H -21.963500 -29.254400 -10.729400
O -21.475400 -29.354500 -10.145300
H -21.437300 -30.833900 -8.984000
C -21.340500 -30.724000 -9.952900
C -19.944100 -31.245500 -10.235300
O -19.845200 -32.513000 -10.008900
O -19.046800 -30.557500 -10.575100
H -18.957500 -32.888900 -10.062900
