12
Fragment
H 3.571600 -5.032300 -28.183500
H 4.269200 -5.200700 -30.306300
N 4.363300 -5.346700 -28.312600
O 4.718100 -5.567000 -26.068200
C 4.813200 -5.459500 -29.597700
C 5.100800 -5.705900 -27.220400
C 6.039900 -5.944100 -29.836900
N 6.350000 -6.241000 -27.520300
F 6.539000 -6.049100 -31.085100
H 6.828500 -6.502700 -26.855000
C 6.898400 -6.394500 -28.775700
O 8.016600 -6.884700 -28.946300
13
Fragment
H 9.017100 -5.992200 -30.847900
O 9.312600 -5.928400 -35.502800
N 9.450200 -5.741100 -33.233900
N 9.754100 -5.555600 -30.944800
C 9.952400 -5.572400 -34.469600
C 10.189700 -5.357300 -32.182100
H 10.244100 -5.365500 -30.273600
N 11.193800 -5.019800 -34.658800
C 11.460200 -4.739600 -32.382600
H 11.497900 -4.936900 -35.458900
C 11.957800 -4.598300 -33.610100
F 12.145500 -4.352600 -31.280300
H 12.797300 -4.224100 -33.746800
25
Fragment
H 3.571600 -5.032300 -28.183500
H 4.269200 -5.200700 -30.306300
N 4.363300 -5.346700 -28.312600
O 4.718100 -5.567000 -26.068200
C 4.813200 -5.459500 -29.597700
C 5.100800 -5.705900 -27.220400
C 6.039900 -5.944100 -29.836900
N 6.350000 -6.241000 -27.520300
F 6.539000 -6.049100 -31.085100
H 6.828500 -6.502700 -26.855000
C 6.898400 -6.394500 -28.775700
O 8.016600 -6.884700 -28.946300
H 9.017100 -5.992200 -30.847900
O 9.312600 -5.928400 -35.502800
N 9.450200 -5.741100 -33.233900
N 9.754100 -5.555600 -30.944800
C 9.952400 -5.572400 -34.469600
C 10.189700 -5.357300 -32.182100
H 10.244100 -5.365500 -30.273600
N 11.193800 -5.019800 -34.658800
C 11.460200 -4.739600 -32.382600
H 11.497900 -4.936900 -35.458900
C 11.957800 -4.598300 -33.610100
F 12.145500 -4.352600 -31.280300
H 12.797300 -4.224100 -33.746800
