13
Fragment
O -29.120300 -28.269100 -10.282300
C -28.040100 -27.649600 -10.399300
N -27.984900 -26.306400 -10.430400
H -27.592300 -23.762500 -10.631800
H -27.033300 -29.336100 -10.499600
N -26.884700 -28.362900 -10.512800
C -26.811300 -25.664500 -10.579900
N -26.787100 -24.349400 -10.651200
H -25.921500 -23.728300 -10.709300
C -25.675000 -27.749200 -10.643600
C -25.626700 -26.425200 -10.676800
H -24.895900 -28.251400 -10.708000
F -24.451800 -25.763600 -10.793100
15
Fragment
H -36.034500 -24.202300 -10.647000
O -35.077700 -24.275100 -10.901000
O -34.546400 -23.254300 -9.039300
C -34.233800 -23.830900 -10.056700
C -32.811100 -24.116200 -10.487900
H -32.773400 -24.049300 -11.454700
H -32.609000 -25.035900 -10.256000
H -32.412500 -21.824900 -10.729400
O -31.924400 -21.925000 -10.145300
H -31.886300 -23.404400 -8.984000
C -31.789500 -23.294500 -9.952900
C -30.393100 -23.816000 -10.235300
O -30.294200 -25.083500 -10.008900
O -29.495800 -23.128000 -10.575100
H -29.406500 -25.459400 -10.062900
28
Fragment
O -29.120300 -28.269100 -10.282300
C -28.040100 -27.649600 -10.399300
N -27.984900 -26.306400 -10.430400
H -27.592300 -23.762500 -10.631800
H -27.033300 -29.336100 -10.499600
N -26.884700 -28.362900 -10.512800
C -26.811300 -25.664500 -10.579900
N -26.787100 -24.349400 -10.651200
H -25.921500 -23.728300 -10.709300
C -25.675000 -27.749200 -10.643600
C -25.626700 -26.425200 -10.676800
H -24.895900 -28.251400 -10.708000
F -24.451800 -25.763600 -10.793100
H -36.034500 -24.202300 -10.647000
O -35.077700 -24.275100 -10.901000
O -34.546400 -23.254300 -9.039300
C -34.233800 -23.830900 -10.056700
C -32.811100 -24.116200 -10.487900
H -32.773400 -24.049300 -11.454700
H -32.609000 -25.035900 -10.256000
H -32.412500 -21.824900 -10.729400
O -31.924400 -21.925000 -10.145300
H -31.886300 -23.404400 -8.984000
C -31.789500 -23.294500 -9.952900
C -30.393100 -23.816000 -10.235300
O -30.294200 -25.083500 -10.008900
O -29.495800 -23.128000 -10.575100
H -29.406500 -25.459400 -10.062900
