13
Fragment
O -29.120300 -28.269100 -10.282300
C -28.040100 -27.649600 -10.399300
N -27.984900 -26.306400 -10.430400
H -27.592300 -23.762500 -10.631800
H -27.033300 -29.336100 -10.499600
N -26.884700 -28.362900 -10.512800
C -26.811300 -25.664500 -10.579900
N -26.787100 -24.349400 -10.651200
H -25.921500 -23.728300 -10.709300
C -25.675000 -27.749200 -10.643600
C -25.626700 -26.425200 -10.676800
H -24.895900 -28.251400 -10.708000
F -24.451800 -25.763600 -10.793100
15
Fragment
H -24.515800 -27.804200 -14.107500
O -23.558900 -27.731400 -14.361500
O -23.027700 -28.752200 -12.499800
C -22.715100 -28.175600 -13.517100
C -21.292400 -27.890300 -13.948300
H -21.254700 -27.957200 -14.915100
H -21.090300 -26.970600 -13.716400
H -20.893800 -30.181600 -14.189800
O -20.405600 -30.081500 -13.605700
H -20.367600 -28.602100 -12.444400
C -20.270800 -28.712000 -13.413300
C -18.874400 -28.190500 -13.695700
O -18.775500 -26.923000 -13.469400
O -17.977100 -28.878500 -14.035500
H -17.887800 -26.547100 -13.523400
28
Fragment
O -29.120300 -28.269100 -10.282300
C -28.040100 -27.649600 -10.399300
N -27.984900 -26.306400 -10.430400
H -27.592300 -23.762500 -10.631800
H -27.033300 -29.336100 -10.499600
N -26.884700 -28.362900 -10.512800
C -26.811300 -25.664500 -10.579900
N -26.787100 -24.349400 -10.651200
H -25.921500 -23.728300 -10.709300
C -25.675000 -27.749200 -10.643600
C -25.626700 -26.425200 -10.676800
H -24.895900 -28.251400 -10.708000
F -24.451800 -25.763600 -10.793100
H -24.515800 -27.804200 -14.107500
O -23.558900 -27.731400 -14.361500
O -23.027700 -28.752200 -12.499800
C -22.715100 -28.175600 -13.517100
C -21.292400 -27.890300 -13.948300
H -21.254700 -27.957200 -14.915100
H -21.090300 -26.970600 -13.716400
H -20.893800 -30.181600 -14.189800
O -20.405600 -30.081500 -13.605700
H -20.367600 -28.602100 -12.444400
C -20.270800 -28.712000 -13.413300
C -18.874400 -28.190500 -13.695700
O -18.775500 -26.923000 -13.469400
O -17.977100 -28.878500 -14.035500
H -17.887800 -26.547100 -13.523400
