13
Fragment
H -11.109600 -11.439400 -33.473900
O -10.904400 -9.441600 -34.854900
N -10.320900 -11.039000 -33.376700
C -10.027600 -9.898900 -34.084000
H -9.722400 -12.324800 -32.061100
C -9.438300 -11.586600 -32.506700
N -8.822000 -9.313400 -33.936800
C -8.261000 -10.997200 -32.343700
C -7.939500 -9.827200 -33.075400
F -7.322400 -11.505600 -31.507700
N -6.764200 -9.230800 -32.923000
H -6.520200 -8.479000 -33.430500
H -6.213000 -9.565400 -32.330900
15
Fragment
H -5.071300 -12.796200 -29.633400
H -4.709900 -11.193900 -31.242700
C -4.405600 -12.158500 -29.508600
C -4.193500 -11.198700 -30.469400
O -3.948400 -9.028700 -32.165600
H -3.907000 -8.375800 -32.625800
H -3.791000 -12.843500 -27.731500
C -3.645600 -12.183500 -28.372000
C -3.210700 -10.238900 -30.287700
C -2.960400 -9.175900 -31.292800
C -2.667700 -11.236800 -28.170800
C -2.447400 -10.263900 -29.133000
H -2.157800 -11.249300 -27.393100
O -1.957300 -8.509500 -31.315900
H -1.784600 -9.625700 -29.002500
28
Fragment
H -11.109600 -11.439400 -33.473900
O -10.904400 -9.441600 -34.854900
N -10.320900 -11.039000 -33.376700
C -10.027600 -9.898900 -34.084000
H -9.722400 -12.324800 -32.061100
C -9.438300 -11.586600 -32.506700
N -8.822000 -9.313400 -33.936800
C -8.261000 -10.997200 -32.343700
C -7.939500 -9.827200 -33.075400
F -7.322400 -11.505600 -31.507700
N -6.764200 -9.230800 -32.923000
H -6.520200 -8.479000 -33.430500
H -6.213000 -9.565400 -32.330900
H -5.071300 -12.796200 -29.633400
H -4.709900 -11.193900 -31.242700
C -4.405600 -12.158500 -29.508600
C -4.193500 -11.198700 -30.469400
O -3.948400 -9.028700 -32.165600
H -3.907000 -8.375800 -32.625800
H -3.791000 -12.843500 -27.731500
C -3.645600 -12.183500 -28.372000
C -3.210700 -10.238900 -30.287700
C -2.960400 -9.175900 -31.292800
C -2.667700 -11.236800 -28.170800
C -2.447400 -10.263900 -29.133000
H -2.157800 -11.249300 -27.393100
O -1.957300 -8.509500 -31.315900
H -1.784600 -9.625700 -29.002500
