13
Fragment
H -11.109600 -11.439400 -33.473900
O -10.904400 -9.441600 -34.854900
N -10.320900 -11.039000 -33.376700
C -10.027600 -9.898900 -34.084000
H -9.722400 -12.324800 -32.061100
C -9.438300 -11.586600 -32.506700
N -8.822000 -9.313400 -33.936800
C -8.261000 -10.997200 -32.343700
C -7.939500 -9.827200 -33.075400
F -7.322400 -11.505600 -31.507700
N -6.764200 -9.230800 -32.923000
H -6.520200 -8.479000 -33.430500
H -6.213000 -9.565400 -32.330900
13
Fragment
H -17.518400 -6.730000 -36.249100
H -17.211200 -7.816400 -35.149500
N -16.967200 -7.064600 -35.657000
F -16.409000 -4.789800 -37.072300
C -15.791900 -6.468200 -35.504500
C -15.470400 -5.298200 -36.236300
N -14.909400 -6.982000 -34.643200
C -14.293100 -4.708800 -36.073300
H -14.009000 -3.970600 -36.518800
C -13.703800 -6.396500 -34.496000
N -13.410500 -5.256400 -35.203200
O -12.827000 -6.853800 -33.725100
H -12.621800 -4.856000 -35.106100
26
Fragment
H -11.109600 -11.439400 -33.473900
O -10.904400 -9.441600 -34.854900
N -10.320900 -11.039000 -33.376700
C -10.027600 -9.898900 -34.084000
H -9.722400 -12.324800 -32.061100
C -9.438300 -11.586600 -32.506700
N -8.822000 -9.313400 -33.936800
C -8.261000 -10.997200 -32.343700
C -7.939500 -9.827200 -33.075400
F -7.322400 -11.505600 -31.507700
N -6.764200 -9.230800 -32.923000
H -6.520200 -8.479000 -33.430500
H -6.213000 -9.565400 -32.330900
H -17.518400 -6.730000 -36.249100
H -17.211200 -7.816400 -35.149500
N -16.967200 -7.064600 -35.657000
F -16.409000 -4.789800 -37.072300
C -15.791900 -6.468200 -35.504500
C -15.470400 -5.298200 -36.236300
N -14.909400 -6.982000 -34.643200
C -14.293100 -4.708800 -36.073300
H -14.009000 -3.970600 -36.518800
C -13.703800 -6.396500 -34.496000
N -13.410500 -5.256400 -35.203200
O -12.827000 -6.853800 -33.725100
H -12.621800 -4.856000 -35.106100
