13
Fragment
H -11.109600 -11.439400 -33.473900
O -10.904400 -9.441600 -34.854900
N -10.320900 -11.039000 -33.376700
C -10.027600 -9.898900 -34.084000
H -9.722400 -12.324800 -32.061100
C -9.438300 -11.586600 -32.506700
N -8.822000 -9.313400 -33.936800
C -8.261000 -10.997200 -32.343700
C -7.939500 -9.827200 -33.075400
F -7.322400 -11.505600 -31.507700
N -6.764200 -9.230800 -32.923000
H -6.520200 -8.479000 -33.430500
H -6.213000 -9.565400 -32.330900
15
Fragment
H -8.935000 -6.909800 -28.147500
O -8.762400 -5.793600 -25.834100
H -8.561800 -8.533400 -29.756900
C -8.272300 -7.548000 -28.017000
C -8.052000 -8.520900 -28.979200
C -7.759300 -6.460000 -25.857200
C -7.508900 -7.523000 -26.862300
C -7.074000 -9.467600 -28.778000
H -6.928700 -10.127600 -29.418500
H -6.812700 -5.659900 -24.524200
O -6.771200 -6.312800 -24.984400
C -6.526200 -8.482800 -26.680600
C -6.314100 -9.442600 -27.641400
H -6.009800 -8.478000 -25.907200
H -5.648400 -10.080300 -27.516600
28
Fragment
H -11.109600 -11.439400 -33.473900
O -10.904400 -9.441600 -34.854900
N -10.320900 -11.039000 -33.376700
C -10.027600 -9.898900 -34.084000
H -9.722400 -12.324800 -32.061100
C -9.438300 -11.586600 -32.506700
N -8.822000 -9.313400 -33.936800
C -8.261000 -10.997200 -32.343700
C -7.939500 -9.827200 -33.075400
F -7.322400 -11.505600 -31.507700
N -6.764200 -9.230800 -32.923000
H -6.520200 -8.479000 -33.430500
H -6.213000 -9.565400 -32.330900
H -8.935000 -6.909800 -28.147500
O -8.762400 -5.793600 -25.834100
H -8.561800 -8.533400 -29.756900
C -8.272300 -7.548000 -28.017000
C -8.052000 -8.520900 -28.979200
C -7.759300 -6.460000 -25.857200
C -7.508900 -7.523000 -26.862300
C -7.074000 -9.467600 -28.778000
H -6.928700 -10.127600 -29.418500
H -6.812700 -5.659900 -24.524200
O -6.771200 -6.312800 -24.984400
C -6.526200 -8.482800 -26.680600
C -6.314100 -9.442600 -27.641400
H -6.009800 -8.478000 -25.907200
H -5.648400 -10.080300 -27.516600
