12
Fragment
H 3.571600 -5.032300 -28.183500
H 4.269200 -5.200700 -30.306300
N 4.363300 -5.346700 -28.312600
O 4.718100 -5.567000 -26.068200
C 4.813200 -5.459500 -29.597700
C 5.100800 -5.705900 -27.220400
C 6.039900 -5.944100 -29.836900
N 6.350000 -6.241000 -27.520300
F 6.539000 -6.049100 -31.085100
H 6.828500 -6.502700 -26.855000
C 6.898400 -6.394500 -28.775700
O 8.016600 -6.884700 -28.946300
12
Fragment
H 3.571600 -1.471900 -28.183500
H 4.269200 -1.640300 -30.306300
N 4.363300 -1.786300 -28.312600
O 4.718100 -2.006600 -26.068200
C 4.813200 -1.899100 -29.597700
C 5.100800 -2.145500 -27.220400
C 6.039900 -2.383700 -29.836900
N 6.350000 -2.680600 -27.520300
F 6.539000 -2.488700 -31.085100
H 6.828500 -2.942300 -26.855000
C 6.898400 -2.834100 -28.775700
O 8.016600 -3.324300 -28.946300
24
Fragment
H 3.571600 -5.032300 -28.183500
H 4.269200 -5.200700 -30.306300
N 4.363300 -5.346700 -28.312600
O 4.718100 -5.567000 -26.068200
C 4.813200 -5.459500 -29.597700
C 5.100800 -5.705900 -27.220400
C 6.039900 -5.944100 -29.836900
N 6.350000 -6.241000 -27.520300
F 6.539000 -6.049100 -31.085100
H 6.828500 -6.502700 -26.855000
C 6.898400 -6.394500 -28.775700
O 8.016600 -6.884700 -28.946300
H 3.571600 -1.471900 -28.183500
H 4.269200 -1.640300 -30.306300
N 4.363300 -1.786300 -28.312600
O 4.718100 -2.006600 -26.068200
C 4.813200 -1.899100 -29.597700
C 5.100800 -2.145500 -27.220400
C 6.039900 -2.383700 -29.836900
N 6.350000 -2.680600 -27.520300
F 6.539000 -2.488700 -31.085100
H 6.828500 -2.942300 -26.855000
C 6.898400 -2.834100 -28.775700
O 8.016600 -3.324300 -28.946300
