12
Fragment
H 3.571600 -5.032300 -28.183500
H 4.269200 -5.200700 -30.306300
N 4.363300 -5.346700 -28.312600
O 4.718100 -5.567000 -26.068200
C 4.813200 -5.459500 -29.597700
C 5.100800 -5.705900 -27.220400
C 6.039900 -5.944100 -29.836900
N 6.350000 -6.241000 -27.520300
F 6.539000 -6.049100 -31.085100
H 6.828500 -6.502700 -26.855000
C 6.898400 -6.394500 -28.775700
O 8.016600 -6.884700 -28.946300
13
Fragment
H 3.307800 -6.457100 -20.777300
F 3.959600 -6.328600 -23.243800
C 4.147200 -6.082900 -20.914000
H 4.607200 -5.744300 -19.065300
C 4.644800 -5.941600 -22.141500
N 4.911200 -5.661400 -19.865300
H 5.861000 -5.315700 -24.250500
C 5.915400 -5.323900 -22.342000
C 6.152600 -5.108800 -20.054500
N 6.351000 -5.125600 -23.579300
N 6.654900 -4.940100 -21.290200
O 6.792500 -4.752800 -19.021300
H 7.088000 -4.689000 -23.676200
25
Fragment
H 3.571600 -5.032300 -28.183500
H 4.269200 -5.200700 -30.306300
N 4.363300 -5.346700 -28.312600
O 4.718100 -5.567000 -26.068200
C 4.813200 -5.459500 -29.597700
C 5.100800 -5.705900 -27.220400
C 6.039900 -5.944100 -29.836900
N 6.350000 -6.241000 -27.520300
F 6.539000 -6.049100 -31.085100
H 6.828500 -6.502700 -26.855000
C 6.898400 -6.394500 -28.775700
O 8.016600 -6.884700 -28.946300
H 3.307800 -6.457100 -20.777300
F 3.959600 -6.328600 -23.243800
C 4.147200 -6.082900 -20.914000
H 4.607200 -5.744300 -19.065300
C 4.644800 -5.941600 -22.141500
N 4.911200 -5.661400 -19.865300
H 5.861000 -5.315700 -24.250500
C 5.915400 -5.323900 -22.342000
C 6.152600 -5.108800 -20.054500
N 6.351000 -5.125600 -23.579300
N 6.654900 -4.940100 -21.290200
O 6.792500 -4.752800 -19.021300
H 7.088000 -4.689000 -23.676200
