13
Fragment
O -29.120300 -28.269100 -10.282300
C -28.040100 -27.649600 -10.399300
N -27.984900 -26.306400 -10.430400
H -27.592300 -23.762500 -10.631800
H -27.033300 -29.336100 -10.499600
N -26.884700 -28.362900 -10.512800
C -26.811300 -25.664500 -10.579900
N -26.787100 -24.349400 -10.651200
H -25.921500 -23.728300 -10.709300
C -25.675000 -27.749200 -10.643600
C -25.626700 -26.425200 -10.676800
H -24.895900 -28.251400 -10.708000
F -24.451800 -25.763600 -10.793100
15
Fragment
H -25.799400 -25.459400 -14.160100
O -25.710100 -23.128000 -13.647900
O -24.911700 -25.083500 -14.214100
C -24.812800 -23.816000 -13.987700
C -23.416400 -23.294500 -14.270100
H -23.319600 -23.404400 -15.239000
O -23.281600 -21.925000 -14.077700
H -22.793400 -21.824900 -13.493600
H -22.596900 -25.035900 -13.967000
H -22.432500 -24.049300 -12.768300
C -22.394800 -24.116200 -13.735100
C -20.972100 -23.830900 -14.166300
O -20.659500 -23.254300 -15.183700
O -20.128300 -24.275100 -13.322000
H -19.171400 -24.202300 -13.576000
28
Fragment
O -29.120300 -28.269100 -10.282300
C -28.040100 -27.649600 -10.399300
N -27.984900 -26.306400 -10.430400
H -27.592300 -23.762500 -10.631800
H -27.033300 -29.336100 -10.499600
N -26.884700 -28.362900 -10.512800
C -26.811300 -25.664500 -10.579900
N -26.787100 -24.349400 -10.651200
H -25.921500 -23.728300 -10.709300
C -25.675000 -27.749200 -10.643600
C -25.626700 -26.425200 -10.676800
H -24.895900 -28.251400 -10.708000
F -24.451800 -25.763600 -10.793100
H -25.799400 -25.459400 -14.160100
O -25.710100 -23.128000 -13.647900
O -24.911700 -25.083500 -14.214100
C -24.812800 -23.816000 -13.987700
C -23.416400 -23.294500 -14.270100
H -23.319600 -23.404400 -15.239000
O -23.281600 -21.925000 -14.077700
H -22.793400 -21.824900 -13.493600
H -22.596900 -25.035900 -13.967000
H -22.432500 -24.049300 -12.768300
C -22.394800 -24.116200 -13.735100
C -20.972100 -23.830900 -14.166300
O -20.659500 -23.254300 -15.183700
O -20.128300 -24.275100 -13.322000
H -19.171400 -24.202300 -13.576000
