13
Fragment
O -29.120300 -28.269100 -10.282300
C -28.040100 -27.649600 -10.399300
N -27.984900 -26.306400 -10.430400
H -27.592300 -23.762500 -10.631800
H -27.033300 -29.336100 -10.499600
N -26.884700 -28.362900 -10.512800
C -26.811300 -25.664500 -10.579900
N -26.787100 -24.349400 -10.651200
H -25.921500 -23.728300 -10.709300
C -25.675000 -27.749200 -10.643600
C -25.626700 -26.425200 -10.676800
H -24.895900 -28.251400 -10.708000
F -24.451800 -25.763600 -10.793100
15
Fragment
H -37.318100 -26.547100 -10.699600
O -37.228800 -28.878500 -10.187500
O -36.430400 -26.923000 -10.753600
C -36.331500 -28.190500 -10.527300
C -34.935200 -28.712000 -10.809700
H -34.838400 -28.602100 -11.778600
O -34.800300 -30.081500 -10.617300
H -34.312100 -30.181600 -10.033200
H -34.115600 -26.970600 -10.506600
H -33.951200 -27.957200 -9.307900
C -33.913500 -27.890300 -10.274700
C -32.490800 -28.175600 -10.705900
O -32.178200 -28.752200 -11.723200
O -31.647000 -27.731400 -9.861500
H -30.690100 -27.804200 -10.115500
28
Fragment
O -29.120300 -28.269100 -10.282300
C -28.040100 -27.649600 -10.399300
N -27.984900 -26.306400 -10.430400
H -27.592300 -23.762500 -10.631800
H -27.033300 -29.336100 -10.499600
N -26.884700 -28.362900 -10.512800
C -26.811300 -25.664500 -10.579900
N -26.787100 -24.349400 -10.651200
H -25.921500 -23.728300 -10.709300
C -25.675000 -27.749200 -10.643600
C -25.626700 -26.425200 -10.676800
H -24.895900 -28.251400 -10.708000
F -24.451800 -25.763600 -10.793100
H -37.318100 -26.547100 -10.699600
O -37.228800 -28.878500 -10.187500
O -36.430400 -26.923000 -10.753600
C -36.331500 -28.190500 -10.527300
C -34.935200 -28.712000 -10.809700
H -34.838400 -28.602100 -11.778600
O -34.800300 -30.081500 -10.617300
H -34.312100 -30.181600 -10.033200
H -34.115600 -26.970600 -10.506600
H -33.951200 -27.957200 -9.307900
C -33.913500 -27.890300 -10.274700
C -32.490800 -28.175600 -10.705900
O -32.178200 -28.752200 -11.723200
O -31.647000 -27.731400 -9.861500
H -30.690100 -27.804200 -10.115500
