12
Fragment
H 3.571600 -5.032300 -28.183500
H 4.269200 -5.200700 -30.306300
N 4.363300 -5.346700 -28.312600
O 4.718100 -5.567000 -26.068200
C 4.813200 -5.459500 -29.597700
C 5.100800 -5.705900 -27.220400
C 6.039900 -5.944100 -29.836900
N 6.350000 -6.241000 -27.520300
F 6.539000 -6.049100 -31.085100
H 6.828500 -6.502700 -26.855000
C 6.898400 -6.394500 -28.775700
O 8.016600 -6.884700 -28.946300
13
Fragment
H -1.516800 -6.004300 -29.864700
F -0.865000 -6.132800 -32.331200
C -0.677400 -6.378500 -30.001400
H -0.217400 -6.717100 -28.152600
C -0.179800 -6.519800 -31.228900
N 0.086600 -6.800000 -28.952700
H 1.036300 -7.145700 -33.337900
C 1.090700 -7.137500 -31.429300
C 1.328000 -7.352600 -29.141900
N 1.526300 -7.335800 -32.666700
N 1.830200 -7.521300 -30.377600
O 1.967900 -7.708600 -28.108600
H 2.263300 -7.772400 -32.763600
25
Fragment
H 3.571600 -5.032300 -28.183500
H 4.269200 -5.200700 -30.306300
N 4.363300 -5.346700 -28.312600
O 4.718100 -5.567000 -26.068200
C 4.813200 -5.459500 -29.597700
C 5.100800 -5.705900 -27.220400
C 6.039900 -5.944100 -29.836900
N 6.350000 -6.241000 -27.520300
F 6.539000 -6.049100 -31.085100
H 6.828500 -6.502700 -26.855000
C 6.898400 -6.394500 -28.775700
O 8.016600 -6.884700 -28.946300
H -1.516800 -6.004300 -29.864700
F -0.865000 -6.132800 -32.331200
C -0.677400 -6.378500 -30.001400
H -0.217400 -6.717100 -28.152600
C -0.179800 -6.519800 -31.228900
N 0.086600 -6.800000 -28.952700
H 1.036300 -7.145700 -33.337900
C 1.090700 -7.137500 -31.429300
C 1.328000 -7.352600 -29.141900
N 1.526300 -7.335800 -32.666700
N 1.830200 -7.521300 -30.377600
O 1.967900 -7.708600 -28.108600
H 2.263300 -7.772400 -32.763600
