12
Fragment
H 3.571600 -5.032300 -28.183500
H 4.269200 -5.200700 -30.306300
N 4.363300 -5.346700 -28.312600
O 4.718100 -5.567000 -26.068200
C 4.813200 -5.459500 -29.597700
C 5.100800 -5.705900 -27.220400
C 6.039900 -5.944100 -29.836900
N 6.350000 -6.241000 -27.520300
F 6.539000 -6.049100 -31.085100
H 6.828500 -6.502700 -26.855000
C 6.898400 -6.394500 -28.775700
O 8.016600 -6.884700 -28.946300
13
Fragment
H -1.175900 -2.908800 -21.760600
O -0.880400 -2.972600 -26.415500
N -0.742800 -3.159900 -24.146600
N -0.438900 -3.345400 -21.857500
C -0.240500 -3.328600 -25.382300
C -0.003300 -3.543700 -23.094800
H 0.051100 -3.535500 -21.186300
N 1.000800 -3.881200 -25.571500
C 1.267300 -4.161400 -23.295300
H 1.304900 -3.964100 -26.371500
C 1.764800 -4.302700 -24.522800
F 1.952500 -4.548400 -22.193000
H 2.604300 -4.676900 -24.659400
25
Fragment
H 3.571600 -5.032300 -28.183500
H 4.269200 -5.200700 -30.306300
N 4.363300 -5.346700 -28.312600
O 4.718100 -5.567000 -26.068200
C 4.813200 -5.459500 -29.597700
C 5.100800 -5.705900 -27.220400
C 6.039900 -5.944100 -29.836900
N 6.350000 -6.241000 -27.520300
F 6.539000 -6.049100 -31.085100
H 6.828500 -6.502700 -26.855000
C 6.898400 -6.394500 -28.775700
O 8.016600 -6.884700 -28.946300
H -1.175900 -2.908800 -21.760600
O -0.880400 -2.972600 -26.415500
N -0.742800 -3.159900 -24.146600
N -0.438900 -3.345400 -21.857500
C -0.240500 -3.328600 -25.382300
C -0.003300 -3.543700 -23.094800
H 0.051100 -3.535500 -21.186300
N 1.000800 -3.881200 -25.571500
C 1.267300 -4.161400 -23.295300
H 1.304900 -3.964100 -26.371500
C 1.764800 -4.302700 -24.522800
F 1.952500 -4.548400 -22.193000
H 2.604300 -4.676900 -24.659400
