12
Fragment
H 3.571600 -5.032300 -28.183500
H 4.269200 -5.200700 -30.306300
N 4.363300 -5.346700 -28.312600
O 4.718100 -5.567000 -26.068200
C 4.813200 -5.459500 -29.597700
C 5.100800 -5.705900 -27.220400
C 6.039900 -5.944100 -29.836900
N 6.350000 -6.241000 -27.520300
F 6.539000 -6.049100 -31.085100
H 6.828500 -6.502700 -26.855000
C 6.898400 -6.394500 -28.775700
O 8.016600 -6.884700 -28.946300
12
Fragment
H 3.571600 -8.592700 -28.183500
H 4.269200 -8.761100 -30.306300
N 4.363300 -8.907100 -28.312600
O 4.718100 -9.127400 -26.068200
C 4.813200 -9.019900 -29.597700
C 5.100800 -9.266300 -27.220400
C 6.039900 -9.504500 -29.836900
N 6.350000 -9.801400 -27.520300
F 6.539000 -9.609500 -31.085100
H 6.828500 -10.063100 -26.855000
C 6.898400 -9.954900 -28.775700
O 8.016600 -10.445100 -28.946300
24
Fragment
H 3.571600 -5.032300 -28.183500
H 4.269200 -5.200700 -30.306300
N 4.363300 -5.346700 -28.312600
O 4.718100 -5.567000 -26.068200
C 4.813200 -5.459500 -29.597700
C 5.100800 -5.705900 -27.220400
C 6.039900 -5.944100 -29.836900
N 6.350000 -6.241000 -27.520300
F 6.539000 -6.049100 -31.085100
H 6.828500 -6.502700 -26.855000
C 6.898400 -6.394500 -28.775700
O 8.016600 -6.884700 -28.946300
H 3.571600 -8.592700 -28.183500
H 4.269200 -8.761100 -30.306300
N 4.363300 -8.907100 -28.312600
O 4.718100 -9.127400 -26.068200
C 4.813200 -9.019900 -29.597700
C 5.100800 -9.266300 -27.220400
C 6.039900 -9.504500 -29.836900
N 6.350000 -9.801400 -27.520300
F 6.539000 -9.609500 -31.085100
H 6.828500 -10.063100 -26.855000
C 6.898400 -9.954900 -28.775700
O 8.016600 -10.445100 -28.946300
