13
Fragment
H -11.109600 -11.439400 -33.473900
O -10.904400 -9.441600 -34.854900
N -10.320900 -11.039000 -33.376700
C -10.027600 -9.898900 -34.084000
H -9.722400 -12.324800 -32.061100
C -9.438300 -11.586600 -32.506700
N -8.822000 -9.313400 -33.936800
C -8.261000 -10.997200 -32.343700
C -7.939500 -9.827200 -33.075400
F -7.322400 -11.505600 -31.507700
N -6.764200 -9.230800 -32.923000
H -6.520200 -8.479000 -33.430500
H -6.213000 -9.565400 -32.330900
13
Fragment
H -11.109600 -16.871200 -33.473900
O -10.904400 -14.873400 -34.854900
N -10.320900 -16.470800 -33.376700
C -10.027600 -15.330700 -34.084000
H -9.722400 -17.756600 -32.061100
C -9.438300 -17.018400 -32.506700
N -8.822000 -14.745200 -33.936800
C -8.261000 -16.429000 -32.343700
C -7.939500 -15.259000 -33.075400
F -7.322400 -16.937400 -31.507700
N -6.764200 -14.662600 -32.923000
H -6.520200 -13.910800 -33.430500
H -6.213000 -14.997200 -32.330900
26
Fragment
H -11.109600 -11.439400 -33.473900
O -10.904400 -9.441600 -34.854900
N -10.320900 -11.039000 -33.376700
C -10.027600 -9.898900 -34.084000
H -9.722400 -12.324800 -32.061100
C -9.438300 -11.586600 -32.506700
N -8.822000 -9.313400 -33.936800
C -8.261000 -10.997200 -32.343700
C -7.939500 -9.827200 -33.075400
F -7.322400 -11.505600 -31.507700
N -6.764200 -9.230800 -32.923000
H -6.520200 -8.479000 -33.430500
H -6.213000 -9.565400 -32.330900
H -11.109600 -16.871200 -33.473900
O -10.904400 -14.873400 -34.854900
N -10.320900 -16.470800 -33.376700
C -10.027600 -15.330700 -34.084000
H -9.722400 -17.756600 -32.061100
C -9.438300 -17.018400 -32.506700
N -8.822000 -14.745200 -33.936800
C -8.261000 -16.429000 -32.343700
C -7.939500 -15.259000 -33.075400
F -7.322400 -16.937400 -31.507700
N -6.764200 -14.662600 -32.923000
H -6.520200 -13.910800 -33.430500
H -6.213000 -14.997200 -32.330900
