13
Fragment
H -11.109600 -11.439400 -33.473900
O -10.904400 -9.441600 -34.854900
N -10.320900 -11.039000 -33.376700
C -10.027600 -9.898900 -34.084000
H -9.722400 -12.324800 -32.061100
C -9.438300 -11.586600 -32.506700
N -8.822000 -9.313400 -33.936800
C -8.261000 -10.997200 -32.343700
C -7.939500 -9.827200 -33.075400
F -7.322400 -11.505600 -31.507700
N -6.764200 -9.230800 -32.923000
H -6.520200 -8.479000 -33.430500
H -6.213000 -9.565400 -32.330900
13
Fragment
H -8.461900 -12.161800 -36.249100
H -8.154700 -13.248200 -35.149500
N -7.910700 -12.496400 -35.657000
F -7.352500 -10.221600 -37.072300
C -6.735400 -11.900000 -35.504500
C -6.413900 -10.730000 -36.236300
N -5.852900 -12.413800 -34.643200
C -5.236600 -10.140600 -36.073300
H -4.952500 -9.402400 -36.518800
C -4.647300 -11.828300 -34.496000
N -4.354000 -10.688200 -35.203200
O -3.770500 -12.285600 -33.725100
H -3.565300 -10.287800 -35.106100
26
Fragment
H -11.109600 -11.439400 -33.473900
O -10.904400 -9.441600 -34.854900
N -10.320900 -11.039000 -33.376700
C -10.027600 -9.898900 -34.084000
H -9.722400 -12.324800 -32.061100
C -9.438300 -11.586600 -32.506700
N -8.822000 -9.313400 -33.936800
C -8.261000 -10.997200 -32.343700
C -7.939500 -9.827200 -33.075400
F -7.322400 -11.505600 -31.507700
N -6.764200 -9.230800 -32.923000
H -6.520200 -8.479000 -33.430500
H -6.213000 -9.565400 -32.330900
H -8.461900 -12.161800 -36.249100
H -8.154700 -13.248200 -35.149500
N -7.910700 -12.496400 -35.657000
F -7.352500 -10.221600 -37.072300
C -6.735400 -11.900000 -35.504500
C -6.413900 -10.730000 -36.236300
N -5.852900 -12.413800 -34.643200
C -5.236600 -10.140600 -36.073300
H -4.952500 -9.402400 -36.518800
C -4.647300 -11.828300 -34.496000
N -4.354000 -10.688200 -35.203200
O -3.770500 -12.285600 -33.725100
H -3.565300 -10.287800 -35.106100
