38
Fragment
H -13.404600 -17.732000 -15.075300
N -12.963400 -18.243300 -13.179500
C -12.790300 -17.644300 -14.382100
H -12.275600 -18.090800 -10.519800
C -11.880300 -17.870100 -12.502000
N -11.688700 -16.928500 -14.500900
C -11.492800 -18.131800 -11.091200
N -11.111100 -17.103800 -13.278800
H -11.103900 -19.017000 -11.012900
H -10.907000 -16.208500 -10.598700
C -10.478600 -17.077100 -10.662000
H -10.111600 -17.301400 -9.792300
H -9.986600 -15.496400 -12.820600
C -9.848300 -16.460600 -12.929100
N -9.407100 -17.039400 -11.666700
H -9.074700 -16.283600 -14.834200
C -8.791200 -16.712100 -13.999300
O -8.692100 -18.109500 -14.209700
H -8.527600 -14.866100 -10.221600
H -8.449700 -18.253000 -14.979500
O -8.285200 -15.009600 -10.991400
C -8.186100 -16.407000 -11.201800
H -7.902600 -16.835500 -10.366900
N -7.570200 -16.079700 -13.534400
C -7.129100 -16.658500 -12.272000
H -6.990700 -17.622700 -12.380500
H -6.865700 -15.817700 -15.408800
C -6.498700 -16.042000 -14.539100
H -6.070300 -16.910600 -14.602300
H -5.873400 -14.102100 -14.188200
N -5.866200 -16.015300 -11.922300
C -5.484500 -14.987300 -14.109900
N -5.288600 -16.190600 -10.700200
C -5.097000 -15.249000 -12.699100
H -4.701700 -15.028300 -14.681300
C -4.187000 -15.474800 -10.819000
N -4.013900 -14.875800 -12.021600
H -3.572700 -15.387100 -10.125800
38
Fragment
H -13.769400 -20.907000 -10.875100
N -13.328300 -20.395600 -8.979300
C -13.155200 -20.994600 -10.181900
H -12.640500 -20.548200 -6.319600
C -12.245200 -20.768900 -8.301800
N -12.053600 -21.710500 -10.300700
C -11.857700 -20.507100 -6.891000
N -11.476000 -21.535100 -9.078600
H -11.468700 -19.622000 -6.812700
H -11.271800 -22.430500 -6.398600
C -10.843400 -21.561900 -6.461800
H -10.476500 -21.337500 -5.592100
H -10.351500 -23.142500 -8.620500
C -10.213100 -22.178300 -8.728900
N -9.772000 -21.599500 -7.466500
H -9.439600 -22.355400 -10.634000
C -9.156100 -21.926800 -9.799100
O -9.057000 -20.529400 -10.009500
H -8.892500 -23.772900 -6.021400
H -8.814600 -20.385900 -10.779300
O -8.650100 -23.629400 -6.791200
C -8.551000 -22.232000 -7.001600
H -8.267500 -21.803400 -6.166700
N -7.935100 -22.559300 -9.334200
C -7.493900 -21.980500 -8.071800
H -7.355600 -21.016300 -8.180300
H -7.230500 -22.821300 -11.208600
C -6.863600 -22.596900 -10.338900
H -6.435200 -21.728300 -10.402200
H -6.238300 -24.536800 -9.988000
N -6.231000 -22.623700 -7.722100
C -5.849300 -23.651700 -9.909700
N -5.653400 -22.448300 -6.500000
C -5.461900 -23.389900 -8.498900
H -5.066600 -23.610600 -10.481100
C -4.551900 -23.164200 -6.618800
N -4.378800 -23.763200 -7.821400
H -3.937600 -23.251800 -5.925600
76
Fragment
H -13.404600 -17.732000 -15.075300
N -12.963400 -18.243300 -13.179500
C -12.790300 -17.644300 -14.382100
H -12.275600 -18.090800 -10.519800
C -11.880300 -17.870100 -12.502000
N -11.688700 -16.928500 -14.500900
C -11.492800 -18.131800 -11.091200
N -11.111100 -17.103800 -13.278800
H -11.103900 -19.017000 -11.012900
H -10.907000 -16.208500 -10.598700
C -10.478600 -17.077100 -10.662000
H -10.111600 -17.301400 -9.792300
H -9.986600 -15.496400 -12.820600
C -9.848300 -16.460600 -12.929100
N -9.407100 -17.039400 -11.666700
H -9.074700 -16.283600 -14.834200
C -8.791200 -16.712100 -13.999300
O -8.692100 -18.109500 -14.209700
H -8.527600 -14.866100 -10.221600
H -8.449700 -18.253000 -14.979500
O -8.285200 -15.009600 -10.991400
C -8.186100 -16.407000 -11.201800
H -7.902600 -16.835500 -10.366900
N -7.570200 -16.079700 -13.534400
C -7.129100 -16.658500 -12.272000
H -6.990700 -17.622700 -12.380500
H -6.865700 -15.817700 -15.408800
C -6.498700 -16.042000 -14.539100
H -6.070300 -16.910600 -14.602300
H -5.873400 -14.102100 -14.188200
N -5.866200 -16.015300 -11.922300
C -5.484500 -14.987300 -14.109900
N -5.288600 -16.190600 -10.700200
C -5.097000 -15.249000 -12.699100
H -4.701700 -15.028300 -14.681300
C -4.187000 -15.474800 -10.819000
N -4.013900 -14.875800 -12.021600
H -3.572700 -15.387100 -10.125800
H -13.769400 -20.907000 -10.875100
N -13.328300 -20.395600 -8.979300
C -13.155200 -20.994600 -10.181900
H -12.640500 -20.548200 -6.319600
C -12.245200 -20.768900 -8.301800
N -12.053600 -21.710500 -10.300700
C -11.857700 -20.507100 -6.891000
N -11.476000 -21.535100 -9.078600
H -11.468700 -19.622000 -6.812700
H -11.271800 -22.430500 -6.398600
C -10.843400 -21.561900 -6.461800
H -10.476500 -21.337500 -5.592100
H -10.351500 -23.142500 -8.620500
C -10.213100 -22.178300 -8.728900
N -9.772000 -21.599500 -7.466500
H -9.439600 -22.355400 -10.634000
C -9.156100 -21.926800 -9.799100
O -9.057000 -20.529400 -10.009500
H -8.892500 -23.772900 -6.021400
H -8.814600 -20.385900 -10.779300
O -8.650100 -23.629400 -6.791200
C -8.551000 -22.232000 -7.001600
H -8.267500 -21.803400 -6.166700
N -7.935100 -22.559300 -9.334200
C -7.493900 -21.980500 -8.071800
H -7.355600 -21.016300 -8.180300
H -7.230500 -22.821300 -11.208600
C -6.863600 -22.596900 -10.338900
H -6.435200 -21.728300 -10.402200
H -6.238300 -24.536800 -9.988000
N -6.231000 -22.623700 -7.722100
C -5.849300 -23.651700 -9.909700
N -5.653400 -22.448300 -6.500000
C -5.461900 -23.389900 -8.498900
H -5.066600 -23.610600 -10.481100
C -4.551900 -23.164200 -6.618800
N -4.378800 -23.763200 -7.821400
H -3.937600 -23.251800 -5.925600
