22
Fragment
H -10.440300 -2.598500 -12.958600
H -10.216100 -3.725300 -13.877000
N -9.942600 -3.000000 -13.404300
C -8.695400 -2.570900 -13.396800
H -8.454500 -5.216800 -14.070800
O -8.286700 -1.624100 -12.713500
O -8.011600 -1.483500 -15.846900
C -7.754600 -4.733900 -14.544300
C -7.724400 -3.259600 -14.322800
H -7.412500 -5.073500 -15.334600
C -7.236700 -2.342200 -15.405700
O -7.046900 -4.423500 -12.332700
N -6.691900 -4.155700 -13.712600
O -6.622700 -5.529900 -9.945500
C -6.136100 -4.401600 -10.129300
C -6.095900 -3.762900 -11.511900
N -6.003800 -2.512700 -15.847700
H -5.659700 -1.968600 -16.438300
N -5.573300 -3.695200 -9.179700
H -5.460200 -3.110500 -15.469400
H -5.438700 -4.054100 -8.400300
H -5.308900 -2.966400 -9.268200
22
Fragment
H -7.450900 0.569100 -16.008600
H -7.321000 1.656800 -16.876500
H -7.299600 0.713200 -9.807400
N -7.186500 1.297800 -16.097100
H -7.100100 -0.428800 -8.838500
N -6.756000 0.115400 -9.429100
C -6.663800 1.365600 -13.764900
C -6.623600 2.004200 -15.147500
O -6.137100 3.132500 -15.331300
N -6.067900 1.758300 -11.564200
O -5.712900 2.026200 -12.944100
C -5.523000 -0.055200 -9.871100
H -5.347300 2.676100 -9.942200
C -5.035300 0.862300 -10.954000
C -5.005100 2.336600 -10.732500
O -4.748200 -0.913900 -9.429900
O -4.473100 -0.773300 -12.563300
H -4.305200 2.819500 -11.206000
C -4.064300 0.173500 -11.880000
N -2.817100 0.602700 -11.872500
H -2.543700 1.328000 -11.399800
H -2.319400 0.201100 -12.318200
44
Fragment
H -10.440300 -2.598500 -12.958600
H -10.216100 -3.725300 -13.877000
N -9.942600 -3.000000 -13.404300
C -8.695400 -2.570900 -13.396800
H -8.454500 -5.216800 -14.070800
O -8.286700 -1.624100 -12.713500
O -8.011600 -1.483500 -15.846900
C -7.754600 -4.733900 -14.544300
C -7.724400 -3.259600 -14.322800
H -7.412500 -5.073500 -15.334600
C -7.236700 -2.342200 -15.405700
O -7.046900 -4.423500 -12.332700
N -6.691900 -4.155700 -13.712600
O -6.622700 -5.529900 -9.945500
C -6.136100 -4.401600 -10.129300
C -6.095900 -3.762900 -11.511900
N -6.003800 -2.512700 -15.847700
H -5.659700 -1.968600 -16.438300
N -5.573300 -3.695200 -9.179700
H -5.460200 -3.110500 -15.469400
H -5.438700 -4.054100 -8.400300
H -5.308900 -2.966400 -9.268200
H -7.450900 0.569100 -16.008600
H -7.321000 1.656800 -16.876500
H -7.299600 0.713200 -9.807400
N -7.186500 1.297800 -16.097100
H -7.100100 -0.428800 -8.838500
N -6.756000 0.115400 -9.429100
C -6.663800 1.365600 -13.764900
C -6.623600 2.004200 -15.147500
O -6.137100 3.132500 -15.331300
N -6.067900 1.758300 -11.564200
O -5.712900 2.026200 -12.944100
C -5.523000 -0.055200 -9.871100
H -5.347300 2.676100 -9.942200
C -5.035300 0.862300 -10.954000
C -5.005100 2.336600 -10.732500
O -4.748200 -0.913900 -9.429900
O -4.473100 -0.773300 -12.563300
H -4.305200 2.819500 -11.206000
C -4.064300 0.173500 -11.880000
N -2.817100 0.602700 -11.872500
H -2.543700 1.328000 -11.399800
H -2.319400 0.201100 -12.318200
