22
Fragment
H -10.440300 -2.598500 -12.958600
H -10.216100 -3.725300 -13.877000
N -9.942600 -3.000000 -13.404300
C -8.695400 -2.570900 -13.396800
H -8.454500 -5.216800 -14.070800
O -8.286700 -1.624100 -12.713500
O -8.011600 -1.483500 -15.846900
C -7.754600 -4.733900 -14.544300
C -7.724400 -3.259600 -14.322800
H -7.412500 -5.073500 -15.334600
C -7.236700 -2.342200 -15.405700
O -7.046900 -4.423500 -12.332700
N -6.691900 -4.155700 -13.712600
O -6.622700 -5.529900 -9.945500
C -6.136100 -4.401600 -10.129300
C -6.095900 -3.762900 -11.511900
N -6.003800 -2.512700 -15.847700
H -5.659700 -1.968600 -16.438300
N -5.573300 -3.695200 -9.179700
H -5.460200 -3.110500 -15.469400
H -5.438700 -4.054100 -8.400300
H -5.308900 -2.966400 -9.268200
22
Fragment
H -12.390300 -7.408300 -16.008600
H -12.260500 -6.320600 -16.876500
H -12.239000 -7.264200 -9.807400
N -12.126000 -6.679600 -16.097100
H -12.039500 -8.406100 -8.838500
N -11.695400 -7.862000 -9.429100
C -11.603300 -6.611800 -13.764900
C -11.563100 -5.973100 -15.147500
O -11.076500 -4.844800 -15.331300
N -11.007300 -6.219000 -11.564200
O -10.652300 -5.951200 -12.944100
C -10.462500 -8.032500 -9.871100
H -10.286700 -5.301300 -9.942200
C -9.974800 -7.115100 -10.954000
C -9.944600 -5.640800 -10.732500
O -9.687600 -8.891200 -9.429900
O -9.412500 -8.750700 -12.563300
H -9.244700 -5.157900 -11.206000
C -9.003800 -7.803800 -11.880000
N -7.756600 -7.374700 -11.872500
H -7.483100 -6.649400 -11.399800
H -7.258900 -7.776200 -12.318200
44
Fragment
H -10.440300 -2.598500 -12.958600
H -10.216100 -3.725300 -13.877000
N -9.942600 -3.000000 -13.404300
C -8.695400 -2.570900 -13.396800
H -8.454500 -5.216800 -14.070800
O -8.286700 -1.624100 -12.713500
O -8.011600 -1.483500 -15.846900
C -7.754600 -4.733900 -14.544300
C -7.724400 -3.259600 -14.322800
H -7.412500 -5.073500 -15.334600
C -7.236700 -2.342200 -15.405700
O -7.046900 -4.423500 -12.332700
N -6.691900 -4.155700 -13.712600
O -6.622700 -5.529900 -9.945500
C -6.136100 -4.401600 -10.129300
C -6.095900 -3.762900 -11.511900
N -6.003800 -2.512700 -15.847700
H -5.659700 -1.968600 -16.438300
N -5.573300 -3.695200 -9.179700
H -5.460200 -3.110500 -15.469400
H -5.438700 -4.054100 -8.400300
H -5.308900 -2.966400 -9.268200
H -12.390300 -7.408300 -16.008600
H -12.260500 -6.320600 -16.876500
H -12.239000 -7.264200 -9.807400
N -12.126000 -6.679600 -16.097100
H -12.039500 -8.406100 -8.838500
N -11.695400 -7.862000 -9.429100
C -11.603300 -6.611800 -13.764900
C -11.563100 -5.973100 -15.147500
O -11.076500 -4.844800 -15.331300
N -11.007300 -6.219000 -11.564200
O -10.652300 -5.951200 -12.944100
C -10.462500 -8.032500 -9.871100
H -10.286700 -5.301300 -9.942200
C -9.974800 -7.115100 -10.954000
C -9.944600 -5.640800 -10.732500
O -9.687600 -8.891200 -9.429900
O -9.412500 -8.750700 -12.563300
H -9.244700 -5.157900 -11.206000
C -9.003800 -7.803800 -11.880000
N -7.756600 -7.374700 -11.872500
H -7.483100 -6.649400 -11.399800
H -7.258900 -7.776200 -12.318200
