22
Fragment
H -10.440300 -2.598500 -12.958600
H -10.216100 -3.725300 -13.877000
N -9.942600 -3.000000 -13.404300
C -8.695400 -2.570900 -13.396800
H -8.454500 -5.216800 -14.070800
O -8.286700 -1.624100 -12.713500
O -8.011600 -1.483500 -15.846900
C -7.754600 -4.733900 -14.544300
C -7.724400 -3.259600 -14.322800
H -7.412500 -5.073500 -15.334600
C -7.236700 -2.342200 -15.405700
O -7.046900 -4.423500 -12.332700
N -6.691900 -4.155700 -13.712600
O -6.622700 -5.529900 -9.945500
C -6.136100 -4.401600 -10.129300
C -6.095900 -3.762900 -11.511900
N -6.003800 -2.512700 -15.847700
H -5.659700 -1.968600 -16.438300
N -5.573300 -3.695200 -9.179700
H -5.460200 -3.110500 -15.469400
H -5.438700 -4.054100 -8.400300
H -5.308900 -2.966400 -9.268200
22
Fragment
H -8.898600 -3.950000 -7.583000
H -8.768700 -2.862300 -8.450900
H -8.747300 -3.806000 -1.381800
N -8.634200 -3.221300 -7.671500
H -8.547700 -4.947900 -0.412900
N -8.203600 -4.403700 -1.003500
C -8.111500 -3.153600 -5.339300
C -8.071300 -2.514900 -6.721900
O -7.584800 -1.386600 -6.905700
N -7.515600 -2.760800 -3.138600
O -7.160600 -2.492900 -4.518500
C -6.970700 -4.574300 -1.445500
H -6.795000 -1.843000 -1.516600
C -6.483000 -3.656800 -2.528400
C -6.452800 -2.182600 -2.306900
O -6.195800 -5.433000 -1.004300
O -5.920800 -5.292400 -4.137700
H -5.752900 -1.699600 -2.780400
C -5.512000 -4.345600 -3.454400
N -4.264800 -3.916500 -3.446900
H -3.991300 -3.191200 -2.974200
H -3.767100 -4.318000 -3.892600
44
Fragment
H -10.440300 -2.598500 -12.958600
H -10.216100 -3.725300 -13.877000
N -9.942600 -3.000000 -13.404300
C -8.695400 -2.570900 -13.396800
H -8.454500 -5.216800 -14.070800
O -8.286700 -1.624100 -12.713500
O -8.011600 -1.483500 -15.846900
C -7.754600 -4.733900 -14.544300
C -7.724400 -3.259600 -14.322800
H -7.412500 -5.073500 -15.334600
C -7.236700 -2.342200 -15.405700
O -7.046900 -4.423500 -12.332700
N -6.691900 -4.155700 -13.712600
O -6.622700 -5.529900 -9.945500
C -6.136100 -4.401600 -10.129300
C -6.095900 -3.762900 -11.511900
N -6.003800 -2.512700 -15.847700
H -5.659700 -1.968600 -16.438300
N -5.573300 -3.695200 -9.179700
H -5.460200 -3.110500 -15.469400
H -5.438700 -4.054100 -8.400300
H -5.308900 -2.966400 -9.268200
H -8.898600 -3.950000 -7.583000
H -8.768700 -2.862300 -8.450900
H -8.747300 -3.806000 -1.381800
N -8.634200 -3.221300 -7.671500
H -8.547700 -4.947900 -0.412900
N -8.203600 -4.403700 -1.003500
C -8.111500 -3.153600 -5.339300
C -8.071300 -2.514900 -6.721900
O -7.584800 -1.386600 -6.905700
N -7.515600 -2.760800 -3.138600
O -7.160600 -2.492900 -4.518500
C -6.970700 -4.574300 -1.445500
H -6.795000 -1.843000 -1.516600
C -6.483000 -3.656800 -2.528400
C -6.452800 -2.182600 -2.306900
O -6.195800 -5.433000 -1.004300
O -5.920800 -5.292400 -4.137700
H -5.752900 -1.699600 -2.780400
C -5.512000 -4.345600 -3.454400
N -4.264800 -3.916500 -3.446900
H -3.991300 -3.191200 -2.974200
H -3.767100 -4.318000 -3.892600
