22
Fragment
H -10.440300 -2.598500 -12.958600
H -10.216100 -3.725300 -13.877000
N -9.942600 -3.000000 -13.404300
C -8.695400 -2.570900 -13.396800
H -8.454500 -5.216800 -14.070800
O -8.286700 -1.624100 -12.713500
O -8.011600 -1.483500 -15.846900
C -7.754600 -4.733900 -14.544300
C -7.724400 -3.259600 -14.322800
H -7.412500 -5.073500 -15.334600
C -7.236700 -2.342200 -15.405700
O -7.046900 -4.423500 -12.332700
N -6.691900 -4.155700 -13.712600
O -6.622700 -5.529900 -9.945500
C -6.136100 -4.401600 -10.129300
C -6.095900 -3.762900 -11.511900
N -6.003800 -2.512700 -15.847700
H -5.659700 -1.968600 -16.438300
N -5.573300 -3.695200 -9.179700
H -5.460200 -3.110500 -15.469400
H -5.438700 -4.054100 -8.400300
H -5.308900 -2.966400 -9.268200
22
Fragment
H -3.718800 -2.889200 -24.434200
H -3.588900 -1.801500 -25.302100
H -3.567500 -2.745100 -18.233000
N -3.454400 -2.160400 -24.522700
H -3.367900 -3.887000 -17.264100
N -3.023800 -3.342900 -17.854700
C -2.931700 -2.092700 -22.190500
C -2.891500 -1.454000 -23.573100
O -2.405000 -0.325700 -23.756900
N -2.335800 -1.699900 -19.989800
O -1.980800 -1.432100 -21.369700
C -1.790900 -3.513400 -18.296700
H -1.615100 -0.782100 -18.367800
C -1.303200 -2.595900 -19.379600
C -1.273000 -1.121700 -19.158100
O -1.016000 -4.372100 -17.855500
O -0.741000 -4.231500 -20.988900
H -0.573100 -0.638800 -19.631700
C -0.332200 -3.284700 -20.305600
N 0.915000 -2.855600 -20.298100
H 1.188500 -2.130300 -19.825400
H 1.412700 -3.257100 -20.743800
44
Fragment
H -10.440300 -2.598500 -12.958600
H -10.216100 -3.725300 -13.877000
N -9.942600 -3.000000 -13.404300
C -8.695400 -2.570900 -13.396800
H -8.454500 -5.216800 -14.070800
O -8.286700 -1.624100 -12.713500
O -8.011600 -1.483500 -15.846900
C -7.754600 -4.733900 -14.544300
C -7.724400 -3.259600 -14.322800
H -7.412500 -5.073500 -15.334600
C -7.236700 -2.342200 -15.405700
O -7.046900 -4.423500 -12.332700
N -6.691900 -4.155700 -13.712600
O -6.622700 -5.529900 -9.945500
C -6.136100 -4.401600 -10.129300
C -6.095900 -3.762900 -11.511900
N -6.003800 -2.512700 -15.847700
H -5.659700 -1.968600 -16.438300
N -5.573300 -3.695200 -9.179700
H -5.460200 -3.110500 -15.469400
H -5.438700 -4.054100 -8.400300
H -5.308900 -2.966400 -9.268200
H -3.718800 -2.889200 -24.434200
H -3.588900 -1.801500 -25.302100
H -3.567500 -2.745100 -18.233000
N -3.454400 -2.160400 -24.522700
H -3.367900 -3.887000 -17.264100
N -3.023800 -3.342900 -17.854700
C -2.931700 -2.092700 -22.190500
C -2.891500 -1.454000 -23.573100
O -2.405000 -0.325700 -23.756900
N -2.335800 -1.699900 -19.989800
O -1.980800 -1.432100 -21.369700
C -1.790900 -3.513400 -18.296700
H -1.615100 -0.782100 -18.367800
C -1.303200 -2.595900 -19.379600
C -1.273000 -1.121700 -19.158100
O -1.016000 -4.372100 -17.855500
O -0.741000 -4.231500 -20.988900
H -0.573100 -0.638800 -19.631700
C -0.332200 -3.284700 -20.305600
N 0.915000 -2.855600 -20.298100
H 1.188500 -2.130300 -19.825400
H 1.412700 -3.257100 -20.743800
