22
Fragment
H -10.440300 -2.598500 -12.958600
H -10.216100 -3.725300 -13.877000
N -9.942600 -3.000000 -13.404300
C -8.695400 -2.570900 -13.396800
H -8.454500 -5.216800 -14.070800
O -8.286700 -1.624100 -12.713500
O -8.011600 -1.483500 -15.846900
C -7.754600 -4.733900 -14.544300
C -7.724400 -3.259600 -14.322800
H -7.412500 -5.073500 -15.334600
C -7.236700 -2.342200 -15.405700
O -7.046900 -4.423500 -12.332700
N -6.691900 -4.155700 -13.712600
O -6.622700 -5.529900 -9.945500
C -6.136100 -4.401600 -10.129300
C -6.095900 -3.762900 -11.511900
N -6.003800 -2.512700 -15.847700
H -5.659700 -1.968600 -16.438300
N -5.573300 -3.695200 -9.179700
H -5.460200 -3.110500 -15.469400
H -5.438700 -4.054100 -8.400300
H -5.308900 -2.966400 -9.268200
22
Fragment
H -11.888000 -7.117600 -4.533000
H -11.663800 -8.244400 -5.451400
N -11.390300 -7.519100 -4.978700
C -10.143100 -7.090000 -4.971200
H -9.902200 -9.736000 -5.645200
O -9.734300 -6.143200 -4.287900
O -9.459300 -6.002600 -7.421300
C -9.202300 -9.253000 -6.118700
C -9.172100 -7.778800 -5.897200
H -8.860200 -9.592600 -6.909000
C -8.684400 -6.861300 -6.980100
O -8.494500 -8.942700 -3.907100
N -8.139600 -8.674800 -5.287000
O -8.070400 -10.049000 -1.519900
C -7.583800 -8.920700 -1.703700
C -7.543600 -8.282000 -3.086300
N -7.451500 -7.031800 -7.422100
H -7.107400 -6.487700 -8.012700
N -7.020900 -8.214300 -0.754100
H -6.907800 -7.629600 -7.043800
H -6.886400 -8.573300 0.025300
H -6.756600 -7.485500 -0.842600
44
Fragment
H -10.440300 -2.598500 -12.958600
H -10.216100 -3.725300 -13.877000
N -9.942600 -3.000000 -13.404300
C -8.695400 -2.570900 -13.396800
H -8.454500 -5.216800 -14.070800
O -8.286700 -1.624100 -12.713500
O -8.011600 -1.483500 -15.846900
C -7.754600 -4.733900 -14.544300
C -7.724400 -3.259600 -14.322800
H -7.412500 -5.073500 -15.334600
C -7.236700 -2.342200 -15.405700
O -7.046900 -4.423500 -12.332700
N -6.691900 -4.155700 -13.712600
O -6.622700 -5.529900 -9.945500
C -6.136100 -4.401600 -10.129300
C -6.095900 -3.762900 -11.511900
N -6.003800 -2.512700 -15.847700
H -5.659700 -1.968600 -16.438300
N -5.573300 -3.695200 -9.179700
H -5.460200 -3.110500 -15.469400
H -5.438700 -4.054100 -8.400300
H -5.308900 -2.966400 -9.268200
H -11.888000 -7.117600 -4.533000
H -11.663800 -8.244400 -5.451400
N -11.390300 -7.519100 -4.978700
C -10.143100 -7.090000 -4.971200
H -9.902200 -9.736000 -5.645200
O -9.734300 -6.143200 -4.287900
O -9.459300 -6.002600 -7.421300
C -9.202300 -9.253000 -6.118700
C -9.172100 -7.778800 -5.897200
H -8.860200 -9.592600 -6.909000
C -8.684400 -6.861300 -6.980100
O -8.494500 -8.942700 -3.907100
N -8.139600 -8.674800 -5.287000
O -8.070400 -10.049000 -1.519900
C -7.583800 -8.920700 -1.703700
C -7.543600 -8.282000 -3.086300
N -7.451500 -7.031800 -7.422100
H -7.107400 -6.487700 -8.012700
N -7.020900 -8.214300 -0.754100
H -6.907800 -7.629600 -7.043800
H -6.886400 -8.573300 0.025300
H -6.756600 -7.485500 -0.842600
