32
Fragment
H -11.621300 -13.008200 -28.285800
H -11.477200 -14.977100 -33.626700
H -11.436500 -14.856400 -31.968800
N -11.022300 -14.715200 -32.822200
H -11.009600 -12.768000 -30.588800
C -10.831100 -13.423800 -28.638600
C -10.487100 -13.291600 -29.977500
H -10.280200 -14.295100 -26.894100
C -10.012300 -14.203900 -27.811600
C -9.804300 -14.153000 -32.896300
C -9.367800 -13.909900 -30.452400
N -9.136400 -13.909900 -34.024400
N -9.060200 -13.793200 -31.840000
C -8.873200 -14.781600 -28.281900
C -8.544400 -14.654600 -29.593000
H -8.335700 -15.294300 -27.673600
C -7.945900 -13.400200 -33.584300
H -7.906500 -13.410900 -36.200700
N -7.827100 -13.321100 -32.275500
H -7.744600 -15.043100 -29.953900
C -7.061000 -13.092100 -35.875300
C -6.888300 -13.005000 -34.513200
H -6.173500 -12.786500 -37.696300
C -6.067000 -12.726400 -36.744000
C -5.674700 -12.527000 -34.036000
H -5.529600 -12.480800 -33.088800
C -4.896100 -12.230700 -36.257500
C -4.668100 -12.140600 -34.904700
O -4.053800 -12.012100 -38.411800
N -3.865300 -11.839200 -37.235000
H -3.836800 -11.795500 -34.571600
O -2.846000 -11.316900 -36.774100
32
Fragment
O -20.237800 -15.010700 -21.137800
H -19.247000 -15.489200 -23.340400
N -19.218500 -15.533000 -20.676900
O -19.030000 -15.705800 -19.500100
C -18.415700 -15.834400 -23.007200
C -18.187700 -15.924500 -21.654400
H -17.554100 -16.174600 -24.823100
C -17.409100 -16.220700 -23.875900
C -17.016700 -16.420200 -21.168000
H -16.910200 -16.480300 -20.215700
C -16.195500 -16.698700 -23.398700
C -16.022800 -16.785900 -22.036600
H -15.339200 -18.736800 -27.958000
N -15.256700 -17.014900 -25.636400
H -15.177300 -17.104600 -21.711200
C -15.137900 -17.093900 -24.327600
H -14.748100 -18.988100 -30.238400
C -14.539400 -18.348300 -28.318900
C -14.210600 -18.475400 -29.630100
N -14.023600 -17.487000 -26.071900
N -13.947300 -17.603700 -23.887500
C -13.715900 -17.603700 -27.459500
C -13.279500 -17.846700 -25.015600
C -13.071500 -17.897700 -30.100300
H -12.803500 -17.988900 -31.017900
C -12.596700 -16.985300 -27.934400
C -12.252700 -17.117600 -29.273300
H -12.074200 -16.461800 -27.323100
N -12.061400 -18.408900 -25.089800
H -11.647300 -18.550200 -25.943100
H -11.606500 -18.670900 -24.285200
H -11.462500 -16.702000 -29.626100
64
Fragment
H -11.621300 -13.008200 -28.285800
H -11.477200 -14.977100 -33.626700
H -11.436500 -14.856400 -31.968800
N -11.022300 -14.715200 -32.822200
H -11.009600 -12.768000 -30.588800
C -10.831100 -13.423800 -28.638600
C -10.487100 -13.291600 -29.977500
H -10.280200 -14.295100 -26.894100
C -10.012300 -14.203900 -27.811600
C -9.804300 -14.153000 -32.896300
C -9.367800 -13.909900 -30.452400
N -9.136400 -13.909900 -34.024400
N -9.060200 -13.793200 -31.840000
C -8.873200 -14.781600 -28.281900
C -8.544400 -14.654600 -29.593000
H -8.335700 -15.294300 -27.673600
C -7.945900 -13.400200 -33.584300
H -7.906500 -13.410900 -36.200700
N -7.827100 -13.321100 -32.275500
H -7.744600 -15.043100 -29.953900
C -7.061000 -13.092100 -35.875300
C -6.888300 -13.005000 -34.513200
H -6.173500 -12.786500 -37.696300
C -6.067000 -12.726400 -36.744000
C -5.674700 -12.527000 -34.036000
H -5.529600 -12.480800 -33.088800
C -4.896100 -12.230700 -36.257500
C -4.668100 -12.140600 -34.904700
O -4.053800 -12.012100 -38.411800
N -3.865300 -11.839200 -37.235000
H -3.836800 -11.795500 -34.571600
O -2.846000 -11.316900 -36.774100
O -20.237800 -15.010700 -21.137800
H -19.247000 -15.489200 -23.340400
N -19.218500 -15.533000 -20.676900
O -19.030000 -15.705800 -19.500100
C -18.415700 -15.834400 -23.007200
C -18.187700 -15.924500 -21.654400
H -17.554100 -16.174600 -24.823100
C -17.409100 -16.220700 -23.875900
C -17.016700 -16.420200 -21.168000
H -16.910200 -16.480300 -20.215700
C -16.195500 -16.698700 -23.398700
C -16.022800 -16.785900 -22.036600
H -15.339200 -18.736800 -27.958000
N -15.256700 -17.014900 -25.636400
H -15.177300 -17.104600 -21.711200
C -15.137900 -17.093900 -24.327600
H -14.748100 -18.988100 -30.238400
C -14.539400 -18.348300 -28.318900
C -14.210600 -18.475400 -29.630100
N -14.023600 -17.487000 -26.071900
N -13.947300 -17.603700 -23.887500
C -13.715900 -17.603700 -27.459500
C -13.279500 -17.846700 -25.015600
C -13.071500 -17.897700 -30.100300
H -12.803500 -17.988900 -31.017900
C -12.596700 -16.985300 -27.934400
C -12.252700 -17.117600 -29.273300
H -12.074200 -16.461800 -27.323100
N -12.061400 -18.408900 -25.089800
H -11.647300 -18.550200 -25.943100
H -11.606500 -18.670900 -24.285200
H -11.462500 -16.702000 -29.626100
