32
Fragment
H -11.621300 -13.008200 -28.285800
H -11.477200 -14.977100 -33.626700
H -11.436500 -14.856400 -31.968800
N -11.022300 -14.715200 -32.822200
H -11.009600 -12.768000 -30.588800
C -10.831100 -13.423800 -28.638600
C -10.487100 -13.291600 -29.977500
H -10.280200 -14.295100 -26.894100
C -10.012300 -14.203900 -27.811600
C -9.804300 -14.153000 -32.896300
C -9.367800 -13.909900 -30.452400
N -9.136400 -13.909900 -34.024400
N -9.060200 -13.793200 -31.840000
C -8.873200 -14.781600 -28.281900
C -8.544400 -14.654600 -29.593000
H -8.335700 -15.294300 -27.673600
C -7.945900 -13.400200 -33.584300
H -7.906500 -13.410900 -36.200700
N -7.827100 -13.321100 -32.275500
H -7.744600 -15.043100 -29.953900
C -7.061000 -13.092100 -35.875300
C -6.888300 -13.005000 -34.513200
H -6.173500 -12.786500 -37.696300
C -6.067000 -12.726400 -36.744000
C -5.674700 -12.527000 -34.036000
H -5.529600 -12.480800 -33.088800
C -4.896100 -12.230700 -36.257500
C -4.668100 -12.140600 -34.904700
O -4.053800 -12.012100 -38.411800
N -3.865300 -11.839200 -37.235000
H -3.836800 -11.795500 -34.571600
O -2.846000 -11.316900 -36.774100
32
Fragment
O -20.237800 -7.623200 -21.137800
H -19.247000 -8.101700 -23.340400
N -19.218500 -8.145500 -20.676900
O -19.030000 -8.318300 -19.500100
C -18.415700 -8.446900 -23.007200
C -18.187700 -8.537000 -21.654400
H -17.554100 -8.787100 -24.823100
C -17.409100 -8.833200 -23.875900
C -17.016700 -9.032700 -21.168000
H -16.910200 -9.092800 -20.215700
C -16.195500 -9.311200 -23.398700
C -16.022800 -9.398400 -22.036600
H -15.339200 -11.349300 -27.958000
N -15.256700 -9.627400 -25.636400
H -15.177300 -9.717100 -21.711200
C -15.137900 -9.706400 -24.327600
H -14.748100 -11.600600 -30.238400
C -14.539400 -10.960800 -28.318900
C -14.210600 -11.087900 -29.630100
N -14.023600 -10.099500 -26.071900
N -13.947300 -10.216200 -23.887500
C -13.715900 -10.216200 -27.459500
C -13.279500 -10.459200 -25.015600
C -13.071500 -10.510200 -30.100300
H -12.803500 -10.601400 -31.017900
C -12.596700 -9.597800 -27.934400
C -12.252700 -9.730100 -29.273300
H -12.074200 -9.074300 -27.323100
N -12.061400 -11.021400 -25.089800
H -11.647300 -11.162700 -25.943100
H -11.606500 -11.283400 -24.285200
H -11.462500 -9.314500 -29.626100
64
Fragment
H -11.621300 -13.008200 -28.285800
H -11.477200 -14.977100 -33.626700
H -11.436500 -14.856400 -31.968800
N -11.022300 -14.715200 -32.822200
H -11.009600 -12.768000 -30.588800
C -10.831100 -13.423800 -28.638600
C -10.487100 -13.291600 -29.977500
H -10.280200 -14.295100 -26.894100
C -10.012300 -14.203900 -27.811600
C -9.804300 -14.153000 -32.896300
C -9.367800 -13.909900 -30.452400
N -9.136400 -13.909900 -34.024400
N -9.060200 -13.793200 -31.840000
C -8.873200 -14.781600 -28.281900
C -8.544400 -14.654600 -29.593000
H -8.335700 -15.294300 -27.673600
C -7.945900 -13.400200 -33.584300
H -7.906500 -13.410900 -36.200700
N -7.827100 -13.321100 -32.275500
H -7.744600 -15.043100 -29.953900
C -7.061000 -13.092100 -35.875300
C -6.888300 -13.005000 -34.513200
H -6.173500 -12.786500 -37.696300
C -6.067000 -12.726400 -36.744000
C -5.674700 -12.527000 -34.036000
H -5.529600 -12.480800 -33.088800
C -4.896100 -12.230700 -36.257500
C -4.668100 -12.140600 -34.904700
O -4.053800 -12.012100 -38.411800
N -3.865300 -11.839200 -37.235000
H -3.836800 -11.795500 -34.571600
O -2.846000 -11.316900 -36.774100
O -20.237800 -7.623200 -21.137800
H -19.247000 -8.101700 -23.340400
N -19.218500 -8.145500 -20.676900
O -19.030000 -8.318300 -19.500100
C -18.415700 -8.446900 -23.007200
C -18.187700 -8.537000 -21.654400
H -17.554100 -8.787100 -24.823100
C -17.409100 -8.833200 -23.875900
C -17.016700 -9.032700 -21.168000
H -16.910200 -9.092800 -20.215700
C -16.195500 -9.311200 -23.398700
C -16.022800 -9.398400 -22.036600
H -15.339200 -11.349300 -27.958000
N -15.256700 -9.627400 -25.636400
H -15.177300 -9.717100 -21.711200
C -15.137900 -9.706400 -24.327600
H -14.748100 -11.600600 -30.238400
C -14.539400 -10.960800 -28.318900
C -14.210600 -11.087900 -29.630100
N -14.023600 -10.099500 -26.071900
N -13.947300 -10.216200 -23.887500
C -13.715900 -10.216200 -27.459500
C -13.279500 -10.459200 -25.015600
C -13.071500 -10.510200 -30.100300
H -12.803500 -10.601400 -31.017900
C -12.596700 -9.597800 -27.934400
C -12.252700 -9.730100 -29.273300
H -12.074200 -9.074300 -27.323100
N -12.061400 -11.021400 -25.089800
H -11.647300 -11.162700 -25.943100
H -11.606500 -11.283400 -24.285200
H -11.462500 -9.314500 -29.626100
