21
Fragment
H -11.306900 -25.525300 -44.679900
O -11.027300 -27.729900 -43.941400
O -11.025100 -25.499600 -43.731900
C -10.880100 -26.729000 -43.274700
C -10.542200 -26.765100 -41.815800
H -10.485000 -28.795700 -41.681800
H -10.478900 -24.755900 -41.520400
C -10.411800 -27.991900 -41.180600
C -10.407700 -25.597200 -41.084900
C -10.174900 -28.046000 -39.810700
O -10.170900 -30.422000 -39.839400
C -10.168200 -25.650000 -39.714900
O -10.092600 -23.288900 -39.628700
C -10.082600 -29.386500 -39.167900
C -10.069200 -24.349300 -38.989600
C -10.064500 -26.873200 -39.064500
O -9.964800 -24.402000 -37.706500
H -9.928700 -23.492100 -37.304100
H -9.922000 -30.310900 -37.499800
H -9.920600 -26.910000 -38.126000
O -9.912000 -29.384500 -37.887200
24
Fragment
H -16.196000 -28.395200 -46.259300
C -15.217500 -28.338900 -46.276700
H -14.939400 -27.708200 -46.973300
N -14.935900 -25.500100 -45.495700
H -14.843000 -29.223700 -46.468800
H -14.821900 -23.529500 -45.061200
N -14.732500 -27.874900 -44.976500
C -14.711100 -24.419200 -44.746800
O -14.656900 -29.995800 -44.175300
C -14.654900 -26.539900 -44.671900
H -14.577100 -29.788600 -41.437800
C -14.507700 -28.799800 -43.982900
H -14.504300 -23.946900 -41.654300
N -14.310300 -24.722900 -43.501900
C -14.274200 -26.104100 -43.435300
N -14.088900 -28.326300 -42.742000
H -14.042900 -22.874800 -42.749400
C -13.971800 -26.976100 -42.349400
C -13.932300 -23.796600 -42.435900
C -13.755700 -29.348400 -41.741200
O -13.650600 -26.659500 -41.215800
H -13.310900 -28.924900 -40.977300
H -13.156800 -30.013600 -42.140200
H -12.995800 -23.947600 -42.189100
45
Fragment
H -11.306900 -25.525300 -44.679900
O -11.027300 -27.729900 -43.941400
O -11.025100 -25.499600 -43.731900
C -10.880100 -26.729000 -43.274700
C -10.542200 -26.765100 -41.815800
H -10.485000 -28.795700 -41.681800
H -10.478900 -24.755900 -41.520400
C -10.411800 -27.991900 -41.180600
C -10.407700 -25.597200 -41.084900
C -10.174900 -28.046000 -39.810700
O -10.170900 -30.422000 -39.839400
C -10.168200 -25.650000 -39.714900
O -10.092600 -23.288900 -39.628700
C -10.082600 -29.386500 -39.167900
C -10.069200 -24.349300 -38.989600
C -10.064500 -26.873200 -39.064500
O -9.964800 -24.402000 -37.706500
H -9.928700 -23.492100 -37.304100
H -9.922000 -30.310900 -37.499800
H -9.920600 -26.910000 -38.126000
O -9.912000 -29.384500 -37.887200
H -16.196000 -28.395200 -46.259300
C -15.217500 -28.338900 -46.276700
H -14.939400 -27.708200 -46.973300
N -14.935900 -25.500100 -45.495700
H -14.843000 -29.223700 -46.468800
H -14.821900 -23.529500 -45.061200
N -14.732500 -27.874900 -44.976500
C -14.711100 -24.419200 -44.746800
O -14.656900 -29.995800 -44.175300
C -14.654900 -26.539900 -44.671900
H -14.577100 -29.788600 -41.437800
C -14.507700 -28.799800 -43.982900
H -14.504300 -23.946900 -41.654300
N -14.310300 -24.722900 -43.501900
C -14.274200 -26.104100 -43.435300
N -14.088900 -28.326300 -42.742000
H -14.042900 -22.874800 -42.749400
C -13.971800 -26.976100 -42.349400
C -13.932300 -23.796600 -42.435900
C -13.755700 -29.348400 -41.741200
O -13.650600 -26.659500 -41.215800
H -13.310900 -28.924900 -40.977300
H -13.156800 -30.013600 -42.140200
H -12.995800 -23.947600 -42.189100
