21
Fragment
H -11.306900 -25.525300 -44.679900
O -11.027300 -27.729900 -43.941400
O -11.025100 -25.499600 -43.731900
C -10.880100 -26.729000 -43.274700
C -10.542200 -26.765100 -41.815800
H -10.485000 -28.795700 -41.681800
H -10.478900 -24.755900 -41.520400
C -10.411800 -27.991900 -41.180600
C -10.407700 -25.597200 -41.084900
C -10.174900 -28.046000 -39.810700
O -10.170900 -30.422000 -39.839400
C -10.168200 -25.650000 -39.714900
O -10.092600 -23.288900 -39.628700
C -10.082600 -29.386500 -39.167900
C -10.069200 -24.349300 -38.989600
C -10.064500 -26.873200 -39.064500
O -9.964800 -24.402000 -37.706500
H -9.928700 -23.492100 -37.304100
H -9.922000 -30.310900 -37.499800
H -9.920600 -26.910000 -38.126000
O -9.912000 -29.384500 -37.887200
24
Fragment
H -13.766200 -26.926700 -49.549700
H -13.605200 -20.860700 -49.598600
H -13.451100 -21.949400 -50.761500
O -13.111400 -24.214800 -50.523000
C -13.006300 -21.525900 -49.997600
C -12.829700 -27.077700 -49.302900
C -12.790200 -23.898200 -49.389400
H -12.719100 -27.999500 -48.989400
N -12.673100 -22.548000 -48.996800
C -12.487800 -24.770200 -48.303500
N -12.451700 -26.151400 -48.236900
H -12.257700 -26.927400 -50.084500
C -12.254300 -22.074500 -47.755900
H -12.184900 -21.085700 -50.301000
C -12.107100 -24.334400 -47.066900
O -12.105100 -20.878500 -47.563500
C -12.050900 -26.455100 -46.992000
N -12.029500 -22.999400 -46.762300
H -11.940100 -27.344800 -46.677600
H -11.919000 -21.650600 -45.270000
N -11.826100 -25.374200 -46.243100
H -11.822600 -23.166100 -44.765500
C -11.544500 -22.535400 -45.462100
H -10.566000 -22.479100 -45.479500
45
Fragment
H -11.306900 -25.525300 -44.679900
O -11.027300 -27.729900 -43.941400
O -11.025100 -25.499600 -43.731900
C -10.880100 -26.729000 -43.274700
C -10.542200 -26.765100 -41.815800
H -10.485000 -28.795700 -41.681800
H -10.478900 -24.755900 -41.520400
C -10.411800 -27.991900 -41.180600
C -10.407700 -25.597200 -41.084900
C -10.174900 -28.046000 -39.810700
O -10.170900 -30.422000 -39.839400
C -10.168200 -25.650000 -39.714900
O -10.092600 -23.288900 -39.628700
C -10.082600 -29.386500 -39.167900
C -10.069200 -24.349300 -38.989600
C -10.064500 -26.873200 -39.064500
O -9.964800 -24.402000 -37.706500
H -9.928700 -23.492100 -37.304100
H -9.922000 -30.310900 -37.499800
H -9.920600 -26.910000 -38.126000
O -9.912000 -29.384500 -37.887200
H -13.766200 -26.926700 -49.549700
H -13.605200 -20.860700 -49.598600
H -13.451100 -21.949400 -50.761500
O -13.111400 -24.214800 -50.523000
C -13.006300 -21.525900 -49.997600
C -12.829700 -27.077700 -49.302900
C -12.790200 -23.898200 -49.389400
H -12.719100 -27.999500 -48.989400
N -12.673100 -22.548000 -48.996800
C -12.487800 -24.770200 -48.303500
N -12.451700 -26.151400 -48.236900
H -12.257700 -26.927400 -50.084500
C -12.254300 -22.074500 -47.755900
H -12.184900 -21.085700 -50.301000
C -12.107100 -24.334400 -47.066900
O -12.105100 -20.878500 -47.563500
C -12.050900 -26.455100 -46.992000
N -12.029500 -22.999400 -46.762300
H -11.940100 -27.344800 -46.677600
H -11.919000 -21.650600 -45.270000
N -11.826100 -25.374200 -46.243100
H -11.822600 -23.166100 -44.765500
C -11.544500 -22.535400 -45.462100
H -10.566000 -22.479100 -45.479500
