21
Fragment
H -11.306900 -25.525300 -44.679900
O -11.027300 -27.729900 -43.941400
O -11.025100 -25.499600 -43.731900
C -10.880100 -26.729000 -43.274700
C -10.542200 -26.765100 -41.815800
H -10.485000 -28.795700 -41.681800
H -10.478900 -24.755900 -41.520400
C -10.411800 -27.991900 -41.180600
C -10.407700 -25.597200 -41.084900
C -10.174900 -28.046000 -39.810700
O -10.170900 -30.422000 -39.839400
C -10.168200 -25.650000 -39.714900
O -10.092600 -23.288900 -39.628700
C -10.082600 -29.386500 -39.167900
C -10.069200 -24.349300 -38.989600
C -10.064500 -26.873200 -39.064500
O -9.964800 -24.402000 -37.706500
H -9.928700 -23.492100 -37.304100
H -9.922000 -30.310900 -37.499800
H -9.920600 -26.910000 -38.126000
O -9.912000 -29.384500 -37.887200
21
Fragment
H -7.961700 -25.525300 -31.769100
O -7.682000 -27.729900 -32.507600
O -7.679900 -25.499600 -32.717100
C -7.534800 -26.729000 -33.174300
C -7.197000 -26.765100 -34.633200
H -7.139800 -28.795700 -34.767200
H -7.133700 -24.755900 -34.928600
C -7.066500 -27.991900 -35.268400
C -7.062500 -25.597200 -35.364100
C -6.829700 -28.046000 -36.638300
O -6.825600 -30.422000 -36.609600
C -6.823000 -25.650000 -36.734100
O -6.747400 -23.288900 -36.820300
C -6.737300 -29.386500 -37.281100
C -6.724000 -24.349300 -37.459400
C -6.719300 -26.873200 -37.384500
O -6.619600 -24.402000 -38.742500
H -6.583500 -23.492100 -39.144900
H -6.576800 -30.310900 -38.949200
H -6.575400 -26.910000 -38.323000
O -6.566700 -29.384500 -38.561800
42
Fragment
H -11.306900 -25.525300 -44.679900
O -11.027300 -27.729900 -43.941400
O -11.025100 -25.499600 -43.731900
C -10.880100 -26.729000 -43.274700
C -10.542200 -26.765100 -41.815800
H -10.485000 -28.795700 -41.681800
H -10.478900 -24.755900 -41.520400
C -10.411800 -27.991900 -41.180600
C -10.407700 -25.597200 -41.084900
C -10.174900 -28.046000 -39.810700
O -10.170900 -30.422000 -39.839400
C -10.168200 -25.650000 -39.714900
O -10.092600 -23.288900 -39.628700
C -10.082600 -29.386500 -39.167900
C -10.069200 -24.349300 -38.989600
C -10.064500 -26.873200 -39.064500
O -9.964800 -24.402000 -37.706500
H -9.928700 -23.492100 -37.304100
H -9.922000 -30.310900 -37.499800
H -9.920600 -26.910000 -38.126000
O -9.912000 -29.384500 -37.887200
H -7.961700 -25.525300 -31.769100
O -7.682000 -27.729900 -32.507600
O -7.679900 -25.499600 -32.717100
C -7.534800 -26.729000 -33.174300
C -7.197000 -26.765100 -34.633200
H -7.139800 -28.795700 -34.767200
H -7.133700 -24.755900 -34.928600
C -7.066500 -27.991900 -35.268400
C -7.062500 -25.597200 -35.364100
C -6.829700 -28.046000 -36.638300
O -6.825600 -30.422000 -36.609600
C -6.823000 -25.650000 -36.734100
O -6.747400 -23.288900 -36.820300
C -6.737300 -29.386500 -37.281100
C -6.724000 -24.349300 -37.459400
C -6.719300 -26.873200 -37.384500
O -6.619600 -24.402000 -38.742500
H -6.583500 -23.492100 -39.144900
H -6.576800 -30.310900 -38.949200
H -6.575400 -26.910000 -38.323000
O -6.566700 -29.384500 -38.561800
