21
Fragment
H -11.306900 -25.525300 -44.679900
O -11.027300 -27.729900 -43.941400
O -11.025100 -25.499600 -43.731900
C -10.880100 -26.729000 -43.274700
C -10.542200 -26.765100 -41.815800
H -10.485000 -28.795700 -41.681800
H -10.478900 -24.755900 -41.520400
C -10.411800 -27.991900 -41.180600
C -10.407700 -25.597200 -41.084900
C -10.174900 -28.046000 -39.810700
O -10.170900 -30.422000 -39.839400
C -10.168200 -25.650000 -39.714900
O -10.092600 -23.288900 -39.628700
C -10.082600 -29.386500 -39.167900
C -10.069200 -24.349300 -38.989600
C -10.064500 -26.873200 -39.064500
O -9.964800 -24.402000 -37.706500
H -9.928700 -23.492100 -37.304100
H -9.922000 -30.310900 -37.499800
H -9.920600 -26.910000 -38.126000
O -9.912000 -29.384500 -37.887200
21
Fragment
O -13.504800 -37.863500 -37.887200
H -13.496100 -35.389000 -38.126000
H -13.494700 -38.790000 -37.499800
H -13.488000 -31.971100 -37.304100
O -13.451900 -32.881100 -37.706500
C -13.352200 -35.352200 -39.064500
C -13.347500 -32.828300 -38.989600
C -13.334200 -37.865600 -39.167900
O -13.324100 -31.767900 -39.628700
C -13.248500 -34.129000 -39.714900
O -13.245900 -38.901000 -39.839400
C -13.241800 -36.525000 -39.810700
C -13.009000 -34.076300 -41.084900
C -13.005000 -36.470900 -41.180600
H -12.937800 -33.235000 -41.520400
H -12.931700 -37.274800 -41.681800
C -12.874500 -35.244200 -41.815800
C -12.536700 -35.208100 -43.274700
O -12.391600 -33.978600 -43.731900
O -12.389500 -36.208900 -43.941400
H -12.109800 -34.004400 -44.679900
42
Fragment
H -11.306900 -25.525300 -44.679900
O -11.027300 -27.729900 -43.941400
O -11.025100 -25.499600 -43.731900
C -10.880100 -26.729000 -43.274700
C -10.542200 -26.765100 -41.815800
H -10.485000 -28.795700 -41.681800
H -10.478900 -24.755900 -41.520400
C -10.411800 -27.991900 -41.180600
C -10.407700 -25.597200 -41.084900
C -10.174900 -28.046000 -39.810700
O -10.170900 -30.422000 -39.839400
C -10.168200 -25.650000 -39.714900
O -10.092600 -23.288900 -39.628700
C -10.082600 -29.386500 -39.167900
C -10.069200 -24.349300 -38.989600
C -10.064500 -26.873200 -39.064500
O -9.964800 -24.402000 -37.706500
H -9.928700 -23.492100 -37.304100
H -9.922000 -30.310900 -37.499800
H -9.920600 -26.910000 -38.126000
O -9.912000 -29.384500 -37.887200
O -13.504800 -37.863500 -37.887200
H -13.496100 -35.389000 -38.126000
H -13.494700 -38.790000 -37.499800
H -13.488000 -31.971100 -37.304100
O -13.451900 -32.881100 -37.706500
C -13.352200 -35.352200 -39.064500
C -13.347500 -32.828300 -38.989600
C -13.334200 -37.865600 -39.167900
O -13.324100 -31.767900 -39.628700
C -13.248500 -34.129000 -39.714900
O -13.245900 -38.901000 -39.839400
C -13.241800 -36.525000 -39.810700
C -13.009000 -34.076300 -41.084900
C -13.005000 -36.470900 -41.180600
H -12.937800 -33.235000 -41.520400
H -12.931700 -37.274800 -41.681800
C -12.874500 -35.244200 -41.815800
C -12.536700 -35.208100 -43.274700
O -12.391600 -33.978600 -43.731900
O -12.389500 -36.208900 -43.941400
H -12.109800 -34.004400 -44.679900
