21
Fragment
H -11.306900 -25.525300 -44.679900
O -11.027300 -27.729900 -43.941400
O -11.025100 -25.499600 -43.731900
C -10.880100 -26.729000 -43.274700
C -10.542200 -26.765100 -41.815800
H -10.485000 -28.795700 -41.681800
H -10.478900 -24.755900 -41.520400
C -10.411800 -27.991900 -41.180600
C -10.407700 -25.597200 -41.084900
C -10.174900 -28.046000 -39.810700
O -10.170900 -30.422000 -39.839400
C -10.168200 -25.650000 -39.714900
O -10.092600 -23.288900 -39.628700
C -10.082600 -29.386500 -39.167900
C -10.069200 -24.349300 -38.989600
C -10.064500 -26.873200 -39.064500
O -9.964800 -24.402000 -37.706500
H -9.928700 -23.492100 -37.304100
H -9.922000 -30.310900 -37.499800
H -9.920600 -26.910000 -38.126000
O -9.912000 -29.384500 -37.887200
21
Fragment
O -13.504800 -20.905400 -37.887200
H -13.496100 -18.430900 -38.126000
H -13.494700 -21.831900 -37.499800
H -13.488000 -15.013000 -37.304100
O -13.451900 -15.923000 -37.706500
C -13.352200 -18.394100 -39.064500
C -13.347500 -15.870200 -38.989600
C -13.334200 -20.907500 -39.167900
O -13.324100 -14.809800 -39.628700
C -13.248500 -17.170900 -39.714900
O -13.245900 -21.942900 -39.839400
C -13.241800 -19.566900 -39.810700
C -13.009000 -17.118200 -41.084900
C -13.005000 -19.512800 -41.180600
H -12.937800 -16.276900 -41.520400
H -12.931700 -20.316700 -41.681800
C -12.874500 -18.286100 -41.815800
C -12.536700 -18.250000 -43.274700
O -12.391600 -17.020500 -43.731900
O -12.389500 -19.250800 -43.941400
H -12.109800 -17.046300 -44.679900
42
Fragment
H -11.306900 -25.525300 -44.679900
O -11.027300 -27.729900 -43.941400
O -11.025100 -25.499600 -43.731900
C -10.880100 -26.729000 -43.274700
C -10.542200 -26.765100 -41.815800
H -10.485000 -28.795700 -41.681800
H -10.478900 -24.755900 -41.520400
C -10.411800 -27.991900 -41.180600
C -10.407700 -25.597200 -41.084900
C -10.174900 -28.046000 -39.810700
O -10.170900 -30.422000 -39.839400
C -10.168200 -25.650000 -39.714900
O -10.092600 -23.288900 -39.628700
C -10.082600 -29.386500 -39.167900
C -10.069200 -24.349300 -38.989600
C -10.064500 -26.873200 -39.064500
O -9.964800 -24.402000 -37.706500
H -9.928700 -23.492100 -37.304100
H -9.922000 -30.310900 -37.499800
H -9.920600 -26.910000 -38.126000
O -9.912000 -29.384500 -37.887200
O -13.504800 -20.905400 -37.887200
H -13.496100 -18.430900 -38.126000
H -13.494700 -21.831900 -37.499800
H -13.488000 -15.013000 -37.304100
O -13.451900 -15.923000 -37.706500
C -13.352200 -18.394100 -39.064500
C -13.347500 -15.870200 -38.989600
C -13.334200 -20.907500 -39.167900
O -13.324100 -14.809800 -39.628700
C -13.248500 -17.170900 -39.714900
O -13.245900 -21.942900 -39.839400
C -13.241800 -19.566900 -39.810700
C -13.009000 -17.118200 -41.084900
C -13.005000 -19.512800 -41.180600
H -12.937800 -16.276900 -41.520400
H -12.931700 -20.316700 -41.681800
C -12.874500 -18.286100 -41.815800
C -12.536700 -18.250000 -43.274700
O -12.391600 -17.020500 -43.731900
O -12.389500 -19.250800 -43.941400
H -12.109800 -17.046300 -44.679900
