17
Fragment
O -8.451800 -16.659400 -29.717600
O -8.280400 -12.898100 -23.500400
H -8.108100 -13.302500 -28.183200
N -8.096300 -14.067700 -23.769500
H -8.094700 -12.549100 -25.891600
C -8.094300 -13.477900 -26.157600
C -8.090500 -14.458500 -25.194800
C -8.076600 -13.888700 -27.485000
C -8.074800 -15.793400 -25.490400
C -8.063600 -15.240200 -27.837100
C -8.060500 -16.187800 -26.819800
C -8.056400 -15.613300 -29.294900
H -8.043100 -16.386800 -24.838800
Cl -7.984000 -17.883700 -27.111900
O -7.891500 -14.935300 -22.944700
H -7.670200 -14.762200 -30.795600
O -7.612900 -14.638600 -30.037200
17
Fragment
O -10.358000 -8.905600 -19.314700
H -10.300700 -8.782000 -18.556300
O -10.079300 -8.608900 -26.407200
Cl -9.986900 -5.660500 -22.239900
H -9.927800 -7.157400 -24.513100
C -9.914500 -7.930900 -20.056900
C -9.910400 -7.356400 -22.532100
C -9.907300 -8.304000 -21.514800
C -9.896000 -7.750800 -23.861500
C -9.894300 -9.655500 -21.866800
C -9.880300 -9.085700 -24.157100
C -9.876500 -10.066300 -23.194200
H -9.876200 -10.995100 -23.460200
N -9.874600 -9.476500 -25.582400
H -9.862700 -10.241700 -21.168700
O -9.690500 -10.646100 -25.851500
O -9.519100 -6.884800 -19.634300
34
Fragment
O -8.451800 -16.659400 -29.717600
O -8.280400 -12.898100 -23.500400
H -8.108100 -13.302500 -28.183200
N -8.096300 -14.067700 -23.769500
H -8.094700 -12.549100 -25.891600
C -8.094300 -13.477900 -26.157600
C -8.090500 -14.458500 -25.194800
C -8.076600 -13.888700 -27.485000
C -8.074800 -15.793400 -25.490400
C -8.063600 -15.240200 -27.837100
C -8.060500 -16.187800 -26.819800
C -8.056400 -15.613300 -29.294900
H -8.043100 -16.386800 -24.838800
Cl -7.984000 -17.883700 -27.111900
O -7.891500 -14.935300 -22.944700
H -7.670200 -14.762200 -30.795600
O -7.612900 -14.638600 -30.037200
O -10.358000 -8.905600 -19.314700
H -10.300700 -8.782000 -18.556300
O -10.079300 -8.608900 -26.407200
Cl -9.986900 -5.660500 -22.239900
H -9.927800 -7.157400 -24.513100
C -9.914500 -7.930900 -20.056900
C -9.910400 -7.356400 -22.532100
C -9.907300 -8.304000 -21.514800
C -9.896000 -7.750800 -23.861500
C -9.894300 -9.655500 -21.866800
C -9.880300 -9.085700 -24.157100
C -9.876500 -10.066300 -23.194200
H -9.876200 -10.995100 -23.460200
N -9.874600 -9.476500 -25.582400
H -9.862700 -10.241700 -21.168700
O -9.690500 -10.646100 -25.851500
O -9.519100 -6.884800 -19.634300
