17
Fragment
O -8.451800 -16.659400 -29.717600
O -8.280400 -12.898100 -23.500400
H -8.108100 -13.302500 -28.183200
N -8.096300 -14.067700 -23.769500
H -8.094700 -12.549100 -25.891600
C -8.094300 -13.477900 -26.157600
C -8.090500 -14.458500 -25.194800
C -8.076600 -13.888700 -27.485000
C -8.074800 -15.793400 -25.490400
C -8.063600 -15.240200 -27.837100
C -8.060500 -16.187800 -26.819800
C -8.056400 -15.613300 -29.294900
H -8.043100 -16.386800 -24.838800
Cl -7.984000 -17.883700 -27.111900
O -7.891500 -14.935300 -22.944700
H -7.670200 -14.762200 -30.795600
O -7.612900 -14.638600 -30.037200
17
Fragment
O -11.446900 -12.770800 -37.942900
O -11.275500 -16.532100 -31.725700
H -11.103300 -16.127800 -36.408500
N -11.091400 -15.362600 -31.994800
H -11.089800 -16.881200 -34.116900
C -11.089500 -15.952400 -34.383000
C -11.085700 -14.971800 -33.420100
C -11.071700 -15.541500 -35.710400
C -11.070000 -13.636800 -33.715700
C -11.058700 -14.190100 -36.062400
C -11.055600 -13.242400 -35.045100
C -11.051500 -13.816900 -37.520200
H -11.038200 -13.043500 -33.064100
Cl -10.979100 -11.546500 -35.337300
O -10.886700 -14.495000 -31.170000
H -10.665300 -14.668000 -39.020900
O -10.608000 -14.791600 -38.262500
34
Fragment
O -8.451800 -16.659400 -29.717600
O -8.280400 -12.898100 -23.500400
H -8.108100 -13.302500 -28.183200
N -8.096300 -14.067700 -23.769500
H -8.094700 -12.549100 -25.891600
C -8.094300 -13.477900 -26.157600
C -8.090500 -14.458500 -25.194800
C -8.076600 -13.888700 -27.485000
C -8.074800 -15.793400 -25.490400
C -8.063600 -15.240200 -27.837100
C -8.060500 -16.187800 -26.819800
C -8.056400 -15.613300 -29.294900
H -8.043100 -16.386800 -24.838800
Cl -7.984000 -17.883700 -27.111900
O -7.891500 -14.935300 -22.944700
H -7.670200 -14.762200 -30.795600
O -7.612900 -14.638600 -30.037200
O -11.446900 -12.770800 -37.942900
O -11.275500 -16.532100 -31.725700
H -11.103300 -16.127800 -36.408500
N -11.091400 -15.362600 -31.994800
H -11.089800 -16.881200 -34.116900
C -11.089500 -15.952400 -34.383000
C -11.085700 -14.971800 -33.420100
C -11.071700 -15.541500 -35.710400
C -11.070000 -13.636800 -33.715700
C -11.058700 -14.190100 -36.062400
C -11.055600 -13.242400 -35.045100
C -11.051500 -13.816900 -37.520200
H -11.038200 -13.043500 -33.064100
Cl -10.979100 -11.546500 -35.337300
O -10.886700 -14.495000 -31.170000
H -10.665300 -14.668000 -39.020900
O -10.608000 -14.791600 -38.262500
