17
Fragment
O -8.451800 -16.659400 -29.717600
O -8.280400 -12.898100 -23.500400
H -8.108100 -13.302500 -28.183200
N -8.096300 -14.067700 -23.769500
H -8.094700 -12.549100 -25.891600
C -8.094300 -13.477900 -26.157600
C -8.090500 -14.458500 -25.194800
C -8.076600 -13.888700 -27.485000
C -8.074800 -15.793400 -25.490400
C -8.063600 -15.240200 -27.837100
C -8.060500 -16.187800 -26.819800
C -8.056400 -15.613300 -29.294900
H -8.043100 -16.386800 -24.838800
Cl -7.984000 -17.883700 -27.111900
O -7.891500 -14.935300 -22.944700
H -7.670200 -14.762200 -30.795600
O -7.612900 -14.638600 -30.037200
14
Fragment
H -7.823100 -17.305000 -34.743700
N -7.733600 -16.450300 -34.329500
H -7.719200 -15.280200 -36.887200
N -7.705900 -16.382100 -32.995700
C -7.641300 -15.209600 -34.880400
C -7.621500 -14.732800 -36.195000
N -7.598300 -15.131900 -32.652200
C -7.553900 -14.356100 -33.791400
C -7.524400 -13.389600 -36.342700
H -7.510300 -12.972900 -37.277100
C -7.458700 -12.987000 -33.964000
C -7.456500 -12.516100 -35.247100
H -7.438200 -12.384200 -33.279600
H -7.389200 -11.595500 -35.446200
31
Fragment
O -8.451800 -16.659400 -29.717600
O -8.280400 -12.898100 -23.500400
H -8.108100 -13.302500 -28.183200
N -8.096300 -14.067700 -23.769500
H -8.094700 -12.549100 -25.891600
C -8.094300 -13.477900 -26.157600
C -8.090500 -14.458500 -25.194800
C -8.076600 -13.888700 -27.485000
C -8.074800 -15.793400 -25.490400
C -8.063600 -15.240200 -27.837100
C -8.060500 -16.187800 -26.819800
C -8.056400 -15.613300 -29.294900
H -8.043100 -16.386800 -24.838800
Cl -7.984000 -17.883700 -27.111900
O -7.891500 -14.935300 -22.944700
H -7.670200 -14.762200 -30.795600
O -7.612900 -14.638600 -30.037200
H -7.823100 -17.305000 -34.743700
N -7.733600 -16.450300 -34.329500
H -7.719200 -15.280200 -36.887200
N -7.705900 -16.382100 -32.995700
C -7.641300 -15.209600 -34.880400
C -7.621500 -14.732800 -36.195000
N -7.598300 -15.131900 -32.652200
C -7.553900 -14.356100 -33.791400
C -7.524400 -13.389600 -36.342700
H -7.510300 -12.972900 -37.277100
C -7.458700 -12.987000 -33.964000
C -7.456500 -12.516100 -35.247100
H -7.438200 -12.384200 -33.279600
H -7.389200 -11.595500 -35.446200
