17
Fragment
O -8.451800 -16.659400 -29.717600
O -8.280400 -12.898100 -23.500400
H -8.108100 -13.302500 -28.183200
N -8.096300 -14.067700 -23.769500
H -8.094700 -12.549100 -25.891600
C -8.094300 -13.477900 -26.157600
C -8.090500 -14.458500 -25.194800
C -8.076600 -13.888700 -27.485000
C -8.074800 -15.793400 -25.490400
C -8.063600 -15.240200 -27.837100
C -8.060500 -16.187800 -26.819800
C -8.056400 -15.613300 -29.294900
H -8.043100 -16.386800 -24.838800
Cl -7.984000 -17.883700 -27.111900
O -7.891500 -14.935300 -22.944700
H -7.670200 -14.762200 -30.795600
O -7.612900 -14.638600 -30.037200
17
Fragment
O -5.456600 -12.770800 -21.492200
O -5.285200 -16.532100 -15.275100
H -5.113000 -16.127800 -19.957900
N -5.101100 -15.362600 -15.544200
H -5.099500 -16.881200 -17.666300
C -5.099200 -15.952400 -17.932300
C -5.095400 -14.971800 -16.969500
C -5.081400 -15.541500 -19.259700
C -5.079700 -13.636800 -17.265100
C -5.068400 -14.190100 -19.611800
C -5.065300 -13.242400 -18.594500
C -5.061300 -13.816900 -21.069600
H -5.047900 -13.043500 -16.613500
Cl -4.988800 -11.546500 -18.886600
O -4.896400 -14.495000 -14.719400
H -4.675100 -14.668000 -22.570300
O -4.617700 -14.791600 -21.811900
34
Fragment
O -8.451800 -16.659400 -29.717600
O -8.280400 -12.898100 -23.500400
H -8.108100 -13.302500 -28.183200
N -8.096300 -14.067700 -23.769500
H -8.094700 -12.549100 -25.891600
C -8.094300 -13.477900 -26.157600
C -8.090500 -14.458500 -25.194800
C -8.076600 -13.888700 -27.485000
C -8.074800 -15.793400 -25.490400
C -8.063600 -15.240200 -27.837100
C -8.060500 -16.187800 -26.819800
C -8.056400 -15.613300 -29.294900
H -8.043100 -16.386800 -24.838800
Cl -7.984000 -17.883700 -27.111900
O -7.891500 -14.935300 -22.944700
H -7.670200 -14.762200 -30.795600
O -7.612900 -14.638600 -30.037200
O -5.456600 -12.770800 -21.492200
O -5.285200 -16.532100 -15.275100
H -5.113000 -16.127800 -19.957900
N -5.101100 -15.362600 -15.544200
H -5.099500 -16.881200 -17.666300
C -5.099200 -15.952400 -17.932300
C -5.095400 -14.971800 -16.969500
C -5.081400 -15.541500 -19.259700
C -5.079700 -13.636800 -17.265100
C -5.068400 -14.190100 -19.611800
C -5.065300 -13.242400 -18.594500
C -5.061300 -13.816900 -21.069600
H -5.047900 -13.043500 -16.613500
Cl -4.988800 -11.546500 -18.886600
O -4.896400 -14.495000 -14.719400
H -4.675100 -14.668000 -22.570300
O -4.617700 -14.791600 -21.811900
