40
Fragment
H -14.731300 -14.046500 -19.424100
Br -14.533100 -13.754600 -22.289200
C -13.794900 -13.728800 -19.569500
C -13.337400 -13.515800 -20.834400
H -13.288800 -13.662100 -17.545800
C -12.956500 -13.505400 -18.475400
Br -12.788100 -6.203500 -25.607100
C -12.032500 -13.101400 -21.085600
H -11.949400 -8.813600 -25.339500
H -11.696800 -11.580000 -24.661100
C -11.691300 -13.074500 -18.683300
N -11.610000 -12.899700 -22.385000
H -11.279900 -4.295500 -24.097500
C -11.262500 -6.304300 -24.486400
C -11.158300 -12.851000 -19.982600
C -11.122500 -8.781600 -24.777100
C -10.799400 -5.157500 -23.944500
C -10.739700 -11.354900 -24.843400
C -10.636400 -7.546600 -24.265800
Br -10.595800 -12.752600 -17.159900
H -10.531800 -11.536100 -25.804900
C -10.433900 -9.920600 -24.478700
C -10.403600 -12.439900 -22.543100
C -9.868900 -12.342200 -20.231300
C -9.800400 -12.132300 -23.915100
C -9.631300 -5.195400 -23.157700
C -9.493200 -12.124400 -21.520400
C -9.466400 -7.582000 -23.452300
H -9.465600 -12.965000 -24.356300
H -9.273400 -4.348800 -22.765000
C -9.271700 -9.830900 -23.707300
H -9.242800 -12.145300 -19.477700
C -8.987100 -6.363600 -22.929500
N -8.779100 -8.743900 -23.180700
C -8.633000 -11.196500 -23.536400
C -8.222200 -11.531400 -22.084000
H -7.954600 -10.708200 -21.584200
H -7.862300 -11.313500 -24.162500
H -7.473000 -12.193900 -22.062400
Br -7.410100 -6.349100 -21.894800
40
Fragment
H -5.364100 -3.495100 -21.163400
Br -5.050500 -7.997900 -18.114600
N -4.454400 -6.124300 -20.423800
C -4.453500 -8.465100 -19.857700
H -4.438700 -10.466200 -19.471300
C -4.396600 -3.733600 -21.079200
H -4.329500 -2.404000 -19.438100
C -4.256400 -9.762900 -20.157300
C -4.220100 -7.420700 -20.793600
C -4.188300 -5.199000 -21.310000
H -4.124800 -4.038000 -24.049000
H -4.016900 -2.268300 -22.580100
H -3.811900 -3.905000 -19.055600
C -3.811800 -3.196200 -19.762000
C -3.793600 -10.133100 -21.441400
C -3.727300 -7.770400 -22.072600
C -3.670100 -5.456800 -22.605600
H -3.665800 -11.096900 -21.678600
C -3.564000 -3.087400 -22.228100
C -3.524300 -9.158700 -22.345400
C -3.448600 -6.736600 -22.981700
C -3.436400 -4.172600 -23.336200
H -3.091300 -6.944100 -23.893500
Br -2.801900 -9.687200 -24.021700
H -2.525200 -4.157800 -23.748100
C -2.413500 -2.808500 -20.129300
C -2.275100 -2.732200 -21.531900
H -1.400900 -2.574900 -18.355600
C -1.333800 -2.524300 -19.352700
N -1.170700 -2.389100 -22.170800
C -0.135100 -2.164900 -19.963500
C -0.091400 -2.079400 -21.395500
C 1.069000 -1.854600 -19.259600
Br 1.074200 -1.947100 -17.362700
C 1.125600 -1.688800 -22.002400
Br 1.222500 -1.507500 -23.887800
C 2.234400 -1.503400 -19.884400
C 2.246600 -1.417600 -21.285800
H 3.059800 -1.311300 -19.354000
H 3.087200 -1.153100 -21.760200
80
Fragment
H -14.731300 -14.046500 -19.424100
Br -14.533100 -13.754600 -22.289200
C -13.794900 -13.728800 -19.569500
C -13.337400 -13.515800 -20.834400
H -13.288800 -13.662100 -17.545800
C -12.956500 -13.505400 -18.475400
Br -12.788100 -6.203500 -25.607100
C -12.032500 -13.101400 -21.085600
H -11.949400 -8.813600 -25.339500
H -11.696800 -11.580000 -24.661100
C -11.691300 -13.074500 -18.683300
N -11.610000 -12.899700 -22.385000
H -11.279900 -4.295500 -24.097500
C -11.262500 -6.304300 -24.486400
C -11.158300 -12.851000 -19.982600
C -11.122500 -8.781600 -24.777100
C -10.799400 -5.157500 -23.944500
C -10.739700 -11.354900 -24.843400
C -10.636400 -7.546600 -24.265800
Br -10.595800 -12.752600 -17.159900
H -10.531800 -11.536100 -25.804900
C -10.433900 -9.920600 -24.478700
C -10.403600 -12.439900 -22.543100
C -9.868900 -12.342200 -20.231300
C -9.800400 -12.132300 -23.915100
C -9.631300 -5.195400 -23.157700
C -9.493200 -12.124400 -21.520400
C -9.466400 -7.582000 -23.452300
H -9.465600 -12.965000 -24.356300
H -9.273400 -4.348800 -22.765000
C -9.271700 -9.830900 -23.707300
H -9.242800 -12.145300 -19.477700
C -8.987100 -6.363600 -22.929500
N -8.779100 -8.743900 -23.180700
C -8.633000 -11.196500 -23.536400
C -8.222200 -11.531400 -22.084000
H -7.954600 -10.708200 -21.584200
H -7.862300 -11.313500 -24.162500
H -7.473000 -12.193900 -22.062400
Br -7.410100 -6.349100 -21.894800
H -5.364100 -3.495100 -21.163400
Br -5.050500 -7.997900 -18.114600
N -4.454400 -6.124300 -20.423800
C -4.453500 -8.465100 -19.857700
H -4.438700 -10.466200 -19.471300
C -4.396600 -3.733600 -21.079200
H -4.329500 -2.404000 -19.438100
C -4.256400 -9.762900 -20.157300
C -4.220100 -7.420700 -20.793600
C -4.188300 -5.199000 -21.310000
H -4.124800 -4.038000 -24.049000
H -4.016900 -2.268300 -22.580100
H -3.811900 -3.905000 -19.055600
C -3.811800 -3.196200 -19.762000
C -3.793600 -10.133100 -21.441400
C -3.727300 -7.770400 -22.072600
C -3.670100 -5.456800 -22.605600
H -3.665800 -11.096900 -21.678600
C -3.564000 -3.087400 -22.228100
C -3.524300 -9.158700 -22.345400
C -3.448600 -6.736600 -22.981700
C -3.436400 -4.172600 -23.336200
H -3.091300 -6.944100 -23.893500
Br -2.801900 -9.687200 -24.021700
H -2.525200 -4.157800 -23.748100
C -2.413500 -2.808500 -20.129300
C -2.275100 -2.732200 -21.531900
H -1.400900 -2.574900 -18.355600
C -1.333800 -2.524300 -19.352700
N -1.170700 -2.389100 -22.170800
C -0.135100 -2.164900 -19.963500
C -0.091400 -2.079400 -21.395500
C 1.069000 -1.854600 -19.259600
Br 1.074200 -1.947100 -17.362700
C 1.125600 -1.688800 -22.002400
Br 1.222500 -1.507500 -23.887800
C 2.234400 -1.503400 -19.884400
C 2.246600 -1.417600 -21.285800
H 3.059800 -1.311300 -19.354000
H 3.087200 -1.153100 -21.760200
