40
Fragment
H -14.731300 -14.046500 -19.424100
Br -14.533100 -13.754600 -22.289200
C -13.794900 -13.728800 -19.569500
C -13.337400 -13.515800 -20.834400
H -13.288800 -13.662100 -17.545800
C -12.956500 -13.505400 -18.475400
Br -12.788100 -6.203500 -25.607100
C -12.032500 -13.101400 -21.085600
H -11.949400 -8.813600 -25.339500
H -11.696800 -11.580000 -24.661100
C -11.691300 -13.074500 -18.683300
N -11.610000 -12.899700 -22.385000
H -11.279900 -4.295500 -24.097500
C -11.262500 -6.304300 -24.486400
C -11.158300 -12.851000 -19.982600
C -11.122500 -8.781600 -24.777100
C -10.799400 -5.157500 -23.944500
C -10.739700 -11.354900 -24.843400
C -10.636400 -7.546600 -24.265800
Br -10.595800 -12.752600 -17.159900
H -10.531800 -11.536100 -25.804900
C -10.433900 -9.920600 -24.478700
C -10.403600 -12.439900 -22.543100
C -9.868900 -12.342200 -20.231300
C -9.800400 -12.132300 -23.915100
C -9.631300 -5.195400 -23.157700
C -9.493200 -12.124400 -21.520400
C -9.466400 -7.582000 -23.452300
H -9.465600 -12.965000 -24.356300
H -9.273400 -4.348800 -22.765000
C -9.271700 -9.830900 -23.707300
H -9.242800 -12.145300 -19.477700
C -8.987100 -6.363600 -22.929500
N -8.779100 -8.743900 -23.180700
C -8.633000 -11.196500 -23.536400
C -8.222200 -11.531400 -22.084000
H -7.954600 -10.708200 -21.584200
H -7.862300 -11.313500 -24.162500
H -7.473000 -12.193900 -22.062400
Br -7.410100 -6.349100 -21.894800
40
Fragment
Br -15.348400 -15.879000 -16.359200
H -15.285600 -10.034100 -16.191700
H -14.896300 -10.914500 -14.091500
H -14.803900 -11.519900 -16.669800
C -14.536300 -10.696600 -16.170000
C -14.125500 -11.031500 -14.717600
N -13.979400 -13.484200 -15.073400
C -13.771400 -15.864400 -15.324600
H -13.515700 -10.082700 -18.776300
C -13.486800 -12.397100 -14.546700
H -13.485100 -17.879300 -15.489100
H -13.292900 -9.263000 -13.897700
C -13.292200 -14.646000 -14.801800
C -13.265300 -10.103700 -16.733600
C -13.127200 -17.032600 -15.096300
C -12.958100 -10.095700 -14.338900
C -12.889600 -9.885900 -18.022700
C -12.354900 -9.788200 -15.710900
C -12.324600 -12.307400 -13.775300
H -12.226700 -10.691900 -12.449100
Br -12.162700 -9.475400 -21.094200
C -12.122100 -14.681400 -13.988200
C -12.018800 -10.873100 -13.410600
C -11.959100 -17.070500 -14.309600
C -11.636000 -13.446500 -13.476900
C -11.600200 -9.377000 -18.271400
C -11.496000 -15.923700 -13.767600
H -11.478600 -17.932500 -14.156500
N -11.148500 -9.328400 -15.869000
C -11.067200 -9.153500 -19.570800
H -11.061800 -10.648100 -13.592900
H -10.809100 -13.414400 -12.914600
C -10.726000 -9.126700 -17.168400
Br -9.970400 -16.024600 -12.646900
C -9.802000 -8.722600 -19.778600
H -9.469800 -8.565900 -20.708200
C -9.421200 -8.712200 -17.419600
C -8.963600 -8.499200 -18.684500
Br -8.225500 -8.473400 -15.964800
H -8.027200 -8.181500 -18.829900
80
Fragment
H -14.731300 -14.046500 -19.424100
Br -14.533100 -13.754600 -22.289200
C -13.794900 -13.728800 -19.569500
C -13.337400 -13.515800 -20.834400
H -13.288800 -13.662100 -17.545800
C -12.956500 -13.505400 -18.475400
Br -12.788100 -6.203500 -25.607100
C -12.032500 -13.101400 -21.085600
H -11.949400 -8.813600 -25.339500
H -11.696800 -11.580000 -24.661100
C -11.691300 -13.074500 -18.683300
N -11.610000 -12.899700 -22.385000
H -11.279900 -4.295500 -24.097500
C -11.262500 -6.304300 -24.486400
C -11.158300 -12.851000 -19.982600
C -11.122500 -8.781600 -24.777100
C -10.799400 -5.157500 -23.944500
C -10.739700 -11.354900 -24.843400
C -10.636400 -7.546600 -24.265800
Br -10.595800 -12.752600 -17.159900
H -10.531800 -11.536100 -25.804900
C -10.433900 -9.920600 -24.478700
C -10.403600 -12.439900 -22.543100
C -9.868900 -12.342200 -20.231300
C -9.800400 -12.132300 -23.915100
C -9.631300 -5.195400 -23.157700
C -9.493200 -12.124400 -21.520400
C -9.466400 -7.582000 -23.452300
H -9.465600 -12.965000 -24.356300
H -9.273400 -4.348800 -22.765000
C -9.271700 -9.830900 -23.707300
H -9.242800 -12.145300 -19.477700
C -8.987100 -6.363600 -22.929500
N -8.779100 -8.743900 -23.180700
C -8.633000 -11.196500 -23.536400
C -8.222200 -11.531400 -22.084000
H -7.954600 -10.708200 -21.584200
H -7.862300 -11.313500 -24.162500
H -7.473000 -12.193900 -22.062400
Br -7.410100 -6.349100 -21.894800
Br -15.348400 -15.879000 -16.359200
H -15.285600 -10.034100 -16.191700
H -14.896300 -10.914500 -14.091500
H -14.803900 -11.519900 -16.669800
C -14.536300 -10.696600 -16.170000
C -14.125500 -11.031500 -14.717600
N -13.979400 -13.484200 -15.073400
C -13.771400 -15.864400 -15.324600
H -13.515700 -10.082700 -18.776300
C -13.486800 -12.397100 -14.546700
H -13.485100 -17.879300 -15.489100
H -13.292900 -9.263000 -13.897700
C -13.292200 -14.646000 -14.801800
C -13.265300 -10.103700 -16.733600
C -13.127200 -17.032600 -15.096300
C -12.958100 -10.095700 -14.338900
C -12.889600 -9.885900 -18.022700
C -12.354900 -9.788200 -15.710900
C -12.324600 -12.307400 -13.775300
H -12.226700 -10.691900 -12.449100
Br -12.162700 -9.475400 -21.094200
C -12.122100 -14.681400 -13.988200
C -12.018800 -10.873100 -13.410600
C -11.959100 -17.070500 -14.309600
C -11.636000 -13.446500 -13.476900
C -11.600200 -9.377000 -18.271400
C -11.496000 -15.923700 -13.767600
H -11.478600 -17.932500 -14.156500
N -11.148500 -9.328400 -15.869000
C -11.067200 -9.153500 -19.570800
H -11.061800 -10.648100 -13.592900
H -10.809100 -13.414400 -12.914600
C -10.726000 -9.126700 -17.168400
Br -9.970400 -16.024600 -12.646900
C -9.802000 -8.722600 -19.778600
H -9.469800 -8.565900 -20.708200
C -9.421200 -8.712200 -17.419600
C -8.963600 -8.499200 -18.684500
Br -8.225500 -8.473400 -15.964800
H -8.027200 -8.181500 -18.829900
