40
Fragment
H -14.731300 -14.046500 -19.424100
Br -14.533100 -13.754600 -22.289200
C -13.794900 -13.728800 -19.569500
C -13.337400 -13.515800 -20.834400
H -13.288800 -13.662100 -17.545800
C -12.956500 -13.505400 -18.475400
Br -12.788100 -6.203500 -25.607100
C -12.032500 -13.101400 -21.085600
H -11.949400 -8.813600 -25.339500
H -11.696800 -11.580000 -24.661100
C -11.691300 -13.074500 -18.683300
N -11.610000 -12.899700 -22.385000
H -11.279900 -4.295500 -24.097500
C -11.262500 -6.304300 -24.486400
C -11.158300 -12.851000 -19.982600
C -11.122500 -8.781600 -24.777100
C -10.799400 -5.157500 -23.944500
C -10.739700 -11.354900 -24.843400
C -10.636400 -7.546600 -24.265800
Br -10.595800 -12.752600 -17.159900
H -10.531800 -11.536100 -25.804900
C -10.433900 -9.920600 -24.478700
C -10.403600 -12.439900 -22.543100
C -9.868900 -12.342200 -20.231300
C -9.800400 -12.132300 -23.915100
C -9.631300 -5.195400 -23.157700
C -9.493200 -12.124400 -21.520400
C -9.466400 -7.582000 -23.452300
H -9.465600 -12.965000 -24.356300
H -9.273400 -4.348800 -22.765000
C -9.271700 -9.830900 -23.707300
H -9.242800 -12.145300 -19.477700
C -8.987100 -6.363600 -22.929500
N -8.779100 -8.743900 -23.180700
C -8.633000 -11.196500 -23.536400
C -8.222200 -11.531400 -22.084000
H -7.954600 -10.708200 -21.584200
H -7.862300 -11.313500 -24.162500
H -7.473000 -12.193900 -22.062400
Br -7.410100 -6.349100 -21.894800
40
Fragment
H -9.960600 -13.966400 -29.245200
H -9.933200 -13.808200 -31.651400
C -9.120000 -13.701900 -29.719500
C -9.107800 -13.616100 -31.120900
Br -8.096000 -13.612000 -27.117500
C -7.999000 -13.430700 -29.002900
Br -7.947700 -13.172400 -33.642600
C -7.942400 -13.264900 -31.745700
C -6.782100 -13.040100 -29.609900
C -6.738400 -12.954600 -31.041900
N -5.702700 -12.730400 -28.834600
C -5.539600 -12.595200 -31.652700
H -5.472600 -12.544600 -32.649800
C -4.598300 -12.387300 -29.473400
C -4.459900 -12.311000 -30.876100
H -4.348200 -10.961700 -27.257300
Br -4.071600 -5.432300 -26.983600
H -3.782200 -8.175400 -27.111900
C -3.437100 -10.946900 -27.669100
C -3.424800 -8.382900 -28.023600
C -3.349100 -5.960800 -28.659900
C -3.309400 -12.032100 -28.777200
H -3.207600 -4.022600 -29.326800
C -3.203300 -9.662700 -28.399800
C -3.146100 -7.349000 -28.932800
C -3.079900 -4.986400 -29.564000
C -3.061600 -11.923300 -31.243300
H -3.061600 -11.214500 -31.949800
H -2.856500 -12.851200 -28.425300
H -2.748600 -11.081500 -26.956300
C -2.685100 -9.920400 -29.695300
C -2.653300 -7.698800 -30.211700
C -2.617100 -5.356500 -30.848000
H -2.543900 -12.715400 -31.567200
C -2.476800 -11.385800 -29.926100
H -2.434800 -4.653300 -31.534100
C -2.419900 -6.654400 -31.147700
N -2.419100 -8.995200 -30.581500
Br -1.822900 -7.121600 -32.890800
H -1.509300 -11.624400 -29.842000
80
Fragment
H -14.731300 -14.046500 -19.424100
Br -14.533100 -13.754600 -22.289200
C -13.794900 -13.728800 -19.569500
C -13.337400 -13.515800 -20.834400
H -13.288800 -13.662100 -17.545800
C -12.956500 -13.505400 -18.475400
Br -12.788100 -6.203500 -25.607100
C -12.032500 -13.101400 -21.085600
H -11.949400 -8.813600 -25.339500
H -11.696800 -11.580000 -24.661100
C -11.691300 -13.074500 -18.683300
N -11.610000 -12.899700 -22.385000
H -11.279900 -4.295500 -24.097500
C -11.262500 -6.304300 -24.486400
C -11.158300 -12.851000 -19.982600
C -11.122500 -8.781600 -24.777100
C -10.799400 -5.157500 -23.944500
C -10.739700 -11.354900 -24.843400
C -10.636400 -7.546600 -24.265800
Br -10.595800 -12.752600 -17.159900
H -10.531800 -11.536100 -25.804900
C -10.433900 -9.920600 -24.478700
C -10.403600 -12.439900 -22.543100
C -9.868900 -12.342200 -20.231300
C -9.800400 -12.132300 -23.915100
C -9.631300 -5.195400 -23.157700
C -9.493200 -12.124400 -21.520400
C -9.466400 -7.582000 -23.452300
H -9.465600 -12.965000 -24.356300
H -9.273400 -4.348800 -22.765000
C -9.271700 -9.830900 -23.707300
H -9.242800 -12.145300 -19.477700
C -8.987100 -6.363600 -22.929500
N -8.779100 -8.743900 -23.180700
C -8.633000 -11.196500 -23.536400
C -8.222200 -11.531400 -22.084000
H -7.954600 -10.708200 -21.584200
H -7.862300 -11.313500 -24.162500
H -7.473000 -12.193900 -22.062400
Br -7.410100 -6.349100 -21.894800
H -9.960600 -13.966400 -29.245200
H -9.933200 -13.808200 -31.651400
C -9.120000 -13.701900 -29.719500
C -9.107800 -13.616100 -31.120900
Br -8.096000 -13.612000 -27.117500
C -7.999000 -13.430700 -29.002900
Br -7.947700 -13.172400 -33.642600
C -7.942400 -13.264900 -31.745700
C -6.782100 -13.040100 -29.609900
C -6.738400 -12.954600 -31.041900
N -5.702700 -12.730400 -28.834600
C -5.539600 -12.595200 -31.652700
H -5.472600 -12.544600 -32.649800
C -4.598300 -12.387300 -29.473400
C -4.459900 -12.311000 -30.876100
H -4.348200 -10.961700 -27.257300
Br -4.071600 -5.432300 -26.983600
H -3.782200 -8.175400 -27.111900
C -3.437100 -10.946900 -27.669100
C -3.424800 -8.382900 -28.023600
C -3.349100 -5.960800 -28.659900
C -3.309400 -12.032100 -28.777200
H -3.207600 -4.022600 -29.326800
C -3.203300 -9.662700 -28.399800
C -3.146100 -7.349000 -28.932800
C -3.079900 -4.986400 -29.564000
C -3.061600 -11.923300 -31.243300
H -3.061600 -11.214500 -31.949800
H -2.856500 -12.851200 -28.425300
H -2.748600 -11.081500 -26.956300
C -2.685100 -9.920400 -29.695300
C -2.653300 -7.698800 -30.211700
C -2.617100 -5.356500 -30.848000
H -2.543900 -12.715400 -31.567200
C -2.476800 -11.385800 -29.926100
H -2.434800 -4.653300 -31.534100
C -2.419900 -6.654400 -31.147700
N -2.419100 -8.995200 -30.581500
Br -1.822900 -7.121600 -32.890800
H -1.509300 -11.624400 -29.842000
