40
Fragment
H -14.731300 -14.046500 -19.424100
Br -14.533100 -13.754600 -22.289200
C -13.794900 -13.728800 -19.569500
C -13.337400 -13.515800 -20.834400
H -13.288800 -13.662100 -17.545800
C -12.956500 -13.505400 -18.475400
Br -12.788100 -6.203500 -25.607100
C -12.032500 -13.101400 -21.085600
H -11.949400 -8.813600 -25.339500
H -11.696800 -11.580000 -24.661100
C -11.691300 -13.074500 -18.683300
N -11.610000 -12.899700 -22.385000
H -11.279900 -4.295500 -24.097500
C -11.262500 -6.304300 -24.486400
C -11.158300 -12.851000 -19.982600
C -11.122500 -8.781600 -24.777100
C -10.799400 -5.157500 -23.944500
C -10.739700 -11.354900 -24.843400
C -10.636400 -7.546600 -24.265800
Br -10.595800 -12.752600 -17.159900
H -10.531800 -11.536100 -25.804900
C -10.433900 -9.920600 -24.478700
C -10.403600 -12.439900 -22.543100
C -9.868900 -12.342200 -20.231300
C -9.800400 -12.132300 -23.915100
C -9.631300 -5.195400 -23.157700
C -9.493200 -12.124400 -21.520400
C -9.466400 -7.582000 -23.452300
H -9.465600 -12.965000 -24.356300
H -9.273400 -4.348800 -22.765000
C -9.271700 -9.830900 -23.707300
H -9.242800 -12.145300 -19.477700
C -8.987100 -6.363600 -22.929500
N -8.779100 -8.743900 -23.180700
C -8.633000 -11.196500 -23.536400
C -8.222200 -11.531400 -22.084000
H -7.954600 -10.708200 -21.584200
H -7.862300 -11.313500 -24.162500
H -7.473000 -12.193900 -22.062400
Br -7.410100 -6.349100 -21.894800
10
Fragment
H -14.395800 0.689400 -25.437600
H -14.087000 -1.701100 -24.766900
H -13.770200 -3.022200 -26.553400
C -13.764700 -1.276200 -25.612300
C -13.586600 -2.042400 -26.628600
C -13.521500 0.229500 -25.594500
H -13.263700 -1.659900 -27.494400
C -12.950400 0.730300 -26.826300
H -12.894500 0.441600 -24.844700
N -12.518800 1.158100 -27.791500
50
Fragment
H -14.731300 -14.046500 -19.424100
Br -14.533100 -13.754600 -22.289200
C -13.794900 -13.728800 -19.569500
C -13.337400 -13.515800 -20.834400
H -13.288800 -13.662100 -17.545800
C -12.956500 -13.505400 -18.475400
Br -12.788100 -6.203500 -25.607100
C -12.032500 -13.101400 -21.085600
H -11.949400 -8.813600 -25.339500
H -11.696800 -11.580000 -24.661100
C -11.691300 -13.074500 -18.683300
N -11.610000 -12.899700 -22.385000
H -11.279900 -4.295500 -24.097500
C -11.262500 -6.304300 -24.486400
C -11.158300 -12.851000 -19.982600
C -11.122500 -8.781600 -24.777100
C -10.799400 -5.157500 -23.944500
C -10.739700 -11.354900 -24.843400
C -10.636400 -7.546600 -24.265800
Br -10.595800 -12.752600 -17.159900
H -10.531800 -11.536100 -25.804900
C -10.433900 -9.920600 -24.478700
C -10.403600 -12.439900 -22.543100
C -9.868900 -12.342200 -20.231300
C -9.800400 -12.132300 -23.915100
C -9.631300 -5.195400 -23.157700
C -9.493200 -12.124400 -21.520400
C -9.466400 -7.582000 -23.452300
H -9.465600 -12.965000 -24.356300
H -9.273400 -4.348800 -22.765000
C -9.271700 -9.830900 -23.707300
H -9.242800 -12.145300 -19.477700
C -8.987100 -6.363600 -22.929500
N -8.779100 -8.743900 -23.180700
C -8.633000 -11.196500 -23.536400
C -8.222200 -11.531400 -22.084000
H -7.954600 -10.708200 -21.584200
H -7.862300 -11.313500 -24.162500
H -7.473000 -12.193900 -22.062400
Br -7.410100 -6.349100 -21.894800
H -14.395800 0.689400 -25.437600
H -14.087000 -1.701100 -24.766900
H -13.770200 -3.022200 -26.553400
C -13.764700 -1.276200 -25.612300
C -13.586600 -2.042400 -26.628600
C -13.521500 0.229500 -25.594500
H -13.263700 -1.659900 -27.494400
C -12.950400 0.730300 -26.826300
H -12.894500 0.441600 -24.844700
N -12.518800 1.158100 -27.791500
