40
Fragment
H -14.731300 -14.046500 -19.424100
Br -14.533100 -13.754600 -22.289200
C -13.794900 -13.728800 -19.569500
C -13.337400 -13.515800 -20.834400
H -13.288800 -13.662100 -17.545800
C -12.956500 -13.505400 -18.475400
Br -12.788100 -6.203500 -25.607100
C -12.032500 -13.101400 -21.085600
H -11.949400 -8.813600 -25.339500
H -11.696800 -11.580000 -24.661100
C -11.691300 -13.074500 -18.683300
N -11.610000 -12.899700 -22.385000
H -11.279900 -4.295500 -24.097500
C -11.262500 -6.304300 -24.486400
C -11.158300 -12.851000 -19.982600
C -11.122500 -8.781600 -24.777100
C -10.799400 -5.157500 -23.944500
C -10.739700 -11.354900 -24.843400
C -10.636400 -7.546600 -24.265800
Br -10.595800 -12.752600 -17.159900
H -10.531800 -11.536100 -25.804900
C -10.433900 -9.920600 -24.478700
C -10.403600 -12.439900 -22.543100
C -9.868900 -12.342200 -20.231300
C -9.800400 -12.132300 -23.915100
C -9.631300 -5.195400 -23.157700
C -9.493200 -12.124400 -21.520400
C -9.466400 -7.582000 -23.452300
H -9.465600 -12.965000 -24.356300
H -9.273400 -4.348800 -22.765000
C -9.271700 -9.830900 -23.707300
H -9.242800 -12.145300 -19.477700
C -8.987100 -6.363600 -22.929500
N -8.779100 -8.743900 -23.180700
C -8.633000 -11.196500 -23.536400
C -8.222200 -11.531400 -22.084000
H -7.954600 -10.708200 -21.584200
H -7.862300 -11.313500 -24.162500
H -7.473000 -12.193900 -22.062400
Br -7.410100 -6.349100 -21.894800
40
Fragment
Br -11.409300 -8.770400 -29.110500
H -11.346500 -2.925600 -28.943000
H -10.957200 -3.806000 -26.842800
H -10.864800 -4.411300 -29.421200
C -10.597200 -3.588000 -28.921300
C -10.186400 -3.923000 -27.468900
N -10.040300 -6.375600 -27.824700
C -9.832300 -8.755900 -28.075900
H -9.576600 -2.974200 -31.527700
C -9.547700 -5.288500 -27.298100
H -9.546000 -10.770700 -28.240400
H -9.353800 -2.154500 -26.649000
C -9.353100 -7.537500 -27.553100
C -9.326200 -2.995100 -29.484900
C -9.188200 -9.924100 -27.847700
C -9.019000 -2.987200 -27.090200
C -8.950500 -2.777300 -30.774100
C -8.415900 -2.679600 -28.462300
C -8.385500 -5.198900 -26.526600
H -8.287600 -3.583400 -25.200500
Br -8.223700 -2.366900 -33.845500
C -8.183000 -7.572900 -26.739600
C -8.079700 -3.764600 -26.161900
C -8.020000 -9.962000 -27.060900
C -7.696900 -6.337900 -26.228200
C -7.661100 -2.268500 -31.022700
C -7.556900 -8.815200 -26.519000
H -7.539500 -10.824000 -26.907900
N -7.209500 -2.219800 -28.620400
C -7.128200 -2.045000 -32.322100
H -7.122700 -3.539500 -26.344300
H -6.870000 -6.305900 -25.665900
C -6.786900 -2.018100 -29.919700
Br -6.031300 -8.916000 -25.398200
C -5.862900 -1.614100 -32.529900
H -5.530700 -1.457400 -33.459500
C -5.482100 -1.603700 -30.170900
C -5.024500 -1.390700 -31.435900
Br -4.286400 -1.364900 -28.716100
H -4.088100 -1.073000 -31.581200
80
Fragment
H -14.731300 -14.046500 -19.424100
Br -14.533100 -13.754600 -22.289200
C -13.794900 -13.728800 -19.569500
C -13.337400 -13.515800 -20.834400
H -13.288800 -13.662100 -17.545800
C -12.956500 -13.505400 -18.475400
Br -12.788100 -6.203500 -25.607100
C -12.032500 -13.101400 -21.085600
H -11.949400 -8.813600 -25.339500
H -11.696800 -11.580000 -24.661100
C -11.691300 -13.074500 -18.683300
N -11.610000 -12.899700 -22.385000
H -11.279900 -4.295500 -24.097500
C -11.262500 -6.304300 -24.486400
C -11.158300 -12.851000 -19.982600
C -11.122500 -8.781600 -24.777100
C -10.799400 -5.157500 -23.944500
C -10.739700 -11.354900 -24.843400
C -10.636400 -7.546600 -24.265800
Br -10.595800 -12.752600 -17.159900
H -10.531800 -11.536100 -25.804900
C -10.433900 -9.920600 -24.478700
C -10.403600 -12.439900 -22.543100
C -9.868900 -12.342200 -20.231300
C -9.800400 -12.132300 -23.915100
C -9.631300 -5.195400 -23.157700
C -9.493200 -12.124400 -21.520400
C -9.466400 -7.582000 -23.452300
H -9.465600 -12.965000 -24.356300
H -9.273400 -4.348800 -22.765000
C -9.271700 -9.830900 -23.707300
H -9.242800 -12.145300 -19.477700
C -8.987100 -6.363600 -22.929500
N -8.779100 -8.743900 -23.180700
C -8.633000 -11.196500 -23.536400
C -8.222200 -11.531400 -22.084000
H -7.954600 -10.708200 -21.584200
H -7.862300 -11.313500 -24.162500
H -7.473000 -12.193900 -22.062400
Br -7.410100 -6.349100 -21.894800
Br -11.409300 -8.770400 -29.110500
H -11.346500 -2.925600 -28.943000
H -10.957200 -3.806000 -26.842800
H -10.864800 -4.411300 -29.421200
C -10.597200 -3.588000 -28.921300
C -10.186400 -3.923000 -27.468900
N -10.040300 -6.375600 -27.824700
C -9.832300 -8.755900 -28.075900
H -9.576600 -2.974200 -31.527700
C -9.547700 -5.288500 -27.298100
H -9.546000 -10.770700 -28.240400
H -9.353800 -2.154500 -26.649000
C -9.353100 -7.537500 -27.553100
C -9.326200 -2.995100 -29.484900
C -9.188200 -9.924100 -27.847700
C -9.019000 -2.987200 -27.090200
C -8.950500 -2.777300 -30.774100
C -8.415900 -2.679600 -28.462300
C -8.385500 -5.198900 -26.526600
H -8.287600 -3.583400 -25.200500
Br -8.223700 -2.366900 -33.845500
C -8.183000 -7.572900 -26.739600
C -8.079700 -3.764600 -26.161900
C -8.020000 -9.962000 -27.060900
C -7.696900 -6.337900 -26.228200
C -7.661100 -2.268500 -31.022700
C -7.556900 -8.815200 -26.519000
H -7.539500 -10.824000 -26.907900
N -7.209500 -2.219800 -28.620400
C -7.128200 -2.045000 -32.322100
H -7.122700 -3.539500 -26.344300
H -6.870000 -6.305900 -25.665900
C -6.786900 -2.018100 -29.919700
Br -6.031300 -8.916000 -25.398200
C -5.862900 -1.614100 -32.529900
H -5.530700 -1.457400 -33.459500
C -5.482100 -1.603700 -30.170900
C -5.024500 -1.390700 -31.435900
Br -4.286400 -1.364900 -28.716100
H -4.088100 -1.073000 -31.581200
