21
Fragment
H -6.543900 -9.091100 -23.825000
H -5.822900 -6.551600 -19.153200
C -5.616300 -8.822700 -23.992000
O -5.531400 -8.948700 -21.335000
H -5.503500 -8.610700 -24.942200
N -5.296900 -7.637900 -23.184900
C -5.293400 -7.843600 -21.800700
O -5.081500 -6.356300 -25.078000
C -5.029200 -6.439200 -23.848600
N -5.028100 -6.757900 -20.997700
H -5.014300 -9.555700 -23.748000
C -5.005400 -6.929900 -19.540000
H -4.953100 -7.884700 -19.323800
C -4.759800 -5.544900 -21.584400
C -4.748200 -5.385300 -22.944800
N -4.485300 -4.376900 -20.947900
N -4.442600 -4.064600 -23.153300
H -4.321500 -3.648900 -23.928400
C -4.301800 -3.512100 -21.942000
H -4.224300 -6.468200 -19.169100
H -4.092000 -2.595000 -21.806000
21
Fragment
H -3.297600 -1.165400 -23.825000
H -2.576600 1.374100 -19.153200
C -2.369900 -0.897000 -23.992000
O -2.285000 -1.023000 -21.335000
H -2.257100 -0.685000 -24.942200
N -2.050500 0.287800 -23.184900
C -2.047000 0.082100 -21.800700
O -1.835200 1.569400 -25.078000
C -1.782800 1.486500 -23.848600
N -1.781800 1.167800 -20.997700
H -1.768000 -1.630000 -23.748000
C -1.759000 0.995800 -19.540000
H -1.706700 0.041100 -19.323800
C -1.513400 2.380800 -21.584400
C -1.501800 2.540500 -22.944800
N -1.239000 3.548900 -20.947900
N -1.196300 3.861200 -23.153300
H -1.075100 4.276800 -23.928400
C -1.055400 4.413600 -21.942000
H -0.978000 1.457500 -19.169100
H -0.845700 5.330700 -21.806000
42
Fragment
H -6.543900 -9.091100 -23.825000
H -5.822900 -6.551600 -19.153200
C -5.616300 -8.822700 -23.992000
O -5.531400 -8.948700 -21.335000
H -5.503500 -8.610700 -24.942200
N -5.296900 -7.637900 -23.184900
C -5.293400 -7.843600 -21.800700
O -5.081500 -6.356300 -25.078000
C -5.029200 -6.439200 -23.848600
N -5.028100 -6.757900 -20.997700
H -5.014300 -9.555700 -23.748000
C -5.005400 -6.929900 -19.540000
H -4.953100 -7.884700 -19.323800
C -4.759800 -5.544900 -21.584400
C -4.748200 -5.385300 -22.944800
N -4.485300 -4.376900 -20.947900
N -4.442600 -4.064600 -23.153300
H -4.321500 -3.648900 -23.928400
C -4.301800 -3.512100 -21.942000
H -4.224300 -6.468200 -19.169100
H -4.092000 -2.595000 -21.806000
H -3.297600 -1.165400 -23.825000
H -2.576600 1.374100 -19.153200
C -2.369900 -0.897000 -23.992000
O -2.285000 -1.023000 -21.335000
H -2.257100 -0.685000 -24.942200
N -2.050500 0.287800 -23.184900
C -2.047000 0.082100 -21.800700
O -1.835200 1.569400 -25.078000
C -1.782800 1.486500 -23.848600
N -1.781800 1.167800 -20.997700
H -1.768000 -1.630000 -23.748000
C -1.759000 0.995800 -19.540000
H -1.706700 0.041100 -19.323800
C -1.513400 2.380800 -21.584400
C -1.501800 2.540500 -22.944800
N -1.239000 3.548900 -20.947900
N -1.196300 3.861200 -23.153300
H -1.075100 4.276800 -23.928400
C -1.055400 4.413600 -21.942000
H -0.978000 1.457500 -19.169100
H -0.845700 5.330700 -21.806000
