21
Fragment
H -6.543900 -9.091100 -23.825000
H -5.822900 -6.551600 -19.153200
C -5.616300 -8.822700 -23.992000
O -5.531400 -8.948700 -21.335000
H -5.503500 -8.610700 -24.942200
N -5.296900 -7.637900 -23.184900
C -5.293400 -7.843600 -21.800700
O -5.081500 -6.356300 -25.078000
C -5.029200 -6.439200 -23.848600
N -5.028100 -6.757900 -20.997700
H -5.014300 -9.555700 -23.748000
C -5.005400 -6.929900 -19.540000
H -4.953100 -7.884700 -19.323800
C -4.759800 -5.544900 -21.584400
C -4.748200 -5.385300 -22.944800
N -4.485300 -4.376900 -20.947900
N -4.442600 -4.064600 -23.153300
H -4.321500 -3.648900 -23.928400
C -4.301800 -3.512100 -21.942000
H -4.224300 -6.468200 -19.169100
H -4.092000 -2.595000 -21.806000
21
Fragment
H -9.790300 -17.016800 -23.825000
H -9.069300 -14.477300 -19.153200
C -8.862600 -16.748400 -23.992000
O -8.777700 -16.874500 -21.335000
H -8.749800 -16.536400 -24.942200
N -8.543300 -15.563600 -23.184900
C -8.539700 -15.769300 -21.800700
O -8.327900 -14.282000 -25.078000
C -8.275500 -14.364900 -23.848600
N -8.274500 -14.683600 -20.997700
H -8.260700 -17.481500 -23.748000
C -8.251700 -14.855600 -19.540000
H -8.199400 -15.810400 -19.323800
C -8.006200 -13.470600 -21.584400
C -7.994500 -13.311000 -22.944800
N -7.731700 -12.302600 -20.947900
N -7.689000 -11.990300 -23.153300
H -7.567900 -11.574600 -23.928400
C -7.548100 -11.437800 -21.942000
H -7.470700 -14.393900 -19.169100
H -7.338400 -10.520700 -21.806000
42
Fragment
H -6.543900 -9.091100 -23.825000
H -5.822900 -6.551600 -19.153200
C -5.616300 -8.822700 -23.992000
O -5.531400 -8.948700 -21.335000
H -5.503500 -8.610700 -24.942200
N -5.296900 -7.637900 -23.184900
C -5.293400 -7.843600 -21.800700
O -5.081500 -6.356300 -25.078000
C -5.029200 -6.439200 -23.848600
N -5.028100 -6.757900 -20.997700
H -5.014300 -9.555700 -23.748000
C -5.005400 -6.929900 -19.540000
H -4.953100 -7.884700 -19.323800
C -4.759800 -5.544900 -21.584400
C -4.748200 -5.385300 -22.944800
N -4.485300 -4.376900 -20.947900
N -4.442600 -4.064600 -23.153300
H -4.321500 -3.648900 -23.928400
C -4.301800 -3.512100 -21.942000
H -4.224300 -6.468200 -19.169100
H -4.092000 -2.595000 -21.806000
H -9.790300 -17.016800 -23.825000
H -9.069300 -14.477300 -19.153200
C -8.862600 -16.748400 -23.992000
O -8.777700 -16.874500 -21.335000
H -8.749800 -16.536400 -24.942200
N -8.543300 -15.563600 -23.184900
C -8.539700 -15.769300 -21.800700
O -8.327900 -14.282000 -25.078000
C -8.275500 -14.364900 -23.848600
N -8.274500 -14.683600 -20.997700
H -8.260700 -17.481500 -23.748000
C -8.251700 -14.855600 -19.540000
H -8.199400 -15.810400 -19.323800
C -8.006200 -13.470600 -21.584400
C -7.994500 -13.311000 -22.944800
N -7.731700 -12.302600 -20.947900
N -7.689000 -11.990300 -23.153300
H -7.567900 -11.574600 -23.928400
C -7.548100 -11.437800 -21.942000
H -7.470700 -14.393900 -19.169100
H -7.338400 -10.520700 -21.806000
