21
Fragment
H -6.543900 -9.091100 -23.825000
H -5.822900 -6.551600 -19.153200
C -5.616300 -8.822700 -23.992000
O -5.531400 -8.948700 -21.335000
H -5.503500 -8.610700 -24.942200
N -5.296900 -7.637900 -23.184900
C -5.293400 -7.843600 -21.800700
O -5.081500 -6.356300 -25.078000
C -5.029200 -6.439200 -23.848600
N -5.028100 -6.757900 -20.997700
H -5.014300 -9.555700 -23.748000
C -5.005400 -6.929900 -19.540000
H -4.953100 -7.884700 -19.323800
C -4.759800 -5.544900 -21.584400
C -4.748200 -5.385300 -22.944800
N -4.485300 -4.376900 -20.947900
N -4.442600 -4.064600 -23.153300
H -4.321500 -3.648900 -23.928400
C -4.301800 -3.512100 -21.942000
H -4.224300 -6.468200 -19.169100
H -4.092000 -2.595000 -21.806000
17
Fragment
H -6.087700 -1.198400 -23.207900
H -6.075000 -1.511400 -20.831300
C -5.813300 -0.297300 -23.085100
N -5.800500 -0.610200 -20.708400
H -5.759300 0.177800 -25.051600
H -5.660300 -0.271600 -19.832000
C -5.619200 0.516400 -24.175200
C -5.606900 0.201100 -21.795300
C -5.214600 1.843900 -23.990700
O -5.209900 2.344200 -26.309400
C -5.203000 1.527200 -21.614600
H -5.062700 1.865800 -20.738100
C -5.008800 2.340800 -22.704600
C -5.007300 2.712700 -25.154500
H -4.734400 3.242000 -22.581800
O -4.584300 3.923500 -24.851100
H -4.422200 4.556700 -25.540600
38
Fragment
H -6.543900 -9.091100 -23.825000
H -5.822900 -6.551600 -19.153200
C -5.616300 -8.822700 -23.992000
O -5.531400 -8.948700 -21.335000
H -5.503500 -8.610700 -24.942200
N -5.296900 -7.637900 -23.184900
C -5.293400 -7.843600 -21.800700
O -5.081500 -6.356300 -25.078000
C -5.029200 -6.439200 -23.848600
N -5.028100 -6.757900 -20.997700
H -5.014300 -9.555700 -23.748000
C -5.005400 -6.929900 -19.540000
H -4.953100 -7.884700 -19.323800
C -4.759800 -5.544900 -21.584400
C -4.748200 -5.385300 -22.944800
N -4.485300 -4.376900 -20.947900
N -4.442600 -4.064600 -23.153300
H -4.321500 -3.648900 -23.928400
C -4.301800 -3.512100 -21.942000
H -4.224300 -6.468200 -19.169100
H -4.092000 -2.595000 -21.806000
H -6.087700 -1.198400 -23.207900
H -6.075000 -1.511400 -20.831300
C -5.813300 -0.297300 -23.085100
N -5.800500 -0.610200 -20.708400
H -5.759300 0.177800 -25.051600
H -5.660300 -0.271600 -19.832000
C -5.619200 0.516400 -24.175200
C -5.606900 0.201100 -21.795300
C -5.214600 1.843900 -23.990700
O -5.209900 2.344200 -26.309400
C -5.203000 1.527200 -21.614600
H -5.062700 1.865800 -20.738100
C -5.008800 2.340800 -22.704600
C -5.007300 2.712700 -25.154500
H -4.734400 3.242000 -22.581800
O -4.584300 3.923500 -24.851100
H -4.422200 4.556700 -25.540600
