21
Fragment
H -6.543900 -9.091100 -23.825000
H -5.822900 -6.551600 -19.153200
C -5.616300 -8.822700 -23.992000
O -5.531400 -8.948700 -21.335000
H -5.503500 -8.610700 -24.942200
N -5.296900 -7.637900 -23.184900
C -5.293400 -7.843600 -21.800700
O -5.081500 -6.356300 -25.078000
C -5.029200 -6.439200 -23.848600
N -5.028100 -6.757900 -20.997700
H -5.014300 -9.555700 -23.748000
C -5.005400 -6.929900 -19.540000
H -4.953100 -7.884700 -19.323800
C -4.759800 -5.544900 -21.584400
C -4.748200 -5.385300 -22.944800
N -4.485300 -4.376900 -20.947900
N -4.442600 -4.064600 -23.153300
H -4.321500 -3.648900 -23.928400
C -4.301800 -3.512100 -21.942000
H -4.224300 -6.468200 -19.169100
H -4.092000 -2.595000 -21.806000
17
Fragment
H -5.083200 -5.149900 -26.372200
O -4.921000 -4.516800 -27.061800
H -4.771000 -3.835200 -29.331000
C -4.498000 -3.305900 -26.758300
C -4.496500 -2.934100 -29.208200
H -4.442600 -2.459000 -31.174700
C -4.302400 -2.120400 -30.298300
O -4.295400 -2.937500 -25.603400
C -4.290800 -2.437200 -27.922100
C -3.898400 -0.794300 -30.117500
C -3.886200 -1.109700 -27.737700
H -3.845000 -0.321600 -32.080800
H -3.746100 -0.771000 -26.861300
N -3.704800 0.016900 -31.204400
C -3.692100 -0.296000 -28.827700
H -3.430400 0.918100 -31.081500
H -3.417600 0.605100 -28.704900
38
Fragment
H -6.543900 -9.091100 -23.825000
H -5.822900 -6.551600 -19.153200
C -5.616300 -8.822700 -23.992000
O -5.531400 -8.948700 -21.335000
H -5.503500 -8.610700 -24.942200
N -5.296900 -7.637900 -23.184900
C -5.293400 -7.843600 -21.800700
O -5.081500 -6.356300 -25.078000
C -5.029200 -6.439200 -23.848600
N -5.028100 -6.757900 -20.997700
H -5.014300 -9.555700 -23.748000
C -5.005400 -6.929900 -19.540000
H -4.953100 -7.884700 -19.323800
C -4.759800 -5.544900 -21.584400
C -4.748200 -5.385300 -22.944800
N -4.485300 -4.376900 -20.947900
N -4.442600 -4.064600 -23.153300
H -4.321500 -3.648900 -23.928400
C -4.301800 -3.512100 -21.942000
H -4.224300 -6.468200 -19.169100
H -4.092000 -2.595000 -21.806000
H -5.083200 -5.149900 -26.372200
O -4.921000 -4.516800 -27.061800
H -4.771000 -3.835200 -29.331000
C -4.498000 -3.305900 -26.758300
C -4.496500 -2.934100 -29.208200
H -4.442600 -2.459000 -31.174700
C -4.302400 -2.120400 -30.298300
O -4.295400 -2.937500 -25.603400
C -4.290800 -2.437200 -27.922100
C -3.898400 -0.794300 -30.117500
C -3.886200 -1.109700 -27.737700
H -3.845000 -0.321600 -32.080800
H -3.746100 -0.771000 -26.861300
N -3.704800 0.016900 -31.204400
C -3.692100 -0.296000 -28.827700
H -3.430400 0.918100 -31.081500
H -3.417600 0.605100 -28.704900
