21
Fragment
H -6.543900 -9.091100 -23.825000
H -5.822900 -6.551600 -19.153200
C -5.616300 -8.822700 -23.992000
O -5.531400 -8.948700 -21.335000
H -5.503500 -8.610700 -24.942200
N -5.296900 -7.637900 -23.184900
C -5.293400 -7.843600 -21.800700
O -5.081500 -6.356300 -25.078000
C -5.029200 -6.439200 -23.848600
N -5.028100 -6.757900 -20.997700
H -5.014300 -9.555700 -23.748000
C -5.005400 -6.929900 -19.540000
H -4.953100 -7.884700 -19.323800
C -4.759800 -5.544900 -21.584400
C -4.748200 -5.385300 -22.944800
N -4.485300 -4.376900 -20.947900
N -4.442600 -4.064600 -23.153300
H -4.321500 -3.648900 -23.928400
C -4.301800 -3.512100 -21.942000
H -4.224300 -6.468200 -19.169100
H -4.092000 -2.595000 -21.806000
21
Fragment
H -4.885400 -13.849700 -30.106800
H -4.753100 -9.976500 -32.743800
C -4.675700 -12.932600 -29.970800
H -4.655900 -12.795800 -27.984400
N -4.534800 -12.380100 -28.759600
N -4.492100 -12.067900 -30.965000
C -4.229300 -11.059400 -28.968000
C -4.217600 -10.899800 -30.328400
H -4.024400 -8.560100 -32.589100
C -3.972100 -9.514800 -32.372800
H -3.963100 -6.889000 -28.164800
N -3.949300 -9.686800 -30.915100
C -3.948300 -10.005500 -28.064200
O -3.895900 -10.088400 -26.834800
C -3.684100 -8.601100 -30.112200
N -3.680500 -8.806800 -28.727900
H -3.474000 -7.834000 -26.970700
O -3.446100 -7.496000 -30.577800
C -3.361200 -7.622000 -27.920800
H -3.154500 -9.893100 -32.759600
H -2.433500 -7.353600 -28.087800
42
Fragment
H -6.543900 -9.091100 -23.825000
H -5.822900 -6.551600 -19.153200
C -5.616300 -8.822700 -23.992000
O -5.531400 -8.948700 -21.335000
H -5.503500 -8.610700 -24.942200
N -5.296900 -7.637900 -23.184900
C -5.293400 -7.843600 -21.800700
O -5.081500 -6.356300 -25.078000
C -5.029200 -6.439200 -23.848600
N -5.028100 -6.757900 -20.997700
H -5.014300 -9.555700 -23.748000
C -5.005400 -6.929900 -19.540000
H -4.953100 -7.884700 -19.323800
C -4.759800 -5.544900 -21.584400
C -4.748200 -5.385300 -22.944800
N -4.485300 -4.376900 -20.947900
N -4.442600 -4.064600 -23.153300
H -4.321500 -3.648900 -23.928400
C -4.301800 -3.512100 -21.942000
H -4.224300 -6.468200 -19.169100
H -4.092000 -2.595000 -21.806000
H -4.885400 -13.849700 -30.106800
H -4.753100 -9.976500 -32.743800
C -4.675700 -12.932600 -29.970800
H -4.655900 -12.795800 -27.984400
N -4.534800 -12.380100 -28.759600
N -4.492100 -12.067900 -30.965000
C -4.229300 -11.059400 -28.968000
C -4.217600 -10.899800 -30.328400
H -4.024400 -8.560100 -32.589100
C -3.972100 -9.514800 -32.372800
H -3.963100 -6.889000 -28.164800
N -3.949300 -9.686800 -30.915100
C -3.948300 -10.005500 -28.064200
O -3.895900 -10.088400 -26.834800
C -3.684100 -8.601100 -30.112200
N -3.680500 -8.806800 -28.727900
H -3.474000 -7.834000 -26.970700
O -3.446100 -7.496000 -30.577800
C -3.361200 -7.622000 -27.920800
H -3.154500 -9.893100 -32.759600
H -2.433500 -7.353600 -28.087800
