38
Fragment
H -43.165800 -23.508000 -17.459000
H -42.558300 -25.946900 -17.685400
C -42.247500 -23.386700 -17.382200
N -41.656600 -22.196100 -17.203100
C -41.611900 -25.821700 -17.597100
N -41.323900 -24.403800 -17.435900
H -41.295300 -26.301600 -16.828300
H -41.169700 -26.150000 -18.383900
C -40.339800 -22.477000 -17.144300
H -40.175300 -19.835000 -17.584300
H -40.094000 -19.967200 -16.024800
C -40.065500 -23.801100 -17.282400
C -39.629600 -20.123100 -16.850000
N -39.345300 -21.542000 -16.984300
H -38.805600 -19.630700 -16.851300
C -38.779200 -24.347400 -17.301600
O -38.450300 -25.523700 -17.467200
C -38.003500 -21.997400 -16.981800
N -37.781800 -23.364700 -17.111000
O -37.072100 -21.210500 -16.879400
C -36.388000 -23.803100 -17.017600
H -36.369200 -24.711600 -16.679900
H -36.052600 -24.356000 -18.971100
H -35.927800 -23.241000 -16.374100
H -35.669700 -22.857900 -18.698600
C -35.630400 -23.757300 -18.335300
C -34.177400 -24.163000 -18.147200
H -34.143900 -25.060700 -17.782600
H -33.840400 -24.668100 -20.107200
H -33.762000 -23.566200 -17.505000
C -33.380000 -24.125100 -19.448300
H -33.370500 -23.212600 -19.777100
C -31.967400 -24.606800 -19.335700
O -31.565700 -25.193200 -18.351900
H -31.502300 -24.601000 -21.311000
C -31.066300 -24.331900 -20.498700
H -30.870400 -23.393600 -20.537000
H -30.250700 -24.825800 -20.395000
15
Fragment
H -43.549800 -19.924100 -20.789100
O -43.007000 -20.538300 -20.789100
H -41.912900 -22.721000 -20.670100
C -41.803200 -20.059700 -20.557500
O -41.594500 -18.873300 -20.374600
C -41.027500 -22.441000 -20.620200
C -40.732200 -21.084200 -20.546000
H -40.212700 -24.279500 -20.666200
C -40.010000 -23.373000 -20.620200
C -39.414100 -20.691000 -20.474300
H -39.207600 -19.785800 -20.418100
C -38.701000 -22.965600 -20.553700
C -38.402300 -21.612800 -20.483300
H -38.015700 -23.595100 -20.553700
H -37.516100 -21.332800 -20.443600
53
Fragment
H -43.165800 -23.508000 -17.459000
H -42.558300 -25.946900 -17.685400
C -42.247500 -23.386700 -17.382200
N -41.656600 -22.196100 -17.203100
C -41.611900 -25.821700 -17.597100
N -41.323900 -24.403800 -17.435900
H -41.295300 -26.301600 -16.828300
H -41.169700 -26.150000 -18.383900
C -40.339800 -22.477000 -17.144300
H -40.175300 -19.835000 -17.584300
H -40.094000 -19.967200 -16.024800
C -40.065500 -23.801100 -17.282400
C -39.629600 -20.123100 -16.850000
N -39.345300 -21.542000 -16.984300
H -38.805600 -19.630700 -16.851300
C -38.779200 -24.347400 -17.301600
O -38.450300 -25.523700 -17.467200
C -38.003500 -21.997400 -16.981800
N -37.781800 -23.364700 -17.111000
O -37.072100 -21.210500 -16.879400
C -36.388000 -23.803100 -17.017600
H -36.369200 -24.711600 -16.679900
H -36.052600 -24.356000 -18.971100
H -35.927800 -23.241000 -16.374100
H -35.669700 -22.857900 -18.698600
C -35.630400 -23.757300 -18.335300
C -34.177400 -24.163000 -18.147200
H -34.143900 -25.060700 -17.782600
H -33.840400 -24.668100 -20.107200
H -33.762000 -23.566200 -17.505000
C -33.380000 -24.125100 -19.448300
H -33.370500 -23.212600 -19.777100
C -31.967400 -24.606800 -19.335700
O -31.565700 -25.193200 -18.351900
H -31.502300 -24.601000 -21.311000
C -31.066300 -24.331900 -20.498700
H -30.870400 -23.393600 -20.537000
H -30.250700 -24.825800 -20.395000
H -43.549800 -19.924100 -20.789100
O -43.007000 -20.538300 -20.789100
H -41.912900 -22.721000 -20.670100
C -41.803200 -20.059700 -20.557500
O -41.594500 -18.873300 -20.374600
C -41.027500 -22.441000 -20.620200
C -40.732200 -21.084200 -20.546000
H -40.212700 -24.279500 -20.666200
C -40.010000 -23.373000 -20.620200
C -39.414100 -20.691000 -20.474300
H -39.207600 -19.785800 -20.418100
C -38.701000 -22.965600 -20.553700
C -38.402300 -21.612800 -20.483300
H -38.015700 -23.595100 -20.553700
H -37.516100 -21.332800 -20.443600
