21
Fragment
H -30.075000 -18.393500 -22.104400
H -29.861600 -16.840900 -22.133500
C -29.464000 -17.690200 -22.337300
H -29.267500 -17.734700 -23.275400
C -28.205900 -17.848400 -21.558700
O -27.984700 -18.610000 -20.666400
O -27.265500 -16.993400 -22.038700
H -26.756100 -19.620500 -24.149000
O -26.664500 -19.078100 -23.540600
H -26.191000 -15.680600 -20.172500
C -25.959700 -17.122100 -21.556200
C -25.576700 -16.274500 -20.539600
C -25.390500 -18.969100 -23.237400
C -25.072900 -18.014500 -22.141300
O -24.521300 -19.600400 -23.807600
C -24.293300 -16.305300 -20.071200
H -24.036000 -15.743300 -19.376100
C -23.772800 -18.003000 -21.660000
C -23.381300 -17.174100 -20.635800
H -23.145900 -18.573700 -22.042300
H -22.504700 -17.199000 -20.323100
38
Fragment
H -31.854400 -20.136000 -20.083800
O -31.272200 -21.066900 -17.890100
C -30.973300 -20.509000 -20.162300
H -30.953800 -21.133800 -20.890300
C -30.614900 -21.209400 -18.893800
H -30.341400 -19.804700 -20.328200
H -29.725700 -22.901900 -17.083400
H -29.650900 -22.874400 -19.512900
C -29.430700 -22.110100 -18.957100
C -28.956800 -22.612100 -17.598700
H -28.752500 -20.764600 -16.726400
H -28.701300 -21.635600 -19.385000
O -28.676900 -19.968600 -13.921100
H -28.642300 -22.166600 -14.907200
H -28.381000 -23.382300 -17.730300
C -28.202500 -21.559300 -16.811100
H -28.074600 -18.147800 -12.571400
C -27.834100 -22.064500 -15.432500
C -27.465700 -20.121400 -13.988000
H -27.422300 -22.939100 -15.516100
H -27.395200 -21.314900 -17.291000
C -27.115500 -18.146000 -12.538500
N -26.909200 -21.165800 -14.721100
H -26.825300 -18.228200 -11.626900
H -26.784200 -17.322500 -12.905600
N -26.596400 -19.277400 -13.322800
C -25.539800 -21.439200 -14.875500
C -25.246700 -19.509700 -13.410000
O -25.150100 -22.383700 -15.553800
C -24.730000 -20.529700 -14.144800
N -24.264900 -18.781700 -12.809900
N -23.357200 -20.439800 -13.992200
C -23.144900 -19.385400 -13.195500
H -22.463800 -22.194200 -14.285500
H -22.425600 -21.263600 -15.546500
C -22.343400 -21.291200 -14.589400
H -22.297300 -19.102200 -12.938500
H -21.472300 -20.979600 -14.333700
59
Fragment
H -30.075000 -18.393500 -22.104400
H -29.861600 -16.840900 -22.133500
C -29.464000 -17.690200 -22.337300
H -29.267500 -17.734700 -23.275400
C -28.205900 -17.848400 -21.558700
O -27.984700 -18.610000 -20.666400
O -27.265500 -16.993400 -22.038700
H -26.756100 -19.620500 -24.149000
O -26.664500 -19.078100 -23.540600
H -26.191000 -15.680600 -20.172500
C -25.959700 -17.122100 -21.556200
C -25.576700 -16.274500 -20.539600
C -25.390500 -18.969100 -23.237400
C -25.072900 -18.014500 -22.141300
O -24.521300 -19.600400 -23.807600
C -24.293300 -16.305300 -20.071200
H -24.036000 -15.743300 -19.376100
C -23.772800 -18.003000 -21.660000
C -23.381300 -17.174100 -20.635800
H -23.145900 -18.573700 -22.042300
H -22.504700 -17.199000 -20.323100
H -31.854400 -20.136000 -20.083800
O -31.272200 -21.066900 -17.890100
C -30.973300 -20.509000 -20.162300
H -30.953800 -21.133800 -20.890300
C -30.614900 -21.209400 -18.893800
H -30.341400 -19.804700 -20.328200
H -29.725700 -22.901900 -17.083400
H -29.650900 -22.874400 -19.512900
C -29.430700 -22.110100 -18.957100
C -28.956800 -22.612100 -17.598700
H -28.752500 -20.764600 -16.726400
H -28.701300 -21.635600 -19.385000
O -28.676900 -19.968600 -13.921100
H -28.642300 -22.166600 -14.907200
H -28.381000 -23.382300 -17.730300
C -28.202500 -21.559300 -16.811100
H -28.074600 -18.147800 -12.571400
C -27.834100 -22.064500 -15.432500
C -27.465700 -20.121400 -13.988000
H -27.422300 -22.939100 -15.516100
H -27.395200 -21.314900 -17.291000
C -27.115500 -18.146000 -12.538500
N -26.909200 -21.165800 -14.721100
H -26.825300 -18.228200 -11.626900
H -26.784200 -17.322500 -12.905600
N -26.596400 -19.277400 -13.322800
C -25.539800 -21.439200 -14.875500
C -25.246700 -19.509700 -13.410000
O -25.150100 -22.383700 -15.553800
C -24.730000 -20.529700 -14.144800
N -24.264900 -18.781700 -12.809900
N -23.357200 -20.439800 -13.992200
C -23.144900 -19.385400 -13.195500
H -22.463800 -22.194200 -14.285500
H -22.425600 -21.263600 -15.546500
C -22.343400 -21.291200 -14.589400
H -22.297300 -19.102200 -12.938500
H -21.472300 -20.979600 -14.333700
