38
Fragment
H -43.165800 -23.508000 -17.459000
H -42.558300 -25.946900 -17.685400
C -42.247500 -23.386700 -17.382200
N -41.656600 -22.196100 -17.203100
C -41.611900 -25.821700 -17.597100
N -41.323900 -24.403800 -17.435900
H -41.295300 -26.301600 -16.828300
H -41.169700 -26.150000 -18.383900
C -40.339800 -22.477000 -17.144300
H -40.175300 -19.835000 -17.584300
H -40.094000 -19.967200 -16.024800
C -40.065500 -23.801100 -17.282400
C -39.629600 -20.123100 -16.850000
N -39.345300 -21.542000 -16.984300
H -38.805600 -19.630700 -16.851300
C -38.779200 -24.347400 -17.301600
O -38.450300 -25.523700 -17.467200
C -38.003500 -21.997400 -16.981800
N -37.781800 -23.364700 -17.111000
O -37.072100 -21.210500 -16.879400
C -36.388000 -23.803100 -17.017600
H -36.369200 -24.711600 -16.679900
H -36.052600 -24.356000 -18.971100
H -35.927800 -23.241000 -16.374100
H -35.669700 -22.857900 -18.698600
C -35.630400 -23.757300 -18.335300
C -34.177400 -24.163000 -18.147200
H -34.143900 -25.060700 -17.782600
H -33.840400 -24.668100 -20.107200
H -33.762000 -23.566200 -17.505000
C -33.380000 -24.125100 -19.448300
H -33.370500 -23.212600 -19.777100
C -31.967400 -24.606800 -19.335700
O -31.565700 -25.193200 -18.351900
H -31.502300 -24.601000 -21.311000
C -31.066300 -24.331900 -20.498700
H -30.870400 -23.393600 -20.537000
H -30.250700 -24.825800 -20.395000
38
Fragment
H -42.317200 -24.216300 -13.828200
H -41.774900 -14.984800 -10.965100
C -41.375700 -24.392400 -13.890900
O -41.296900 -17.270100 -11.036800
H -41.215500 -25.330800 -13.770700
H -41.162300 -21.799300 -13.543000
H -41.054800 -24.120700 -14.754500
H -41.039700 -14.246200 -12.135700
C -40.956200 -14.562100 -11.233800
H -40.789100 -21.367700 -11.293900
H -40.773400 -13.821400 -10.651700
C -40.651300 -23.622200 -12.825300
H -40.411400 -19.486100 -12.664100
C -40.379100 -22.183100 -13.118200
O -40.322500 -24.152900 -11.792800
H -40.151600 -19.260100 -10.316500
C -40.149000 -16.861000 -11.090500
C -40.033400 -21.357300 -11.901600
N -39.863300 -15.525700 -11.154400
C -39.674400 -19.916900 -12.202200
H -39.645100 -22.128200 -13.750200
C -39.380700 -19.182900 -10.901100
H -39.285100 -21.773300 -11.446100
N -39.066000 -17.754100 -11.087900
H -38.895500 -19.886900 -12.779200
H -38.632900 -19.614000 -10.461100
C -38.555600 -15.111400 -11.162100
N -38.119000 -13.829700 -11.140400
C -37.700200 -17.410100 -11.160800
C -37.523000 -15.998800 -11.194100
O -36.828700 -18.271200 -11.189400
C -36.799000 -13.954400 -11.145500
N -36.381100 -15.224000 -11.190300
H -36.217900 -13.228800 -11.119900
C -35.002900 -15.687500 -11.197900
H -34.863200 -16.288100 -10.462300
H -34.823200 -16.144600 -12.023100
H -34.412900 -14.935000 -11.112200
76
Fragment
H -43.165800 -23.508000 -17.459000
H -42.558300 -25.946900 -17.685400
C -42.247500 -23.386700 -17.382200
N -41.656600 -22.196100 -17.203100
C -41.611900 -25.821700 -17.597100
N -41.323900 -24.403800 -17.435900
H -41.295300 -26.301600 -16.828300
H -41.169700 -26.150000 -18.383900
C -40.339800 -22.477000 -17.144300
H -40.175300 -19.835000 -17.584300
H -40.094000 -19.967200 -16.024800
C -40.065500 -23.801100 -17.282400
C -39.629600 -20.123100 -16.850000
N -39.345300 -21.542000 -16.984300
H -38.805600 -19.630700 -16.851300
C -38.779200 -24.347400 -17.301600
O -38.450300 -25.523700 -17.467200
C -38.003500 -21.997400 -16.981800
N -37.781800 -23.364700 -17.111000
O -37.072100 -21.210500 -16.879400
C -36.388000 -23.803100 -17.017600
H -36.369200 -24.711600 -16.679900
H -36.052600 -24.356000 -18.971100
H -35.927800 -23.241000 -16.374100
H -35.669700 -22.857900 -18.698600
C -35.630400 -23.757300 -18.335300
C -34.177400 -24.163000 -18.147200
H -34.143900 -25.060700 -17.782600
H -33.840400 -24.668100 -20.107200
H -33.762000 -23.566200 -17.505000
C -33.380000 -24.125100 -19.448300
H -33.370500 -23.212600 -19.777100
C -31.967400 -24.606800 -19.335700
O -31.565700 -25.193200 -18.351900
H -31.502300 -24.601000 -21.311000
C -31.066300 -24.331900 -20.498700
H -30.870400 -23.393600 -20.537000
H -30.250700 -24.825800 -20.395000
H -42.317200 -24.216300 -13.828200
H -41.774900 -14.984800 -10.965100
C -41.375700 -24.392400 -13.890900
O -41.296900 -17.270100 -11.036800
H -41.215500 -25.330800 -13.770700
H -41.162300 -21.799300 -13.543000
H -41.054800 -24.120700 -14.754500
H -41.039700 -14.246200 -12.135700
C -40.956200 -14.562100 -11.233800
H -40.789100 -21.367700 -11.293900
H -40.773400 -13.821400 -10.651700
C -40.651300 -23.622200 -12.825300
H -40.411400 -19.486100 -12.664100
C -40.379100 -22.183100 -13.118200
O -40.322500 -24.152900 -11.792800
H -40.151600 -19.260100 -10.316500
C -40.149000 -16.861000 -11.090500
C -40.033400 -21.357300 -11.901600
N -39.863300 -15.525700 -11.154400
C -39.674400 -19.916900 -12.202200
H -39.645100 -22.128200 -13.750200
C -39.380700 -19.182900 -10.901100
H -39.285100 -21.773300 -11.446100
N -39.066000 -17.754100 -11.087900
H -38.895500 -19.886900 -12.779200
H -38.632900 -19.614000 -10.461100
C -38.555600 -15.111400 -11.162100
N -38.119000 -13.829700 -11.140400
C -37.700200 -17.410100 -11.160800
C -37.523000 -15.998800 -11.194100
O -36.828700 -18.271200 -11.189400
C -36.799000 -13.954400 -11.145500
N -36.381100 -15.224000 -11.190300
H -36.217900 -13.228800 -11.119900
C -35.002900 -15.687500 -11.197900
H -34.863200 -16.288100 -10.462300
H -34.823200 -16.144600 -12.023100
H -34.412900 -14.935000 -11.112200
