38
Fragment
H -20.008800 -9.440500 -25.479300
H -19.976500 -3.436400 -24.301200
H -19.767600 -8.517900 -20.298600
H -19.631800 -8.201000 -26.361900
C -19.324500 -8.772600 -25.640300
N -19.149000 -7.956400 -24.419800
O -19.146600 -9.896500 -23.205200
C -19.114000 -3.442100 -23.878700
O -19.104300 -6.028300 -25.671700
C -19.096200 -6.563600 -24.563500
C -19.094100 -8.673800 -23.214600
C -19.045300 -5.906800 -23.309000
N -19.030300 -4.568100 -22.967600
H -19.012000 -10.976600 -27.070000
C -18.992400 -6.577900 -22.114400
H -18.991200 -2.625600 -23.389800
N -18.988500 -7.945900 -22.050100
C -18.974200 -4.509300 -21.625500
H -18.957500 -3.713300 -21.144800
N -18.945200 -5.715800 -21.059600
C -18.937400 -8.643400 -20.764300
H -18.794000 -9.580700 -20.914600
H -18.456900 -9.874500 -28.038900
H -18.430200 -3.520500 -24.548700
C -18.254000 -10.398400 -27.249000
H -18.218100 -8.290500 -20.237200
C -18.043100 -9.467800 -26.068600
O -17.871600 -11.911000 -29.627900
H -17.693400 -9.977000 -25.320000
H -17.383100 -8.798000 -26.306300
C -17.042100 -12.065300 -28.772700
C -17.019000 -11.252700 -27.512600
H -16.900000 -11.855900 -26.763000
H -16.245100 -10.668000 -27.540100
H -16.090300 -13.798600 -28.286500
C -15.943000 -13.082200 -28.908900
H -15.938200 -13.431100 -29.804200
H -15.097700 -12.666900 -28.723900
38
Fragment
H -13.940700 -15.233200 -28.839100
H -13.100200 -14.468900 -27.758800
C -13.095400 -14.817900 -28.654100
H -12.948100 -14.101500 -29.276500
H -12.793300 -17.232000 -30.022900
H -12.138400 -16.044200 -30.800000
C -12.019400 -16.647300 -30.050400
C -11.996300 -15.834700 -28.790300
H -11.655300 -19.102000 -31.256700
H -11.345000 -17.923100 -32.242900
O -11.166800 -15.989000 -27.935100
C -10.995300 -18.432300 -31.494400
H -10.820300 -19.609600 -37.325800
C -10.784400 -17.501700 -30.314000
H -10.608200 -24.379600 -33.014300
H -10.581500 -18.025500 -29.524100
H -10.244400 -18.319300 -36.648400
C -10.101000 -19.256600 -36.798700
N -10.093200 -22.184200 -36.503400
H -10.080900 -24.186800 -36.418200
C -10.064200 -23.390700 -35.937500
N -10.049900 -19.954100 -35.512900
H -10.047200 -25.274400 -34.173200
C -10.046000 -21.322100 -35.448600
H -10.026400 -16.923500 -30.493000
N -10.008100 -23.331900 -34.595400
C -9.993100 -21.993300 -34.254000
C -9.944300 -19.226300 -34.348400
C -9.942200 -21.336400 -32.999500
O -9.934100 -21.871700 -31.891200
C -9.924400 -24.457900 -33.684300
O -9.891800 -18.003500 -34.357800
N -9.889400 -19.943700 -33.143200
C -9.713900 -19.127500 -31.922700
H -9.406600 -19.699100 -31.201100
H -9.270800 -19.382200 -37.264400
H -9.061900 -24.463700 -33.261800
H -9.029600 -18.459600 -32.083700
76
Fragment
H -20.008800 -9.440500 -25.479300
H -19.976500 -3.436400 -24.301200
H -19.767600 -8.517900 -20.298600
H -19.631800 -8.201000 -26.361900
C -19.324500 -8.772600 -25.640300
N -19.149000 -7.956400 -24.419800
O -19.146600 -9.896500 -23.205200
C -19.114000 -3.442100 -23.878700
O -19.104300 -6.028300 -25.671700
C -19.096200 -6.563600 -24.563500
C -19.094100 -8.673800 -23.214600
C -19.045300 -5.906800 -23.309000
N -19.030300 -4.568100 -22.967600
H -19.012000 -10.976600 -27.070000
C -18.992400 -6.577900 -22.114400
H -18.991200 -2.625600 -23.389800
N -18.988500 -7.945900 -22.050100
C -18.974200 -4.509300 -21.625500
H -18.957500 -3.713300 -21.144800
N -18.945200 -5.715800 -21.059600
C -18.937400 -8.643400 -20.764300
H -18.794000 -9.580700 -20.914600
H -18.456900 -9.874500 -28.038900
H -18.430200 -3.520500 -24.548700
C -18.254000 -10.398400 -27.249000
H -18.218100 -8.290500 -20.237200
C -18.043100 -9.467800 -26.068600
O -17.871600 -11.911000 -29.627900
H -17.693400 -9.977000 -25.320000
H -17.383100 -8.798000 -26.306300
C -17.042100 -12.065300 -28.772700
C -17.019000 -11.252700 -27.512600
H -16.900000 -11.855900 -26.763000
H -16.245100 -10.668000 -27.540100
H -16.090300 -13.798600 -28.286500
C -15.943000 -13.082200 -28.908900
H -15.938200 -13.431100 -29.804200
H -15.097700 -12.666900 -28.723900
H -13.940700 -15.233200 -28.839100
H -13.100200 -14.468900 -27.758800
C -13.095400 -14.817900 -28.654100
H -12.948100 -14.101500 -29.276500
H -12.793300 -17.232000 -30.022900
H -12.138400 -16.044200 -30.800000
C -12.019400 -16.647300 -30.050400
C -11.996300 -15.834700 -28.790300
H -11.655300 -19.102000 -31.256700
H -11.345000 -17.923100 -32.242900
O -11.166800 -15.989000 -27.935100
C -10.995300 -18.432300 -31.494400
H -10.820300 -19.609600 -37.325800
C -10.784400 -17.501700 -30.314000
H -10.608200 -24.379600 -33.014300
H -10.581500 -18.025500 -29.524100
H -10.244400 -18.319300 -36.648400
C -10.101000 -19.256600 -36.798700
N -10.093200 -22.184200 -36.503400
H -10.080900 -24.186800 -36.418200
C -10.064200 -23.390700 -35.937500
N -10.049900 -19.954100 -35.512900
H -10.047200 -25.274400 -34.173200
C -10.046000 -21.322100 -35.448600
H -10.026400 -16.923500 -30.493000
N -10.008100 -23.331900 -34.595400
C -9.993100 -21.993300 -34.254000
C -9.944300 -19.226300 -34.348400
C -9.942200 -21.336400 -32.999500
O -9.934100 -21.871700 -31.891200
C -9.924400 -24.457900 -33.684300
O -9.891800 -18.003500 -34.357800
N -9.889400 -19.943700 -33.143200
C -9.713900 -19.127500 -31.922700
H -9.406600 -19.699100 -31.201100
H -9.270800 -19.382200 -37.264400
H -9.061900 -24.463700 -33.261800
H -9.029600 -18.459600 -32.083700
