21
Fragment
H -30.075000 -18.393500 -22.104400
H -29.861600 -16.840900 -22.133500
C -29.464000 -17.690200 -22.337300
H -29.267500 -17.734700 -23.275400
C -28.205900 -17.848400 -21.558700
O -27.984700 -18.610000 -20.666400
O -27.265500 -16.993400 -22.038700
H -26.756100 -19.620500 -24.149000
O -26.664500 -19.078100 -23.540600
H -26.191000 -15.680600 -20.172500
C -25.959700 -17.122100 -21.556200
C -25.576700 -16.274500 -20.539600
C -25.390500 -18.969100 -23.237400
C -25.072900 -18.014500 -22.141300
O -24.521300 -19.600400 -23.807600
C -24.293300 -16.305300 -20.071200
H -24.036000 -15.743300 -19.376100
C -23.772800 -18.003000 -21.660000
C -23.381300 -17.174100 -20.635800
H -23.145900 -18.573700 -22.042300
H -22.504700 -17.199000 -20.323100
21
Fragment
H -39.517900 -18.393500 -22.104400
H -39.304500 -16.840900 -22.133500
C -38.906900 -17.690200 -22.337300
H -38.710400 -17.734700 -23.275400
C -37.648800 -17.848400 -21.558700
O -37.427600 -18.610000 -20.666400
O -36.708400 -16.993400 -22.038700
H -36.199000 -19.620500 -24.149000
O -36.107400 -19.078100 -23.540600
H -35.633900 -15.680600 -20.172500
C -35.402600 -17.122100 -21.556200
C -35.019600 -16.274500 -20.539600
C -34.833400 -18.969100 -23.237400
C -34.515800 -18.014500 -22.141300
O -33.964200 -19.600400 -23.807600
C -33.736200 -16.305300 -20.071200
H -33.478900 -15.743300 -19.376100
C -33.215700 -18.003000 -21.660000
C -32.824200 -17.174100 -20.635800
H -32.588800 -18.573700 -22.042300
H -31.947600 -17.199000 -20.323100
42
Fragment
H -30.075000 -18.393500 -22.104400
H -29.861600 -16.840900 -22.133500
C -29.464000 -17.690200 -22.337300
H -29.267500 -17.734700 -23.275400
C -28.205900 -17.848400 -21.558700
O -27.984700 -18.610000 -20.666400
O -27.265500 -16.993400 -22.038700
H -26.756100 -19.620500 -24.149000
O -26.664500 -19.078100 -23.540600
H -26.191000 -15.680600 -20.172500
C -25.959700 -17.122100 -21.556200
C -25.576700 -16.274500 -20.539600
C -25.390500 -18.969100 -23.237400
C -25.072900 -18.014500 -22.141300
O -24.521300 -19.600400 -23.807600
C -24.293300 -16.305300 -20.071200
H -24.036000 -15.743300 -19.376100
C -23.772800 -18.003000 -21.660000
C -23.381300 -17.174100 -20.635800
H -23.145900 -18.573700 -22.042300
H -22.504700 -17.199000 -20.323100
H -39.517900 -18.393500 -22.104400
H -39.304500 -16.840900 -22.133500
C -38.906900 -17.690200 -22.337300
H -38.710400 -17.734700 -23.275400
C -37.648800 -17.848400 -21.558700
O -37.427600 -18.610000 -20.666400
O -36.708400 -16.993400 -22.038700
H -36.199000 -19.620500 -24.149000
O -36.107400 -19.078100 -23.540600
H -35.633900 -15.680600 -20.172500
C -35.402600 -17.122100 -21.556200
C -35.019600 -16.274500 -20.539600
C -34.833400 -18.969100 -23.237400
C -34.515800 -18.014500 -22.141300
O -33.964200 -19.600400 -23.807600
C -33.736200 -16.305300 -20.071200
H -33.478900 -15.743300 -19.376100
C -33.215700 -18.003000 -21.660000
C -32.824200 -17.174100 -20.635800
H -32.588800 -18.573700 -22.042300
H -31.947600 -17.199000 -20.323100
