21
Fragment
H -30.075000 -18.393500 -22.104400
H -29.861600 -16.840900 -22.133500
C -29.464000 -17.690200 -22.337300
H -29.267500 -17.734700 -23.275400
C -28.205900 -17.848400 -21.558700
O -27.984700 -18.610000 -20.666400
O -27.265500 -16.993400 -22.038700
H -26.756100 -19.620500 -24.149000
O -26.664500 -19.078100 -23.540600
H -26.191000 -15.680600 -20.172500
C -25.959700 -17.122100 -21.556200
C -25.576700 -16.274500 -20.539600
C -25.390500 -18.969100 -23.237400
C -25.072900 -18.014500 -22.141300
O -24.521300 -19.600400 -23.807600
C -24.293300 -16.305300 -20.071200
H -24.036000 -15.743300 -19.376100
C -23.772800 -18.003000 -21.660000
C -23.381300 -17.174100 -20.635800
H -23.145900 -18.573700 -22.042300
H -22.504700 -17.199000 -20.323100
38
Fragment
H -27.398100 -10.597900 -20.083800
O -26.816000 -11.528800 -17.890100
C -26.517100 -10.970800 -20.162300
H -26.497600 -11.595700 -20.890300
C -26.158700 -11.671200 -18.893800
H -25.885100 -10.266600 -20.328200
H -25.269400 -13.363800 -17.083400
H -25.194700 -13.336300 -19.512900
C -24.974400 -12.571900 -18.957100
C -24.500600 -13.073900 -17.598700
H -24.296300 -11.226500 -16.726400
H -24.245100 -12.097400 -19.385000
O -24.220600 -10.430400 -13.921100
H -24.186100 -12.628500 -14.907200
H -23.924800 -13.844100 -17.730300
C -23.746300 -12.021100 -16.811100
H -23.618400 -8.609700 -12.571400
C -23.377800 -12.526300 -15.432500
C -23.009500 -10.583300 -13.988000
H -22.966000 -13.400900 -15.516100
H -22.939000 -11.776700 -17.291000
C -22.659300 -8.607900 -12.538500
N -22.453000 -11.627700 -14.721100
H -22.369100 -8.690000 -11.626900
H -22.328000 -7.784300 -12.905600
N -22.140100 -9.739200 -13.322800
C -21.083600 -11.901000 -14.875500
C -20.790400 -9.971600 -13.410000
O -20.693800 -12.845500 -15.553800
C -20.273700 -10.991500 -14.144800
N -19.808600 -9.243600 -12.809900
N -18.901000 -10.901600 -13.992200
C -18.688600 -9.847300 -13.195500
H -18.007500 -12.656100 -14.285500
H -17.969300 -11.725400 -15.546500
C -17.887200 -11.753100 -14.589400
H -17.841000 -9.564100 -12.938500
H -17.016100 -11.441500 -14.333700
59
Fragment
H -30.075000 -18.393500 -22.104400
H -29.861600 -16.840900 -22.133500
C -29.464000 -17.690200 -22.337300
H -29.267500 -17.734700 -23.275400
C -28.205900 -17.848400 -21.558700
O -27.984700 -18.610000 -20.666400
O -27.265500 -16.993400 -22.038700
H -26.756100 -19.620500 -24.149000
O -26.664500 -19.078100 -23.540600
H -26.191000 -15.680600 -20.172500
C -25.959700 -17.122100 -21.556200
C -25.576700 -16.274500 -20.539600
C -25.390500 -18.969100 -23.237400
C -25.072900 -18.014500 -22.141300
O -24.521300 -19.600400 -23.807600
C -24.293300 -16.305300 -20.071200
H -24.036000 -15.743300 -19.376100
C -23.772800 -18.003000 -21.660000
C -23.381300 -17.174100 -20.635800
H -23.145900 -18.573700 -22.042300
H -22.504700 -17.199000 -20.323100
H -27.398100 -10.597900 -20.083800
O -26.816000 -11.528800 -17.890100
C -26.517100 -10.970800 -20.162300
H -26.497600 -11.595700 -20.890300
C -26.158700 -11.671200 -18.893800
H -25.885100 -10.266600 -20.328200
H -25.269400 -13.363800 -17.083400
H -25.194700 -13.336300 -19.512900
C -24.974400 -12.571900 -18.957100
C -24.500600 -13.073900 -17.598700
H -24.296300 -11.226500 -16.726400
H -24.245100 -12.097400 -19.385000
O -24.220600 -10.430400 -13.921100
H -24.186100 -12.628500 -14.907200
H -23.924800 -13.844100 -17.730300
C -23.746300 -12.021100 -16.811100
H -23.618400 -8.609700 -12.571400
C -23.377800 -12.526300 -15.432500
C -23.009500 -10.583300 -13.988000
H -22.966000 -13.400900 -15.516100
H -22.939000 -11.776700 -17.291000
C -22.659300 -8.607900 -12.538500
N -22.453000 -11.627700 -14.721100
H -22.369100 -8.690000 -11.626900
H -22.328000 -7.784300 -12.905600
N -22.140100 -9.739200 -13.322800
C -21.083600 -11.901000 -14.875500
C -20.790400 -9.971600 -13.410000
O -20.693800 -12.845500 -15.553800
C -20.273700 -10.991500 -14.144800
N -19.808600 -9.243600 -12.809900
N -18.901000 -10.901600 -13.992200
C -18.688600 -9.847300 -13.195500
H -18.007500 -12.656100 -14.285500
H -17.969300 -11.725400 -15.546500
C -17.887200 -11.753100 -14.589400
H -17.841000 -9.564100 -12.938500
H -17.016100 -11.441500 -14.333700
