38
Fragment
H -43.165800 -23.508000 -17.459000
H -42.558300 -25.946900 -17.685400
C -42.247500 -23.386700 -17.382200
N -41.656600 -22.196100 -17.203100
C -41.611900 -25.821700 -17.597100
N -41.323900 -24.403800 -17.435900
H -41.295300 -26.301600 -16.828300
H -41.169700 -26.150000 -18.383900
C -40.339800 -22.477000 -17.144300
H -40.175300 -19.835000 -17.584300
H -40.094000 -19.967200 -16.024800
C -40.065500 -23.801100 -17.282400
C -39.629600 -20.123100 -16.850000
N -39.345300 -21.542000 -16.984300
H -38.805600 -19.630700 -16.851300
C -38.779200 -24.347400 -17.301600
O -38.450300 -25.523700 -17.467200
C -38.003500 -21.997400 -16.981800
N -37.781800 -23.364700 -17.111000
O -37.072100 -21.210500 -16.879400
C -36.388000 -23.803100 -17.017600
H -36.369200 -24.711600 -16.679900
H -36.052600 -24.356000 -18.971100
H -35.927800 -23.241000 -16.374100
H -35.669700 -22.857900 -18.698600
C -35.630400 -23.757300 -18.335300
C -34.177400 -24.163000 -18.147200
H -34.143900 -25.060700 -17.782600
H -33.840400 -24.668100 -20.107200
H -33.762000 -23.566200 -17.505000
C -33.380000 -24.125100 -19.448300
H -33.370500 -23.212600 -19.777100
C -31.967400 -24.606800 -19.335700
O -31.565700 -25.193200 -18.351900
H -31.502300 -24.601000 -21.311000
C -31.066300 -24.331900 -20.498700
H -30.870400 -23.393600 -20.537000
H -30.250700 -24.825800 -20.395000
15
Fragment
H -42.146000 -31.071300 -17.936200
H -41.646500 -28.809000 -17.826100
C -41.259800 -30.791300 -17.896500
C -40.961100 -29.438500 -17.826100
H -40.454600 -32.618300 -17.961700
C -40.248000 -31.713100 -17.905500
C -39.652100 -29.031100 -17.759600
H -39.449400 -28.124600 -17.713600
C -38.929900 -31.319900 -17.833800
C -38.634600 -29.963100 -17.759600
O -38.067700 -33.530800 -18.005200
C -37.859000 -32.344400 -17.822300
H -37.749300 -29.683100 -17.709700
O -36.655200 -31.865800 -17.590700
H -36.112400 -32.480000 -17.590700
53
Fragment
H -43.165800 -23.508000 -17.459000
H -42.558300 -25.946900 -17.685400
C -42.247500 -23.386700 -17.382200
N -41.656600 -22.196100 -17.203100
C -41.611900 -25.821700 -17.597100
N -41.323900 -24.403800 -17.435900
H -41.295300 -26.301600 -16.828300
H -41.169700 -26.150000 -18.383900
C -40.339800 -22.477000 -17.144300
H -40.175300 -19.835000 -17.584300
H -40.094000 -19.967200 -16.024800
C -40.065500 -23.801100 -17.282400
C -39.629600 -20.123100 -16.850000
N -39.345300 -21.542000 -16.984300
H -38.805600 -19.630700 -16.851300
C -38.779200 -24.347400 -17.301600
O -38.450300 -25.523700 -17.467200
C -38.003500 -21.997400 -16.981800
N -37.781800 -23.364700 -17.111000
O -37.072100 -21.210500 -16.879400
C -36.388000 -23.803100 -17.017600
H -36.369200 -24.711600 -16.679900
H -36.052600 -24.356000 -18.971100
H -35.927800 -23.241000 -16.374100
H -35.669700 -22.857900 -18.698600
C -35.630400 -23.757300 -18.335300
C -34.177400 -24.163000 -18.147200
H -34.143900 -25.060700 -17.782600
H -33.840400 -24.668100 -20.107200
H -33.762000 -23.566200 -17.505000
C -33.380000 -24.125100 -19.448300
H -33.370500 -23.212600 -19.777100
C -31.967400 -24.606800 -19.335700
O -31.565700 -25.193200 -18.351900
H -31.502300 -24.601000 -21.311000
C -31.066300 -24.331900 -20.498700
H -30.870400 -23.393600 -20.537000
H -30.250700 -24.825800 -20.395000
H -42.146000 -31.071300 -17.936200
H -41.646500 -28.809000 -17.826100
C -41.259800 -30.791300 -17.896500
C -40.961100 -29.438500 -17.826100
H -40.454600 -32.618300 -17.961700
C -40.248000 -31.713100 -17.905500
C -39.652100 -29.031100 -17.759600
H -39.449400 -28.124600 -17.713600
C -38.929900 -31.319900 -17.833800
C -38.634600 -29.963100 -17.759600
O -38.067700 -33.530800 -18.005200
C -37.859000 -32.344400 -17.822300
H -37.749300 -29.683100 -17.709700
O -36.655200 -31.865800 -17.590700
H -36.112400 -32.480000 -17.590700
