38
Fragment
H -20.008800 -9.440500 -25.479300
H -19.976500 -3.436400 -24.301200
H -19.767600 -8.517900 -20.298600
H -19.631800 -8.201000 -26.361900
C -19.324500 -8.772600 -25.640300
N -19.149000 -7.956400 -24.419800
O -19.146600 -9.896500 -23.205200
C -19.114000 -3.442100 -23.878700
O -19.104300 -6.028300 -25.671700
C -19.096200 -6.563600 -24.563500
C -19.094100 -8.673800 -23.214600
C -19.045300 -5.906800 -23.309000
N -19.030300 -4.568100 -22.967600
H -19.012000 -10.976600 -27.070000
C -18.992400 -6.577900 -22.114400
H -18.991200 -2.625600 -23.389800
N -18.988500 -7.945900 -22.050100
C -18.974200 -4.509300 -21.625500
H -18.957500 -3.713300 -21.144800
N -18.945200 -5.715800 -21.059600
C -18.937400 -8.643400 -20.764300
H -18.794000 -9.580700 -20.914600
H -18.456900 -9.874500 -28.038900
H -18.430200 -3.520500 -24.548700
C -18.254000 -10.398400 -27.249000
H -18.218100 -8.290500 -20.237200
C -18.043100 -9.467800 -26.068600
O -17.871600 -11.911000 -29.627900
H -17.693400 -9.977000 -25.320000
H -17.383100 -8.798000 -26.306300
C -17.042100 -12.065300 -28.772700
C -17.019000 -11.252700 -27.512600
H -16.900000 -11.855900 -26.763000
H -16.245100 -10.668000 -27.540100
H -16.090300 -13.798600 -28.286500
C -15.943000 -13.082200 -28.908900
H -15.938200 -13.431100 -29.804200
H -15.097700 -12.666900 -28.723900
38
Fragment
H -22.846100 -17.410400 -25.479300
H -22.813900 -11.406300 -24.301200
H -22.604900 -16.487800 -20.298600
H -22.469200 -16.170900 -26.361900
C -22.161800 -16.742500 -25.640300
N -21.986300 -15.926300 -24.419800
O -21.984000 -17.866400 -23.205200
C -21.951400 -11.412100 -23.878700
O -21.941700 -13.998300 -25.671700
C -21.933600 -14.533500 -24.563500
C -21.931500 -16.643700 -23.214600
C -21.882600 -13.876700 -23.309000
N -21.867600 -12.538000 -22.967600
H -21.849300 -18.946500 -27.070000
C -21.829800 -14.547900 -22.114400
H -21.828500 -10.595500 -23.389800
N -21.825900 -15.915800 -22.050100
C -21.811500 -12.479200 -21.625500
H -21.794800 -11.683200 -21.144800
N -21.782500 -13.685700 -21.059600
C -21.774700 -16.613300 -20.764300
H -21.631300 -17.550600 -20.914600
H -21.294200 -17.844500 -28.038900
H -21.267500 -11.490400 -24.548700
C -21.091300 -18.368300 -27.249000
H -21.055400 -16.260400 -20.237200
C -20.880400 -17.437700 -26.068600
O -20.708900 -19.880900 -29.627900
H -20.530700 -17.946900 -25.320000
H -20.220500 -16.768000 -26.306300
C -19.879400 -20.035200 -28.772700
C -19.856300 -19.222600 -27.512600
H -19.737300 -19.825800 -26.763000
H -19.082400 -18.637900 -27.540100
H -18.927600 -21.768500 -28.286500
C -18.780300 -21.052100 -28.908900
H -18.775500 -21.401100 -29.804200
H -17.935000 -20.636800 -28.723900
76
Fragment
H -20.008800 -9.440500 -25.479300
H -19.976500 -3.436400 -24.301200
H -19.767600 -8.517900 -20.298600
H -19.631800 -8.201000 -26.361900
C -19.324500 -8.772600 -25.640300
N -19.149000 -7.956400 -24.419800
O -19.146600 -9.896500 -23.205200
C -19.114000 -3.442100 -23.878700
O -19.104300 -6.028300 -25.671700
C -19.096200 -6.563600 -24.563500
C -19.094100 -8.673800 -23.214600
C -19.045300 -5.906800 -23.309000
N -19.030300 -4.568100 -22.967600
H -19.012000 -10.976600 -27.070000
C -18.992400 -6.577900 -22.114400
H -18.991200 -2.625600 -23.389800
N -18.988500 -7.945900 -22.050100
C -18.974200 -4.509300 -21.625500
H -18.957500 -3.713300 -21.144800
N -18.945200 -5.715800 -21.059600
C -18.937400 -8.643400 -20.764300
H -18.794000 -9.580700 -20.914600
H -18.456900 -9.874500 -28.038900
H -18.430200 -3.520500 -24.548700
C -18.254000 -10.398400 -27.249000
H -18.218100 -8.290500 -20.237200
C -18.043100 -9.467800 -26.068600
O -17.871600 -11.911000 -29.627900
H -17.693400 -9.977000 -25.320000
H -17.383100 -8.798000 -26.306300
C -17.042100 -12.065300 -28.772700
C -17.019000 -11.252700 -27.512600
H -16.900000 -11.855900 -26.763000
H -16.245100 -10.668000 -27.540100
H -16.090300 -13.798600 -28.286500
C -15.943000 -13.082200 -28.908900
H -15.938200 -13.431100 -29.804200
H -15.097700 -12.666900 -28.723900
H -22.846100 -17.410400 -25.479300
H -22.813900 -11.406300 -24.301200
H -22.604900 -16.487800 -20.298600
H -22.469200 -16.170900 -26.361900
C -22.161800 -16.742500 -25.640300
N -21.986300 -15.926300 -24.419800
O -21.984000 -17.866400 -23.205200
C -21.951400 -11.412100 -23.878700
O -21.941700 -13.998300 -25.671700
C -21.933600 -14.533500 -24.563500
C -21.931500 -16.643700 -23.214600
C -21.882600 -13.876700 -23.309000
N -21.867600 -12.538000 -22.967600
H -21.849300 -18.946500 -27.070000
C -21.829800 -14.547900 -22.114400
H -21.828500 -10.595500 -23.389800
N -21.825900 -15.915800 -22.050100
C -21.811500 -12.479200 -21.625500
H -21.794800 -11.683200 -21.144800
N -21.782500 -13.685700 -21.059600
C -21.774700 -16.613300 -20.764300
H -21.631300 -17.550600 -20.914600
H -21.294200 -17.844500 -28.038900
H -21.267500 -11.490400 -24.548700
C -21.091300 -18.368300 -27.249000
H -21.055400 -16.260400 -20.237200
C -20.880400 -17.437700 -26.068600
O -20.708900 -19.880900 -29.627900
H -20.530700 -17.946900 -25.320000
H -20.220500 -16.768000 -26.306300
C -19.879400 -20.035200 -28.772700
C -19.856300 -19.222600 -27.512600
H -19.737300 -19.825800 -26.763000
H -19.082400 -18.637900 -27.540100
H -18.927600 -21.768500 -28.286500
C -18.780300 -21.052100 -28.908900
H -18.775500 -21.401100 -29.804200
H -17.935000 -20.636800 -28.723900
