38
Fragment
H -20.008800 -9.440500 -25.479300
H -19.976500 -3.436400 -24.301200
H -19.767600 -8.517900 -20.298600
H -19.631800 -8.201000 -26.361900
C -19.324500 -8.772600 -25.640300
N -19.149000 -7.956400 -24.419800
O -19.146600 -9.896500 -23.205200
C -19.114000 -3.442100 -23.878700
O -19.104300 -6.028300 -25.671700
C -19.096200 -6.563600 -24.563500
C -19.094100 -8.673800 -23.214600
C -19.045300 -5.906800 -23.309000
N -19.030300 -4.568100 -22.967600
H -19.012000 -10.976600 -27.070000
C -18.992400 -6.577900 -22.114400
H -18.991200 -2.625600 -23.389800
N -18.988500 -7.945900 -22.050100
C -18.974200 -4.509300 -21.625500
H -18.957500 -3.713300 -21.144800
N -18.945200 -5.715800 -21.059600
C -18.937400 -8.643400 -20.764300
H -18.794000 -9.580700 -20.914600
H -18.456900 -9.874500 -28.038900
H -18.430200 -3.520500 -24.548700
C -18.254000 -10.398400 -27.249000
H -18.218100 -8.290500 -20.237200
C -18.043100 -9.467800 -26.068600
O -17.871600 -11.911000 -29.627900
H -17.693400 -9.977000 -25.320000
H -17.383100 -8.798000 -26.306300
C -17.042100 -12.065300 -28.772700
C -17.019000 -11.252700 -27.512600
H -16.900000 -11.855900 -26.763000
H -16.245100 -10.668000 -27.540100
H -16.090300 -13.798600 -28.286500
C -15.943000 -13.082200 -28.908900
H -15.938200 -13.431100 -29.804200
H -15.097700 -12.666900 -28.723900
38
Fragment
H -17.815000 -7.263300 -28.839100
H -16.974500 -6.499000 -27.758800
C -16.969700 -6.848000 -28.654100
H -16.822400 -6.131600 -29.276500
H -16.667600 -9.262100 -30.022900
H -16.012700 -8.074300 -30.800000
C -15.893700 -8.677400 -30.050400
C -15.870600 -7.864800 -28.790300
H -15.529500 -11.132100 -31.256700
H -15.219300 -9.953200 -32.242900
O -15.041100 -8.019100 -27.935100
C -14.869600 -10.462400 -31.494400
H -14.694600 -11.639700 -37.325800
C -14.658700 -9.531700 -30.314000
H -14.482500 -16.409700 -33.014300
H -14.455800 -10.055600 -29.524100
H -14.118700 -10.349400 -36.648400
C -13.975300 -11.286700 -36.798700
N -13.967500 -14.214300 -36.503400
H -13.955200 -16.216800 -36.418200
C -13.938500 -15.420800 -35.937500
N -13.924100 -11.984200 -35.512900
H -13.921500 -17.304500 -34.173200
C -13.920200 -13.352200 -35.448600
H -13.900700 -8.953600 -30.493000
N -13.882400 -15.362000 -34.595400
C -13.867400 -14.023300 -34.254000
C -13.818500 -11.256400 -34.348400
C -13.816400 -13.366500 -32.999500
O -13.808300 -13.901800 -31.891200
C -13.798600 -16.488000 -33.684300
O -13.766000 -10.033600 -34.357800
N -13.763700 -11.973800 -33.143200
C -13.588200 -11.157500 -31.922700
H -13.280800 -11.729200 -31.201100
H -13.145100 -11.412300 -37.264400
H -12.936100 -16.493800 -33.261800
H -12.903900 -10.489700 -32.083700
76
Fragment
H -20.008800 -9.440500 -25.479300
H -19.976500 -3.436400 -24.301200
H -19.767600 -8.517900 -20.298600
H -19.631800 -8.201000 -26.361900
C -19.324500 -8.772600 -25.640300
N -19.149000 -7.956400 -24.419800
O -19.146600 -9.896500 -23.205200
C -19.114000 -3.442100 -23.878700
O -19.104300 -6.028300 -25.671700
C -19.096200 -6.563600 -24.563500
C -19.094100 -8.673800 -23.214600
C -19.045300 -5.906800 -23.309000
N -19.030300 -4.568100 -22.967600
H -19.012000 -10.976600 -27.070000
C -18.992400 -6.577900 -22.114400
H -18.991200 -2.625600 -23.389800
N -18.988500 -7.945900 -22.050100
C -18.974200 -4.509300 -21.625500
H -18.957500 -3.713300 -21.144800
N -18.945200 -5.715800 -21.059600
C -18.937400 -8.643400 -20.764300
H -18.794000 -9.580700 -20.914600
H -18.456900 -9.874500 -28.038900
H -18.430200 -3.520500 -24.548700
C -18.254000 -10.398400 -27.249000
H -18.218100 -8.290500 -20.237200
C -18.043100 -9.467800 -26.068600
O -17.871600 -11.911000 -29.627900
H -17.693400 -9.977000 -25.320000
H -17.383100 -8.798000 -26.306300
C -17.042100 -12.065300 -28.772700
C -17.019000 -11.252700 -27.512600
H -16.900000 -11.855900 -26.763000
H -16.245100 -10.668000 -27.540100
H -16.090300 -13.798600 -28.286500
C -15.943000 -13.082200 -28.908900
H -15.938200 -13.431100 -29.804200
H -15.097700 -12.666900 -28.723900
H -17.815000 -7.263300 -28.839100
H -16.974500 -6.499000 -27.758800
C -16.969700 -6.848000 -28.654100
H -16.822400 -6.131600 -29.276500
H -16.667600 -9.262100 -30.022900
H -16.012700 -8.074300 -30.800000
C -15.893700 -8.677400 -30.050400
C -15.870600 -7.864800 -28.790300
H -15.529500 -11.132100 -31.256700
H -15.219300 -9.953200 -32.242900
O -15.041100 -8.019100 -27.935100
C -14.869600 -10.462400 -31.494400
H -14.694600 -11.639700 -37.325800
C -14.658700 -9.531700 -30.314000
H -14.482500 -16.409700 -33.014300
H -14.455800 -10.055600 -29.524100
H -14.118700 -10.349400 -36.648400
C -13.975300 -11.286700 -36.798700
N -13.967500 -14.214300 -36.503400
H -13.955200 -16.216800 -36.418200
C -13.938500 -15.420800 -35.937500
N -13.924100 -11.984200 -35.512900
H -13.921500 -17.304500 -34.173200
C -13.920200 -13.352200 -35.448600
H -13.900700 -8.953600 -30.493000
N -13.882400 -15.362000 -34.595400
C -13.867400 -14.023300 -34.254000
C -13.818500 -11.256400 -34.348400
C -13.816400 -13.366500 -32.999500
O -13.808300 -13.901800 -31.891200
C -13.798600 -16.488000 -33.684300
O -13.766000 -10.033600 -34.357800
N -13.763700 -11.973800 -33.143200
C -13.588200 -11.157500 -31.922700
H -13.280800 -11.729200 -31.201100
H -13.145100 -11.412300 -37.264400
H -12.936100 -16.493800 -33.261800
H -12.903900 -10.489700 -32.083700
