38
Fragment
H -20.008800 -9.440500 -25.479300
H -19.976500 -3.436400 -24.301200
H -19.767600 -8.517900 -20.298600
H -19.631800 -8.201000 -26.361900
C -19.324500 -8.772600 -25.640300
N -19.149000 -7.956400 -24.419800
O -19.146600 -9.896500 -23.205200
C -19.114000 -3.442100 -23.878700
O -19.104300 -6.028300 -25.671700
C -19.096200 -6.563600 -24.563500
C -19.094100 -8.673800 -23.214600
C -19.045300 -5.906800 -23.309000
N -19.030300 -4.568100 -22.967600
H -19.012000 -10.976600 -27.070000
C -18.992400 -6.577900 -22.114400
H -18.991200 -2.625600 -23.389800
N -18.988500 -7.945900 -22.050100
C -18.974200 -4.509300 -21.625500
H -18.957500 -3.713300 -21.144800
N -18.945200 -5.715800 -21.059600
C -18.937400 -8.643400 -20.764300
H -18.794000 -9.580700 -20.914600
H -18.456900 -9.874500 -28.038900
H -18.430200 -3.520500 -24.548700
C -18.254000 -10.398400 -27.249000
H -18.218100 -8.290500 -20.237200
C -18.043100 -9.467800 -26.068600
O -17.871600 -11.911000 -29.627900
H -17.693400 -9.977000 -25.320000
H -17.383100 -8.798000 -26.306300
C -17.042100 -12.065300 -28.772700
C -17.019000 -11.252700 -27.512600
H -16.900000 -11.855900 -26.763000
H -16.245100 -10.668000 -27.540100
H -16.090300 -13.798600 -28.286500
C -15.943000 -13.082200 -28.908900
H -15.938200 -13.431100 -29.804200
H -15.097700 -12.666900 -28.723900
16
Fragment
H -18.906900 -2.239400 -17.347600
O -18.853200 -3.564400 -18.640200
H -18.846700 -5.759500 -19.218400
O -18.831900 -2.063000 -16.550300
O -18.827400 -5.787200 -18.399200
C -18.816400 -4.564100 -17.919600
H -18.788100 -2.294400 -14.035800
C -18.784900 -3.213000 -15.836500
C -18.773900 -4.473300 -16.449200
C -18.766400 -3.127900 -14.447200
C -18.721800 -5.621300 -15.649600
C -18.717400 -4.265500 -13.682300
H -18.709800 -6.461100 -16.048600
H -18.704400 -4.195800 -12.756000
C -18.688300 -5.518800 -14.273700
H -18.646500 -6.284100 -13.748000
54
Fragment
H -20.008800 -9.440500 -25.479300
H -19.976500 -3.436400 -24.301200
H -19.767600 -8.517900 -20.298600
H -19.631800 -8.201000 -26.361900
C -19.324500 -8.772600 -25.640300
N -19.149000 -7.956400 -24.419800
O -19.146600 -9.896500 -23.205200
C -19.114000 -3.442100 -23.878700
O -19.104300 -6.028300 -25.671700
C -19.096200 -6.563600 -24.563500
C -19.094100 -8.673800 -23.214600
C -19.045300 -5.906800 -23.309000
N -19.030300 -4.568100 -22.967600
H -19.012000 -10.976600 -27.070000
C -18.992400 -6.577900 -22.114400
H -18.991200 -2.625600 -23.389800
N -18.988500 -7.945900 -22.050100
C -18.974200 -4.509300 -21.625500
H -18.957500 -3.713300 -21.144800
N -18.945200 -5.715800 -21.059600
C -18.937400 -8.643400 -20.764300
H -18.794000 -9.580700 -20.914600
H -18.456900 -9.874500 -28.038900
H -18.430200 -3.520500 -24.548700
C -18.254000 -10.398400 -27.249000
H -18.218100 -8.290500 -20.237200
C -18.043100 -9.467800 -26.068600
O -17.871600 -11.911000 -29.627900
H -17.693400 -9.977000 -25.320000
H -17.383100 -8.798000 -26.306300
C -17.042100 -12.065300 -28.772700
C -17.019000 -11.252700 -27.512600
H -16.900000 -11.855900 -26.763000
H -16.245100 -10.668000 -27.540100
H -16.090300 -13.798600 -28.286500
C -15.943000 -13.082200 -28.908900
H -15.938200 -13.431100 -29.804200
H -15.097700 -12.666900 -28.723900
H -18.906900 -2.239400 -17.347600
O -18.853200 -3.564400 -18.640200
H -18.846700 -5.759500 -19.218400
O -18.831900 -2.063000 -16.550300
O -18.827400 -5.787200 -18.399200
C -18.816400 -4.564100 -17.919600
H -18.788100 -2.294400 -14.035800
C -18.784900 -3.213000 -15.836500
C -18.773900 -4.473300 -16.449200
C -18.766400 -3.127900 -14.447200
C -18.721800 -5.621300 -15.649600
C -18.717400 -4.265500 -13.682300
H -18.709800 -6.461100 -16.048600
H -18.704400 -4.195800 -12.756000
C -18.688300 -5.518800 -14.273700
H -18.646500 -6.284100 -13.748000
