38
Fragment
H -43.165800 -23.508000 -17.459000
H -42.558300 -25.946900 -17.685400
C -42.247500 -23.386700 -17.382200
N -41.656600 -22.196100 -17.203100
C -41.611900 -25.821700 -17.597100
N -41.323900 -24.403800 -17.435900
H -41.295300 -26.301600 -16.828300
H -41.169700 -26.150000 -18.383900
C -40.339800 -22.477000 -17.144300
H -40.175300 -19.835000 -17.584300
H -40.094000 -19.967200 -16.024800
C -40.065500 -23.801100 -17.282400
C -39.629600 -20.123100 -16.850000
N -39.345300 -21.542000 -16.984300
H -38.805600 -19.630700 -16.851300
C -38.779200 -24.347400 -17.301600
O -38.450300 -25.523700 -17.467200
C -38.003500 -21.997400 -16.981800
N -37.781800 -23.364700 -17.111000
O -37.072100 -21.210500 -16.879400
C -36.388000 -23.803100 -17.017600
H -36.369200 -24.711600 -16.679900
H -36.052600 -24.356000 -18.971100
H -35.927800 -23.241000 -16.374100
H -35.669700 -22.857900 -18.698600
C -35.630400 -23.757300 -18.335300
C -34.177400 -24.163000 -18.147200
H -34.143900 -25.060700 -17.782600
H -33.840400 -24.668100 -20.107200
H -33.762000 -23.566200 -17.505000
C -33.380000 -24.125100 -19.448300
H -33.370500 -23.212600 -19.777100
C -31.967400 -24.606800 -19.335700
O -31.565700 -25.193200 -18.351900
H -31.502300 -24.601000 -21.311000
C -31.066300 -24.331900 -20.498700
H -30.870400 -23.393600 -20.537000
H -30.250700 -24.825800 -20.395000
38
Fragment
H -43.044000 -31.767800 -14.474300
H -42.633600 -30.558200 -13.563400
H -42.593700 -30.414800 -15.124200
C -42.453900 -31.015400 -14.388600
H -41.238900 -33.474100 -14.466600
N -41.075700 -31.478900 -14.396300
C -40.657800 -32.748400 -14.441000
O -40.628200 -28.431700 -14.397200
C -39.933800 -30.704100 -14.392400
C -39.756600 -29.292800 -14.425700
N -39.337800 -32.873100 -14.446200
C -38.901200 -31.591400 -14.424400
H -38.824000 -27.088900 -15.125500
H -38.561300 -26.815900 -12.807300
N -38.390800 -28.948700 -14.498600
H -38.171700 -24.929600 -14.140400
C -38.076100 -27.519900 -14.685400
H -37.811800 -24.574700 -11.836300
C -37.782400 -26.786000 -13.384300
N -37.593500 -31.177100 -14.432100
C -37.423400 -25.345500 -13.685000
C -37.307800 -29.841900 -14.496100
H -37.305300 -27.442800 -15.270000
O -37.134400 -22.550000 -13.793700
C -37.077800 -24.519800 -12.468300
H -37.045400 -27.216700 -12.922500
C -36.805600 -23.080700 -12.761300
H -36.683400 -32.881400 -14.934900
H -36.667700 -25.335100 -14.292600
C -36.500600 -32.140800 -14.352800
H -36.417100 -32.456600 -13.450800
H -36.402000 -22.582100 -10.832100
H -36.294500 -24.903500 -12.043600
H -36.241300 -21.372000 -11.815900
O -36.160000 -29.432800 -14.549800
C -36.081100 -22.310400 -11.695600
H -35.682000 -31.718000 -14.621400
H -35.139600 -22.486600 -11.758300
76
Fragment
H -43.165800 -23.508000 -17.459000
H -42.558300 -25.946900 -17.685400
C -42.247500 -23.386700 -17.382200
N -41.656600 -22.196100 -17.203100
C -41.611900 -25.821700 -17.597100
N -41.323900 -24.403800 -17.435900
H -41.295300 -26.301600 -16.828300
H -41.169700 -26.150000 -18.383900
C -40.339800 -22.477000 -17.144300
H -40.175300 -19.835000 -17.584300
H -40.094000 -19.967200 -16.024800
C -40.065500 -23.801100 -17.282400
C -39.629600 -20.123100 -16.850000
N -39.345300 -21.542000 -16.984300
H -38.805600 -19.630700 -16.851300
C -38.779200 -24.347400 -17.301600
O -38.450300 -25.523700 -17.467200
C -38.003500 -21.997400 -16.981800
N -37.781800 -23.364700 -17.111000
O -37.072100 -21.210500 -16.879400
C -36.388000 -23.803100 -17.017600
H -36.369200 -24.711600 -16.679900
H -36.052600 -24.356000 -18.971100
H -35.927800 -23.241000 -16.374100
H -35.669700 -22.857900 -18.698600
C -35.630400 -23.757300 -18.335300
C -34.177400 -24.163000 -18.147200
H -34.143900 -25.060700 -17.782600
H -33.840400 -24.668100 -20.107200
H -33.762000 -23.566200 -17.505000
C -33.380000 -24.125100 -19.448300
H -33.370500 -23.212600 -19.777100
C -31.967400 -24.606800 -19.335700
O -31.565700 -25.193200 -18.351900
H -31.502300 -24.601000 -21.311000
C -31.066300 -24.331900 -20.498700
H -30.870400 -23.393600 -20.537000
H -30.250700 -24.825800 -20.395000
H -43.044000 -31.767800 -14.474300
H -42.633600 -30.558200 -13.563400
H -42.593700 -30.414800 -15.124200
C -42.453900 -31.015400 -14.388600
H -41.238900 -33.474100 -14.466600
N -41.075700 -31.478900 -14.396300
C -40.657800 -32.748400 -14.441000
O -40.628200 -28.431700 -14.397200
C -39.933800 -30.704100 -14.392400
C -39.756600 -29.292800 -14.425700
N -39.337800 -32.873100 -14.446200
C -38.901200 -31.591400 -14.424400
H -38.824000 -27.088900 -15.125500
H -38.561300 -26.815900 -12.807300
N -38.390800 -28.948700 -14.498600
H -38.171700 -24.929600 -14.140400
C -38.076100 -27.519900 -14.685400
H -37.811800 -24.574700 -11.836300
C -37.782400 -26.786000 -13.384300
N -37.593500 -31.177100 -14.432100
C -37.423400 -25.345500 -13.685000
C -37.307800 -29.841900 -14.496100
H -37.305300 -27.442800 -15.270000
O -37.134400 -22.550000 -13.793700
C -37.077800 -24.519800 -12.468300
H -37.045400 -27.216700 -12.922500
C -36.805600 -23.080700 -12.761300
H -36.683400 -32.881400 -14.934900
H -36.667700 -25.335100 -14.292600
C -36.500600 -32.140800 -14.352800
H -36.417100 -32.456600 -13.450800
H -36.402000 -22.582100 -10.832100
H -36.294500 -24.903500 -12.043600
H -36.241300 -21.372000 -11.815900
O -36.160000 -29.432800 -14.549800
C -36.081100 -22.310400 -11.695600
H -35.682000 -31.718000 -14.621400
H -35.139600 -22.486600 -11.758300
