38
Fragment
H -20.008800 -9.440500 -25.479300
H -19.976500 -3.436400 -24.301200
H -19.767600 -8.517900 -20.298600
H -19.631800 -8.201000 -26.361900
C -19.324500 -8.772600 -25.640300
N -19.149000 -7.956400 -24.419800
O -19.146600 -9.896500 -23.205200
C -19.114000 -3.442100 -23.878700
O -19.104300 -6.028300 -25.671700
C -19.096200 -6.563600 -24.563500
C -19.094100 -8.673800 -23.214600
C -19.045300 -5.906800 -23.309000
N -19.030300 -4.568100 -22.967600
H -19.012000 -10.976600 -27.070000
C -18.992400 -6.577900 -22.114400
H -18.991200 -2.625600 -23.389800
N -18.988500 -7.945900 -22.050100
C -18.974200 -4.509300 -21.625500
H -18.957500 -3.713300 -21.144800
N -18.945200 -5.715800 -21.059600
C -18.937400 -8.643400 -20.764300
H -18.794000 -9.580700 -20.914600
H -18.456900 -9.874500 -28.038900
H -18.430200 -3.520500 -24.548700
C -18.254000 -10.398400 -27.249000
H -18.218100 -8.290500 -20.237200
C -18.043100 -9.467800 -26.068600
O -17.871600 -11.911000 -29.627900
H -17.693400 -9.977000 -25.320000
H -17.383100 -8.798000 -26.306300
C -17.042100 -12.065300 -28.772700
C -17.019000 -11.252700 -27.512600
H -16.900000 -11.855900 -26.763000
H -16.245100 -10.668000 -27.540100
H -16.090300 -13.798600 -28.286500
C -15.943000 -13.082200 -28.908900
H -15.938200 -13.431100 -29.804200
H -15.097700 -12.666900 -28.723900
38
Fragment
H -17.171500 -1.470600 -25.479300
H -17.139200 4.533500 -24.301200
H -16.930300 -0.548000 -20.298600
H -16.794500 -0.231100 -26.361900
C -16.487200 -0.802700 -25.640300
N -16.311700 0.013600 -24.419800
O -16.309300 -1.926600 -23.205200
C -16.276700 4.527800 -23.878700
O -16.267000 1.941600 -25.671700
C -16.258900 1.406300 -24.563500
C -16.256800 -0.703900 -23.214600
C -16.207900 2.063100 -23.309000
N -16.193000 3.401800 -22.967600
H -16.174600 -3.006600 -27.070000
C -16.155100 1.392000 -22.114400
H -16.153900 5.344300 -23.389800
N -16.151200 0.024000 -22.050100
C -16.136900 3.460600 -21.625500
H -16.120100 4.256600 -21.144800
N -16.107800 2.254100 -21.059600
C -16.100100 -0.673500 -20.764300
H -15.956600 -1.610800 -20.914600
H -15.619600 -1.904600 -28.038900
H -15.592900 4.449400 -24.548700
C -15.416700 -2.428500 -27.249000
H -15.380800 -0.320500 -20.237200
C -15.205700 -1.497900 -26.068600
O -15.034300 -3.941100 -29.627900
H -14.856100 -2.007100 -25.320000
H -14.545800 -0.828100 -26.306300
C -14.204800 -4.095400 -28.772700
C -14.181700 -3.282800 -27.512600
H -14.062700 -3.886000 -26.763000
H -13.407800 -2.698100 -27.540100
H -13.252900 -5.828600 -28.286500
C -13.105700 -5.112300 -28.908900
H -13.100800 -5.461200 -29.804200
H -12.260300 -4.697000 -28.723900
76
Fragment
H -20.008800 -9.440500 -25.479300
H -19.976500 -3.436400 -24.301200
H -19.767600 -8.517900 -20.298600
H -19.631800 -8.201000 -26.361900
C -19.324500 -8.772600 -25.640300
N -19.149000 -7.956400 -24.419800
O -19.146600 -9.896500 -23.205200
C -19.114000 -3.442100 -23.878700
O -19.104300 -6.028300 -25.671700
C -19.096200 -6.563600 -24.563500
C -19.094100 -8.673800 -23.214600
C -19.045300 -5.906800 -23.309000
N -19.030300 -4.568100 -22.967600
H -19.012000 -10.976600 -27.070000
C -18.992400 -6.577900 -22.114400
H -18.991200 -2.625600 -23.389800
N -18.988500 -7.945900 -22.050100
C -18.974200 -4.509300 -21.625500
H -18.957500 -3.713300 -21.144800
N -18.945200 -5.715800 -21.059600
C -18.937400 -8.643400 -20.764300
H -18.794000 -9.580700 -20.914600
H -18.456900 -9.874500 -28.038900
H -18.430200 -3.520500 -24.548700
C -18.254000 -10.398400 -27.249000
H -18.218100 -8.290500 -20.237200
C -18.043100 -9.467800 -26.068600
O -17.871600 -11.911000 -29.627900
H -17.693400 -9.977000 -25.320000
H -17.383100 -8.798000 -26.306300
C -17.042100 -12.065300 -28.772700
C -17.019000 -11.252700 -27.512600
H -16.900000 -11.855900 -26.763000
H -16.245100 -10.668000 -27.540100
H -16.090300 -13.798600 -28.286500
C -15.943000 -13.082200 -28.908900
H -15.938200 -13.431100 -29.804200
H -15.097700 -12.666900 -28.723900
H -17.171500 -1.470600 -25.479300
H -17.139200 4.533500 -24.301200
H -16.930300 -0.548000 -20.298600
H -16.794500 -0.231100 -26.361900
C -16.487200 -0.802700 -25.640300
N -16.311700 0.013600 -24.419800
O -16.309300 -1.926600 -23.205200
C -16.276700 4.527800 -23.878700
O -16.267000 1.941600 -25.671700
C -16.258900 1.406300 -24.563500
C -16.256800 -0.703900 -23.214600
C -16.207900 2.063100 -23.309000
N -16.193000 3.401800 -22.967600
H -16.174600 -3.006600 -27.070000
C -16.155100 1.392000 -22.114400
H -16.153900 5.344300 -23.389800
N -16.151200 0.024000 -22.050100
C -16.136900 3.460600 -21.625500
H -16.120100 4.256600 -21.144800
N -16.107800 2.254100 -21.059600
C -16.100100 -0.673500 -20.764300
H -15.956600 -1.610800 -20.914600
H -15.619600 -1.904600 -28.038900
H -15.592900 4.449400 -24.548700
C -15.416700 -2.428500 -27.249000
H -15.380800 -0.320500 -20.237200
C -15.205700 -1.497900 -26.068600
O -15.034300 -3.941100 -29.627900
H -14.856100 -2.007100 -25.320000
H -14.545800 -0.828100 -26.306300
C -14.204800 -4.095400 -28.772700
C -14.181700 -3.282800 -27.512600
H -14.062700 -3.886000 -26.763000
H -13.407800 -2.698100 -27.540100
H -13.252900 -5.828600 -28.286500
C -13.105700 -5.112300 -28.908900
H -13.100800 -5.461200 -29.804200
H -12.260300 -4.697000 -28.723900
