35
Fragment
H -13.684700 -16.842800 -28.271300
H -13.550800 -18.191600 -25.893900
C -12.738200 -17.054600 -28.260100
H -12.632600 -17.992800 -30.063900
C -12.618700 -18.217600 -26.160700
O -12.519800 -18.271500 -27.575800
H -12.469000 -16.432200 -30.179000
H -12.331000 -20.229100 -26.013800
H -12.268200 -16.332200 -27.812800
C -12.231900 -17.210600 -29.651700
H -12.181600 -17.419800 -25.826800
H -12.104500 -19.481900 -24.647700
C -11.960500 -19.431200 -25.605900
O -10.827600 -17.356000 -29.609900
H -10.735200 -18.396900 -31.275000
O -10.580200 -19.336000 -25.887700
H -10.275000 -21.295900 -25.901900
C -10.221800 -17.697800 -30.839900
H -10.207300 -16.924700 -31.425200
C -9.841700 -20.507100 -25.541000
H -9.790600 -20.598100 -24.575800
O -8.873300 -19.497800 -30.123200
C -8.822000 -18.174700 -30.594400
O -8.544200 -20.542300 -27.524500
C -8.488300 -20.362900 -26.111100
H -8.388200 -17.606900 -29.939300
H -8.310000 -18.137000 -31.417200
H -8.137700 -19.481900 -25.906700
H -7.895000 -21.023000 -25.719800
C -7.649500 -20.058800 -29.615000
H -7.632100 -21.008700 -29.813100
H -7.505100 -18.929700 -27.972500
C -7.487800 -19.875600 -28.188200
H -6.900200 -19.646900 -30.071900
H -6.635000 -20.238200 -27.902200
11
Fragment
H -16.793800 -15.008100 -34.622200
H -16.636200 -16.138500 -35.564800
N -16.471500 -15.769500 -34.811500
H -15.510200 -18.321500 -35.568000
C -15.490100 -16.204800 -33.979700
N -15.134300 -15.589800 -32.890700
N -14.718300 -18.165100 -35.277400
C -14.674300 -17.358000 -34.180200
H -14.157500 -18.823100 -35.238900
O -14.076700 -16.346300 -32.386700
N -13.823700 -17.450000 -33.212200
46
Fragment
H -13.684700 -16.842800 -28.271300
H -13.550800 -18.191600 -25.893900
C -12.738200 -17.054600 -28.260100
H -12.632600 -17.992800 -30.063900
C -12.618700 -18.217600 -26.160700
O -12.519800 -18.271500 -27.575800
H -12.469000 -16.432200 -30.179000
H -12.331000 -20.229100 -26.013800
H -12.268200 -16.332200 -27.812800
C -12.231900 -17.210600 -29.651700
H -12.181600 -17.419800 -25.826800
H -12.104500 -19.481900 -24.647700
C -11.960500 -19.431200 -25.605900
O -10.827600 -17.356000 -29.609900
H -10.735200 -18.396900 -31.275000
O -10.580200 -19.336000 -25.887700
H -10.275000 -21.295900 -25.901900
C -10.221800 -17.697800 -30.839900
H -10.207300 -16.924700 -31.425200
C -9.841700 -20.507100 -25.541000
H -9.790600 -20.598100 -24.575800
O -8.873300 -19.497800 -30.123200
C -8.822000 -18.174700 -30.594400
O -8.544200 -20.542300 -27.524500
C -8.488300 -20.362900 -26.111100
H -8.388200 -17.606900 -29.939300
H -8.310000 -18.137000 -31.417200
H -8.137700 -19.481900 -25.906700
H -7.895000 -21.023000 -25.719800
C -7.649500 -20.058800 -29.615000
H -7.632100 -21.008700 -29.813100
H -7.505100 -18.929700 -27.972500
C -7.487800 -19.875600 -28.188200
H -6.900200 -19.646900 -30.071900
H -6.635000 -20.238200 -27.902200
H -16.793800 -15.008100 -34.622200
H -16.636200 -16.138500 -35.564800
N -16.471500 -15.769500 -34.811500
H -15.510200 -18.321500 -35.568000
C -15.490100 -16.204800 -33.979700
N -15.134300 -15.589800 -32.890700
N -14.718300 -18.165100 -35.277400
C -14.674300 -17.358000 -34.180200
H -14.157500 -18.823100 -35.238900
O -14.076700 -16.346300 -32.386700
N -13.823700 -17.450000 -33.212200
