35
Fragment
H -13.684700 -16.842800 -28.271300
H -13.550800 -18.191600 -25.893900
C -12.738200 -17.054600 -28.260100
H -12.632600 -17.992800 -30.063900
C -12.618700 -18.217600 -26.160700
O -12.519800 -18.271500 -27.575800
H -12.469000 -16.432200 -30.179000
H -12.331000 -20.229100 -26.013800
H -12.268200 -16.332200 -27.812800
C -12.231900 -17.210600 -29.651700
H -12.181600 -17.419800 -25.826800
H -12.104500 -19.481900 -24.647700
C -11.960500 -19.431200 -25.605900
O -10.827600 -17.356000 -29.609900
H -10.735200 -18.396900 -31.275000
O -10.580200 -19.336000 -25.887700
H -10.275000 -21.295900 -25.901900
C -10.221800 -17.697800 -30.839900
H -10.207300 -16.924700 -31.425200
C -9.841700 -20.507100 -25.541000
H -9.790600 -20.598100 -24.575800
O -8.873300 -19.497800 -30.123200
C -8.822000 -18.174700 -30.594400
O -8.544200 -20.542300 -27.524500
C -8.488300 -20.362900 -26.111100
H -8.388200 -17.606900 -29.939300
H -8.310000 -18.137000 -31.417200
H -8.137700 -19.481900 -25.906700
H -7.895000 -21.023000 -25.719800
C -7.649500 -20.058800 -29.615000
H -7.632100 -21.008700 -29.813100
H -7.505100 -18.929700 -27.972500
C -7.487800 -19.875600 -28.188200
H -6.900200 -19.646900 -30.071900
H -6.635000 -20.238200 -27.902200
35
Fragment
H -11.577700 -18.743800 -36.005800
H -11.312500 -19.335100 -33.836100
C -10.725000 -19.106400 -35.719800
H -10.707700 -20.052300 -35.935500
H -10.580600 -17.973300 -34.094900
C -10.563300 -18.923200 -34.293000
H -10.317800 -17.959000 -38.188200
H -10.075000 -19.500100 -38.001300
H -9.902800 -20.845000 -32.490800
H -9.824500 -21.375100 -33.968700
C -9.724400 -18.619100 -37.797000
O -9.668500 -18.439700 -36.383500
C -9.390700 -20.807300 -33.313700
O -9.339500 -19.484200 -33.784800
H -8.422100 -18.383900 -39.332200
C -8.371000 -18.474900 -38.367000
H -8.005400 -22.057300 -32.482800
C -7.990900 -21.284200 -33.068100
H -7.937700 -17.686100 -38.006100
O -7.632500 -19.646000 -38.020300
H -7.477500 -20.585100 -32.633000
O -7.385100 -21.626000 -34.298200
C -6.252200 -19.550800 -38.302200
H -6.108300 -19.500100 -39.260300
H -6.031100 -21.562200 -38.081200
C -5.980800 -21.771400 -34.256300
H -5.944500 -22.649800 -36.095200
H -5.881800 -18.752900 -37.894300
H -5.743700 -22.549800 -33.729100
O -5.692900 -20.710500 -36.332200
C -5.594000 -20.764400 -37.747300
H -5.580100 -20.989200 -33.844100
C -5.474500 -21.927400 -35.647900
H -4.661900 -20.790400 -38.014100
H -4.528000 -22.139200 -35.636700
70
Fragment
H -13.684700 -16.842800 -28.271300
H -13.550800 -18.191600 -25.893900
C -12.738200 -17.054600 -28.260100
H -12.632600 -17.992800 -30.063900
C -12.618700 -18.217600 -26.160700
O -12.519800 -18.271500 -27.575800
H -12.469000 -16.432200 -30.179000
H -12.331000 -20.229100 -26.013800
H -12.268200 -16.332200 -27.812800
C -12.231900 -17.210600 -29.651700
H -12.181600 -17.419800 -25.826800
H -12.104500 -19.481900 -24.647700
C -11.960500 -19.431200 -25.605900
O -10.827600 -17.356000 -29.609900
H -10.735200 -18.396900 -31.275000
O -10.580200 -19.336000 -25.887700
H -10.275000 -21.295900 -25.901900
C -10.221800 -17.697800 -30.839900
H -10.207300 -16.924700 -31.425200
C -9.841700 -20.507100 -25.541000
H -9.790600 -20.598100 -24.575800
O -8.873300 -19.497800 -30.123200
C -8.822000 -18.174700 -30.594400
O -8.544200 -20.542300 -27.524500
C -8.488300 -20.362900 -26.111100
H -8.388200 -17.606900 -29.939300
H -8.310000 -18.137000 -31.417200
H -8.137700 -19.481900 -25.906700
H -7.895000 -21.023000 -25.719800
C -7.649500 -20.058800 -29.615000
H -7.632100 -21.008700 -29.813100
H -7.505100 -18.929700 -27.972500
C -7.487800 -19.875600 -28.188200
H -6.900200 -19.646900 -30.071900
H -6.635000 -20.238200 -27.902200
H -11.577700 -18.743800 -36.005800
H -11.312500 -19.335100 -33.836100
C -10.725000 -19.106400 -35.719800
H -10.707700 -20.052300 -35.935500
H -10.580600 -17.973300 -34.094900
C -10.563300 -18.923200 -34.293000
H -10.317800 -17.959000 -38.188200
H -10.075000 -19.500100 -38.001300
H -9.902800 -20.845000 -32.490800
H -9.824500 -21.375100 -33.968700
C -9.724400 -18.619100 -37.797000
O -9.668500 -18.439700 -36.383500
C -9.390700 -20.807300 -33.313700
O -9.339500 -19.484200 -33.784800
H -8.422100 -18.383900 -39.332200
C -8.371000 -18.474900 -38.367000
H -8.005400 -22.057300 -32.482800
C -7.990900 -21.284200 -33.068100
H -7.937700 -17.686100 -38.006100
O -7.632500 -19.646000 -38.020300
H -7.477500 -20.585100 -32.633000
O -7.385100 -21.626000 -34.298200
C -6.252200 -19.550800 -38.302200
H -6.108300 -19.500100 -39.260300
H -6.031100 -21.562200 -38.081200
C -5.980800 -21.771400 -34.256300
H -5.944500 -22.649800 -36.095200
H -5.881800 -18.752900 -37.894300
H -5.743700 -22.549800 -33.729100
O -5.692900 -20.710500 -36.332200
C -5.594000 -20.764400 -37.747300
H -5.580100 -20.989200 -33.844100
C -5.474500 -21.927400 -35.647900
H -4.661900 -20.790400 -38.014100
H -4.528000 -22.139200 -35.636700
