35
Fragment
H -13.684700 -16.842800 -28.271300
H -13.550800 -18.191600 -25.893900
C -12.738200 -17.054600 -28.260100
H -12.632600 -17.992800 -30.063900
C -12.618700 -18.217600 -26.160700
O -12.519800 -18.271500 -27.575800
H -12.469000 -16.432200 -30.179000
H -12.331000 -20.229100 -26.013800
H -12.268200 -16.332200 -27.812800
C -12.231900 -17.210600 -29.651700
H -12.181600 -17.419800 -25.826800
H -12.104500 -19.481900 -24.647700
C -11.960500 -19.431200 -25.605900
O -10.827600 -17.356000 -29.609900
H -10.735200 -18.396900 -31.275000
O -10.580200 -19.336000 -25.887700
H -10.275000 -21.295900 -25.901900
C -10.221800 -17.697800 -30.839900
H -10.207300 -16.924700 -31.425200
C -9.841700 -20.507100 -25.541000
H -9.790600 -20.598100 -24.575800
O -8.873300 -19.497800 -30.123200
C -8.822000 -18.174700 -30.594400
O -8.544200 -20.542300 -27.524500
C -8.488300 -20.362900 -26.111100
H -8.388200 -17.606900 -29.939300
H -8.310000 -18.137000 -31.417200
H -8.137700 -19.481900 -25.906700
H -7.895000 -21.023000 -25.719800
C -7.649500 -20.058800 -29.615000
H -7.632100 -21.008700 -29.813100
H -7.505100 -18.929700 -27.972500
C -7.487800 -19.875600 -28.188200
H -6.900200 -19.646900 -30.071900
H -6.635000 -20.238200 -27.902200
35
Fragment
H -12.247100 -26.735200 -28.017300
H -11.981900 -26.143900 -25.847600
C -11.394400 -26.372600 -27.731300
H -11.377100 -25.426700 -27.947000
H -11.250100 -27.505700 -26.106400
C -11.232700 -26.555800 -26.304500
H -10.987200 -27.520000 -30.199700
H -10.744400 -25.978900 -30.012800
H -10.572200 -24.634000 -24.502300
H -10.493900 -24.103900 -25.980200
C -10.393800 -26.859900 -29.808500
O -10.337900 -27.039300 -28.395000
C -10.060100 -24.671700 -25.325100
O -10.008900 -25.994800 -25.796300
H -9.091500 -27.095100 -31.343700
C -9.040400 -27.004100 -30.378500
H -8.674800 -23.421700 -24.494300
C -8.660400 -24.194800 -25.079600
H -8.607200 -27.792900 -30.017600
O -8.301900 -25.833000 -30.031800
H -8.146900 -24.893900 -24.644500
O -8.054500 -23.853000 -26.309700
C -6.921600 -25.928200 -30.313600
H -6.777700 -25.978900 -31.271800
H -6.700500 -23.916800 -30.092700
C -6.650200 -23.707600 -26.267800
H -6.613900 -22.829200 -28.106700
H -6.551200 -26.726100 -29.905800
H -6.413100 -22.929200 -25.740600
O -6.362300 -24.768500 -28.343700
C -6.263400 -24.714600 -29.758800
H -6.249500 -24.489800 -25.855600
C -6.143900 -23.551600 -27.659400
H -5.331300 -24.688600 -30.025600
H -5.197400 -23.339800 -27.648200
70
Fragment
H -13.684700 -16.842800 -28.271300
H -13.550800 -18.191600 -25.893900
C -12.738200 -17.054600 -28.260100
H -12.632600 -17.992800 -30.063900
C -12.618700 -18.217600 -26.160700
O -12.519800 -18.271500 -27.575800
H -12.469000 -16.432200 -30.179000
H -12.331000 -20.229100 -26.013800
H -12.268200 -16.332200 -27.812800
C -12.231900 -17.210600 -29.651700
H -12.181600 -17.419800 -25.826800
H -12.104500 -19.481900 -24.647700
C -11.960500 -19.431200 -25.605900
O -10.827600 -17.356000 -29.609900
H -10.735200 -18.396900 -31.275000
O -10.580200 -19.336000 -25.887700
H -10.275000 -21.295900 -25.901900
C -10.221800 -17.697800 -30.839900
H -10.207300 -16.924700 -31.425200
C -9.841700 -20.507100 -25.541000
H -9.790600 -20.598100 -24.575800
O -8.873300 -19.497800 -30.123200
C -8.822000 -18.174700 -30.594400
O -8.544200 -20.542300 -27.524500
C -8.488300 -20.362900 -26.111100
H -8.388200 -17.606900 -29.939300
H -8.310000 -18.137000 -31.417200
H -8.137700 -19.481900 -25.906700
H -7.895000 -21.023000 -25.719800
C -7.649500 -20.058800 -29.615000
H -7.632100 -21.008700 -29.813100
H -7.505100 -18.929700 -27.972500
C -7.487800 -19.875600 -28.188200
H -6.900200 -19.646900 -30.071900
H -6.635000 -20.238200 -27.902200
H -12.247100 -26.735200 -28.017300
H -11.981900 -26.143900 -25.847600
C -11.394400 -26.372600 -27.731300
H -11.377100 -25.426700 -27.947000
H -11.250100 -27.505700 -26.106400
C -11.232700 -26.555800 -26.304500
H -10.987200 -27.520000 -30.199700
H -10.744400 -25.978900 -30.012800
H -10.572200 -24.634000 -24.502300
H -10.493900 -24.103900 -25.980200
C -10.393800 -26.859900 -29.808500
O -10.337900 -27.039300 -28.395000
C -10.060100 -24.671700 -25.325100
O -10.008900 -25.994800 -25.796300
H -9.091500 -27.095100 -31.343700
C -9.040400 -27.004100 -30.378500
H -8.674800 -23.421700 -24.494300
C -8.660400 -24.194800 -25.079600
H -8.607200 -27.792900 -30.017600
O -8.301900 -25.833000 -30.031800
H -8.146900 -24.893900 -24.644500
O -8.054500 -23.853000 -26.309700
C -6.921600 -25.928200 -30.313600
H -6.777700 -25.978900 -31.271800
H -6.700500 -23.916800 -30.092700
C -6.650200 -23.707600 -26.267800
H -6.613900 -22.829200 -28.106700
H -6.551200 -26.726100 -29.905800
H -6.413100 -22.929200 -25.740600
O -6.362300 -24.768500 -28.343700
C -6.263400 -24.714600 -29.758800
H -6.249500 -24.489800 -25.855600
C -6.143900 -23.551600 -27.659400
H -5.331300 -24.688600 -30.025600
H -5.197400 -23.339800 -27.648200
