11
Fragment
H -14.578900 -23.522300 -25.872600
H -14.322800 -23.208500 -24.574800
N -14.288100 -23.867500 -25.141300
H -13.505100 -23.836100 -22.425700
C -13.235000 -24.708600 -24.962700
N -12.783200 -24.288100 -22.551300
N -12.724500 -25.474400 -25.876800
C -12.554400 -24.948700 -23.699800
H -12.414800 -24.667800 -21.867500
O -11.711000 -26.211400 -25.236200
N -11.621800 -25.833700 -23.879800
39
Fragment
H -21.569300 -30.506800 -19.761700
H -21.003500 -32.581300 -18.925800
H -20.787900 -32.651900 -20.481800
H -20.661600 -28.435500 -20.960400
C -20.628500 -30.742200 -19.753300
C -20.474900 -32.237600 -19.662600
H -20.215500 -30.320100 -18.984400
O -20.002400 -30.287600 -20.950900
C -19.802500 -28.887400 -20.949200
H -19.463000 -28.736800 -22.965700
H -19.334200 -28.626900 -20.141300
H -19.135100 -34.003000 -20.808300
O -19.092200 -32.545800 -19.457500
C -19.000500 -28.479400 -22.153600
H -18.947600 -34.524000 -19.337400
H -18.875800 -27.517500 -22.161900
C -18.691600 -33.828800 -19.964000
O -17.730100 -29.144300 -22.075400
H -17.619400 -27.209900 -23.918900
C -17.203900 -33.839800 -20.156600
H -16.904100 -34.742100 -20.352000
O -16.859500 -32.976400 -21.232800
C -16.835500 -27.704200 -23.849100
H -16.764500 -33.543200 -19.344400
C -16.748800 -28.763400 -22.951800
H -15.789000 -26.695200 -25.255800
C -15.732000 -27.393500 -24.643100
H -15.583300 -32.038400 -23.236500
C -15.570100 -29.516700 -22.863900
O -15.547800 -30.529900 -21.931700
C -15.442900 -32.827700 -21.342800
C -15.119900 -31.817100 -22.413100
H -15.077800 -32.534200 -20.494300
H -15.041500 -33.681300 -21.567500
C -14.553300 -28.112200 -24.531500
C -14.479000 -29.182400 -23.648100
H -14.165900 -31.807700 -22.590400
H -13.814000 -27.878400 -25.046400
H -13.692600 -29.675100 -23.582600
50
Fragment
H -14.578900 -23.522300 -25.872600
H -14.322800 -23.208500 -24.574800
N -14.288100 -23.867500 -25.141300
H -13.505100 -23.836100 -22.425700
C -13.235000 -24.708600 -24.962700
N -12.783200 -24.288100 -22.551300
N -12.724500 -25.474400 -25.876800
C -12.554400 -24.948700 -23.699800
H -12.414800 -24.667800 -21.867500
O -11.711000 -26.211400 -25.236200
N -11.621800 -25.833700 -23.879800
H -21.569300 -30.506800 -19.761700
H -21.003500 -32.581300 -18.925800
H -20.787900 -32.651900 -20.481800
H -20.661600 -28.435500 -20.960400
C -20.628500 -30.742200 -19.753300
C -20.474900 -32.237600 -19.662600
H -20.215500 -30.320100 -18.984400
O -20.002400 -30.287600 -20.950900
C -19.802500 -28.887400 -20.949200
H -19.463000 -28.736800 -22.965700
H -19.334200 -28.626900 -20.141300
H -19.135100 -34.003000 -20.808300
O -19.092200 -32.545800 -19.457500
C -19.000500 -28.479400 -22.153600
H -18.947600 -34.524000 -19.337400
H -18.875800 -27.517500 -22.161900
C -18.691600 -33.828800 -19.964000
O -17.730100 -29.144300 -22.075400
H -17.619400 -27.209900 -23.918900
C -17.203900 -33.839800 -20.156600
H -16.904100 -34.742100 -20.352000
O -16.859500 -32.976400 -21.232800
C -16.835500 -27.704200 -23.849100
H -16.764500 -33.543200 -19.344400
C -16.748800 -28.763400 -22.951800
H -15.789000 -26.695200 -25.255800
C -15.732000 -27.393500 -24.643100
H -15.583300 -32.038400 -23.236500
C -15.570100 -29.516700 -22.863900
O -15.547800 -30.529900 -21.931700
C -15.442900 -32.827700 -21.342800
C -15.119900 -31.817100 -22.413100
H -15.077800 -32.534200 -20.494300
H -15.041500 -33.681300 -21.567500
C -14.553300 -28.112200 -24.531500
C -14.479000 -29.182400 -23.648100
H -14.165900 -31.807700 -22.590400
H -13.814000 -27.878400 -25.046400
H -13.692600 -29.675100 -23.582600
