11
Fragment
H -14.578900 -23.522300 -25.872600
H -14.322800 -23.208500 -24.574800
N -14.288100 -23.867500 -25.141300
H -13.505100 -23.836100 -22.425700
C -13.235000 -24.708600 -24.962700
N -12.783200 -24.288100 -22.551300
N -12.724500 -25.474400 -25.876800
C -12.554400 -24.948700 -23.699800
H -12.414800 -24.667800 -21.867500
O -11.711000 -26.211400 -25.236200
N -11.621800 -25.833700 -23.879800
39
Fragment
H -15.217400 -33.092900 -30.560100
H -15.096000 -34.889600 -32.023900
H -14.744100 -30.960300 -29.567900
C -14.431000 -33.585600 -30.625600
C -14.356700 -34.655800 -31.509000
H -13.868500 -29.086700 -28.545000
H -13.832200 -30.233800 -27.471800
C -13.790100 -30.950900 -29.390600
C -13.467100 -29.940300 -28.320300
O -13.362200 -32.238100 -28.909200
C -13.339900 -33.251300 -29.841400
H -13.326700 -30.729600 -30.214000
C -13.178000 -35.374500 -31.620600
H -13.121000 -36.072800 -32.233300
C -12.161200 -34.004600 -29.929300
H -12.145500 -29.224800 -26.321900
C -12.074500 -35.063800 -30.826600
O -12.050500 -29.791600 -28.210300
H -12.005900 -28.025900 -27.329500
C -11.706100 -28.928200 -27.134100
H -11.290600 -35.558100 -30.896400
O -11.179900 -33.623700 -29.052900
C -10.218400 -28.939200 -26.941500
H -10.034200 -35.250500 -29.139400
H -9.962400 -28.244000 -26.314900
C -9.909500 -34.288600 -29.131100
O -9.817800 -30.222200 -26.435000
H -9.774900 -28.765000 -27.785800
H -9.575800 -34.141100 -27.118800
H -9.447000 -34.031200 -29.943200
C -9.107500 -33.880600 -27.926700
O -8.907600 -32.480400 -27.928400
H -8.694500 -32.447900 -25.961900
C -8.435100 -30.530400 -26.640100
C -8.281500 -32.025800 -26.730800
H -8.248400 -34.332500 -27.937900
H -8.122100 -30.116100 -27.459300
H -7.906500 -30.186700 -25.903300
H -7.340700 -32.261200 -26.739200
50
Fragment
H -14.578900 -23.522300 -25.872600
H -14.322800 -23.208500 -24.574800
N -14.288100 -23.867500 -25.141300
H -13.505100 -23.836100 -22.425700
C -13.235000 -24.708600 -24.962700
N -12.783200 -24.288100 -22.551300
N -12.724500 -25.474400 -25.876800
C -12.554400 -24.948700 -23.699800
H -12.414800 -24.667800 -21.867500
O -11.711000 -26.211400 -25.236200
N -11.621800 -25.833700 -23.879800
H -15.217400 -33.092900 -30.560100
H -15.096000 -34.889600 -32.023900
H -14.744100 -30.960300 -29.567900
C -14.431000 -33.585600 -30.625600
C -14.356700 -34.655800 -31.509000
H -13.868500 -29.086700 -28.545000
H -13.832200 -30.233800 -27.471800
C -13.790100 -30.950900 -29.390600
C -13.467100 -29.940300 -28.320300
O -13.362200 -32.238100 -28.909200
C -13.339900 -33.251300 -29.841400
H -13.326700 -30.729600 -30.214000
C -13.178000 -35.374500 -31.620600
H -13.121000 -36.072800 -32.233300
C -12.161200 -34.004600 -29.929300
H -12.145500 -29.224800 -26.321900
C -12.074500 -35.063800 -30.826600
O -12.050500 -29.791600 -28.210300
H -12.005900 -28.025900 -27.329500
C -11.706100 -28.928200 -27.134100
H -11.290600 -35.558100 -30.896400
O -11.179900 -33.623700 -29.052900
C -10.218400 -28.939200 -26.941500
H -10.034200 -35.250500 -29.139400
H -9.962400 -28.244000 -26.314900
C -9.909500 -34.288600 -29.131100
O -9.817800 -30.222200 -26.435000
H -9.774900 -28.765000 -27.785800
H -9.575800 -34.141100 -27.118800
H -9.447000 -34.031200 -29.943200
C -9.107500 -33.880600 -27.926700
O -8.907600 -32.480400 -27.928400
H -8.694500 -32.447900 -25.961900
C -8.435100 -30.530400 -26.640100
C -8.281500 -32.025800 -26.730800
H -8.248400 -34.332500 -27.937900
H -8.122100 -30.116100 -27.459300
H -7.906500 -30.186700 -25.903300
H -7.340700 -32.261200 -26.739200
