26
Fragment
N -5.228300 -9.088600 -12.441000
H -5.071000 -8.674100 -10.451800
C -4.746900 -8.508400 -11.307300
H -4.608900 -8.819200 -14.310100
C -4.503300 -8.593000 -13.414000
C -3.741600 -7.664800 -11.591800
N -3.581600 -7.710700 -12.957100
H -3.252700 -7.153700 -10.987900
H -2.909700 -7.886600 -15.468800
C -2.653000 -6.939600 -13.710800
C -2.439700 -7.203000 -15.048600
H -2.104700 -5.723500 -12.209200
C -1.958200 -5.912100 -13.108200
C -1.527800 -6.452500 -15.764100
H -1.381400 -6.641100 -16.663200
C -1.046300 -5.161700 -13.823800
C -0.833100 -5.425000 -15.161500
H -0.576400 -4.478000 -13.403500
H -0.233400 -5.210900 -17.884500
N 0.095600 -4.654000 -15.915200
C 0.255600 -4.699800 -17.280600
C 1.017200 -3.771600 -15.458400
H 1.122900 -3.545400 -14.562300
C 1.260800 -3.856200 -17.565100
H 1.585000 -3.690500 -18.420600
N 1.742200 -3.276100 -16.431400
14
Fragment
H -5.980800 -13.433600 -7.169000
O -5.709000 -13.445200 -9.437400
O -5.366200 -12.905100 -7.293600
C -5.095900 -12.838900 -8.593400
H -4.405700 -11.531200 -10.841600
H -4.160800 -11.028000 -8.563500
C -3.945000 -11.917200 -8.887400
C -3.622000 -11.840000 -10.360800
H -3.406300 -12.729200 -10.684700
H -3.161300 -12.226000 -8.406700
C -2.471200 -10.918300 -10.654900
O -2.200800 -10.852100 -11.954600
O -1.858000 -10.312000 -9.810800
H -1.586300 -10.323600 -12.079200
40
Fragment
N -5.228300 -9.088600 -12.441000
H -5.071000 -8.674100 -10.451800
C -4.746900 -8.508400 -11.307300
H -4.608900 -8.819200 -14.310100
C -4.503300 -8.593000 -13.414000
C -3.741600 -7.664800 -11.591800
N -3.581600 -7.710700 -12.957100
H -3.252700 -7.153700 -10.987900
H -2.909700 -7.886600 -15.468800
C -2.653000 -6.939600 -13.710800
C -2.439700 -7.203000 -15.048600
H -2.104700 -5.723500 -12.209200
C -1.958200 -5.912100 -13.108200
C -1.527800 -6.452500 -15.764100
H -1.381400 -6.641100 -16.663200
C -1.046300 -5.161700 -13.823800
C -0.833100 -5.425000 -15.161500
H -0.576400 -4.478000 -13.403500
H -0.233400 -5.210900 -17.884500
N 0.095600 -4.654000 -15.915200
C 0.255600 -4.699800 -17.280600
C 1.017200 -3.771600 -15.458400
H 1.122900 -3.545400 -14.562300
C 1.260800 -3.856200 -17.565100
H 1.585000 -3.690500 -18.420600
N 1.742200 -3.276100 -16.431400
H -5.980800 -13.433600 -7.169000
O -5.709000 -13.445200 -9.437400
O -5.366200 -12.905100 -7.293600
C -5.095900 -12.838900 -8.593400
H -4.405700 -11.531200 -10.841600
H -4.160800 -11.028000 -8.563500
C -3.945000 -11.917200 -8.887400
C -3.622000 -11.840000 -10.360800
H -3.406300 -12.729200 -10.684700
H -3.161300 -12.226000 -8.406700
C -2.471200 -10.918300 -10.654900
O -2.200800 -10.852100 -11.954600
O -1.858000 -10.312000 -9.810800
H -1.586300 -10.323600 -12.079200
