24
Fragment
H -28.871700 -12.566400 -25.714700
H -28.749200 -12.454500 -23.286000
O -28.264800 -13.307900 -25.707600
C -27.963700 -12.950100 -23.334100
C -27.574900 -13.496400 -24.541500
H -27.479600 -12.742100 -21.398200
C -27.199100 -13.131100 -22.194500
C -26.425200 -14.263500 -24.574600
H -26.307000 -12.966200 -19.697000
H -26.157000 -14.659100 -25.372500
C -26.020100 -13.879300 -22.203200
C -25.669400 -14.446400 -23.429500
C -25.537800 -13.486200 -19.746800
C -25.187100 -14.053400 -20.973100
H -25.050200 -13.273500 -17.803700
H -24.900100 -14.966500 -23.479300
C -24.781900 -13.669200 -18.601600
C -24.008100 -14.801500 -20.981700
H -23.727600 -15.190500 -21.778100
C -23.632300 -14.436300 -18.634800
C -23.243500 -14.982500 -19.842200
O -22.942400 -14.624700 -17.468700
H -22.458000 -15.478200 -19.890200
H -22.335400 -15.366200 -17.461600
24
Fragment
H -26.823900 -12.337000 -14.920600
H -26.701300 -12.225000 -12.492000
O -26.217000 -13.078500 -14.913500
C -25.915800 -12.720700 -12.540000
C -25.527000 -13.266900 -13.747400
H -25.431700 -12.512700 -10.604100
C -25.151300 -12.901700 -11.400500
C -24.377400 -14.034000 -13.780600
H -24.259200 -12.736800 -8.902900
H -24.109200 -14.429700 -14.578500
C -23.972300 -13.649800 -11.409100
C -23.621500 -14.217000 -12.635400
C -23.490000 -13.256800 -8.952700
C -23.139200 -13.823900 -10.179000
H -23.002300 -13.044100 -7.009700
H -22.852300 -14.737000 -12.685200
C -22.734100 -13.439700 -7.807600
C -21.960200 -14.572100 -10.187700
H -21.679800 -14.961100 -10.984000
C -21.584500 -14.206800 -7.840700
C -21.195700 -14.753100 -9.048100
O -20.894500 -14.395300 -6.674600
H -20.410200 -15.248700 -9.096200
H -20.287600 -15.136800 -6.667500
48
Fragment
H -28.871700 -12.566400 -25.714700
H -28.749200 -12.454500 -23.286000
O -28.264800 -13.307900 -25.707600
C -27.963700 -12.950100 -23.334100
C -27.574900 -13.496400 -24.541500
H -27.479600 -12.742100 -21.398200
C -27.199100 -13.131100 -22.194500
C -26.425200 -14.263500 -24.574600
H -26.307000 -12.966200 -19.697000
H -26.157000 -14.659100 -25.372500
C -26.020100 -13.879300 -22.203200
C -25.669400 -14.446400 -23.429500
C -25.537800 -13.486200 -19.746800
C -25.187100 -14.053400 -20.973100
H -25.050200 -13.273500 -17.803700
H -24.900100 -14.966500 -23.479300
C -24.781900 -13.669200 -18.601600
C -24.008100 -14.801500 -20.981700
H -23.727600 -15.190500 -21.778100
C -23.632300 -14.436300 -18.634800
C -23.243500 -14.982500 -19.842200
O -22.942400 -14.624700 -17.468700
H -22.458000 -15.478200 -19.890200
H -22.335400 -15.366200 -17.461600
H -26.823900 -12.337000 -14.920600
H -26.701300 -12.225000 -12.492000
O -26.217000 -13.078500 -14.913500
C -25.915800 -12.720700 -12.540000
C -25.527000 -13.266900 -13.747400
H -25.431700 -12.512700 -10.604100
C -25.151300 -12.901700 -11.400500
C -24.377400 -14.034000 -13.780600
H -24.259200 -12.736800 -8.902900
H -24.109200 -14.429700 -14.578500
C -23.972300 -13.649800 -11.409100
C -23.621500 -14.217000 -12.635400
C -23.490000 -13.256800 -8.952700
C -23.139200 -13.823900 -10.179000
H -23.002300 -13.044100 -7.009700
H -22.852300 -14.737000 -12.685200
C -22.734100 -13.439700 -7.807600
C -21.960200 -14.572100 -10.187700
H -21.679800 -14.961100 -10.984000
C -21.584500 -14.206800 -7.840700
C -21.195700 -14.753100 -9.048100
O -20.894500 -14.395300 -6.674600
H -20.410200 -15.248700 -9.096200
H -20.287600 -15.136800 -6.667500
