24
Fragment
H -28.871700 -12.566400 -25.714700
H -28.749200 -12.454500 -23.286000
O -28.264800 -13.307900 -25.707600
C -27.963700 -12.950100 -23.334100
C -27.574900 -13.496400 -24.541500
H -27.479600 -12.742100 -21.398200
C -27.199100 -13.131100 -22.194500
C -26.425200 -14.263500 -24.574600
H -26.307000 -12.966200 -19.697000
H -26.157000 -14.659100 -25.372500
C -26.020100 -13.879300 -22.203200
C -25.669400 -14.446400 -23.429500
C -25.537800 -13.486200 -19.746800
C -25.187100 -14.053400 -20.973100
H -25.050200 -13.273500 -17.803700
H -24.900100 -14.966500 -23.479300
C -24.781900 -13.669200 -18.601600
C -24.008100 -14.801500 -20.981700
H -23.727600 -15.190500 -21.778100
C -23.632300 -14.436300 -18.634800
C -23.243500 -14.982500 -19.842200
O -22.942400 -14.624700 -17.468700
H -22.458000 -15.478200 -19.890200
H -22.335400 -15.366200 -17.461600
24
Fragment
O -37.547300 -7.834900 -23.428700
H -37.403700 -6.995100 -23.894800
H -37.081400 -9.951000 -22.137600
C -36.354600 -8.225100 -22.887100
C -36.305500 -9.448000 -22.236900
H -35.230800 -6.636700 -23.388600
C -35.205300 -7.471600 -22.978900
C -35.109300 -9.921500 -21.736400
H -35.096200 -10.749300 -21.312900
C -34.015400 -7.948300 -22.466100
C -33.917300 -9.199900 -21.843400
H -33.292100 -11.506700 -20.640400
H -33.252400 -7.420900 -22.535900
C -32.627200 -9.727800 -21.332900
C -32.529100 -10.979400 -20.710100
H -31.448400 -8.178400 -21.863400
C -31.435200 -9.006200 -21.439800
C -31.339300 -11.456100 -20.197300
H -31.313700 -12.291000 -19.787700
C -30.239100 -9.479700 -20.939400
C -30.190000 -10.702600 -20.289200
H -29.463100 -8.976700 -21.038700
H -29.140800 -11.932600 -19.281400
O -28.997200 -11.092800 -19.747500
48
Fragment
H -28.871700 -12.566400 -25.714700
H -28.749200 -12.454500 -23.286000
O -28.264800 -13.307900 -25.707600
C -27.963700 -12.950100 -23.334100
C -27.574900 -13.496400 -24.541500
H -27.479600 -12.742100 -21.398200
C -27.199100 -13.131100 -22.194500
C -26.425200 -14.263500 -24.574600
H -26.307000 -12.966200 -19.697000
H -26.157000 -14.659100 -25.372500
C -26.020100 -13.879300 -22.203200
C -25.669400 -14.446400 -23.429500
C -25.537800 -13.486200 -19.746800
C -25.187100 -14.053400 -20.973100
H -25.050200 -13.273500 -17.803700
H -24.900100 -14.966500 -23.479300
C -24.781900 -13.669200 -18.601600
C -24.008100 -14.801500 -20.981700
H -23.727600 -15.190500 -21.778100
C -23.632300 -14.436300 -18.634800
C -23.243500 -14.982500 -19.842200
O -22.942400 -14.624700 -17.468700
H -22.458000 -15.478200 -19.890200
H -22.335400 -15.366200 -17.461600
O -37.547300 -7.834900 -23.428700
H -37.403700 -6.995100 -23.894800
H -37.081400 -9.951000 -22.137600
C -36.354600 -8.225100 -22.887100
C -36.305500 -9.448000 -22.236900
H -35.230800 -6.636700 -23.388600
C -35.205300 -7.471600 -22.978900
C -35.109300 -9.921500 -21.736400
H -35.096200 -10.749300 -21.312900
C -34.015400 -7.948300 -22.466100
C -33.917300 -9.199900 -21.843400
H -33.292100 -11.506700 -20.640400
H -33.252400 -7.420900 -22.535900
C -32.627200 -9.727800 -21.332900
C -32.529100 -10.979400 -20.710100
H -31.448400 -8.178400 -21.863400
C -31.435200 -9.006200 -21.439800
C -31.339300 -11.456100 -20.197300
H -31.313700 -12.291000 -19.787700
C -30.239100 -9.479700 -20.939400
C -30.190000 -10.702600 -20.289200
H -29.463100 -8.976700 -21.038700
H -29.140800 -11.932600 -19.281400
O -28.997200 -11.092800 -19.747500
