26
Fragment
H -9.665000 -29.713100 -21.312900
H -9.449900 -29.486500 -18.905800
H -9.138100 -29.576800 -23.469200
C -8.916200 -29.407700 -20.852800
C -8.786700 -29.282000 -19.524700
H -8.624500 -29.466200 -25.702900
C -8.293900 -29.287700 -23.730600
H -7.986400 -29.768300 -27.836600
C -7.983100 -29.229300 -25.072700
N -7.723200 -28.993500 -21.401800
N -7.539100 -28.810600 -19.205900
C -7.389500 -28.931800 -22.783500
C -7.163300 -29.342300 -27.905500
C -6.933800 -28.646700 -20.352500
C -6.746800 -28.829200 -25.487000
H -6.735000 -29.368600 -29.881500
C -6.462700 -29.113100 -29.029600
N -6.417200 -28.819700 -26.880100
C -6.161800 -28.477000 -23.195600
H -6.063400 -28.329700 -20.439200
C -5.842900 -28.439800 -24.542500
H -5.539900 -28.191500 -22.565800
C -5.313300 -28.293600 -27.454100
N -5.304100 -28.459900 -28.754900
H -5.000800 -28.145400 -24.806600
H -4.638500 -27.863600 -26.981100
26
Fragment
H -13.364300 -27.399400 -15.298000
H -13.002000 -27.117600 -17.472600
N -12.698600 -26.803100 -13.524300
C -12.689500 -26.969400 -14.825000
H -12.462900 -27.071500 -19.713400
C -12.159900 -26.823200 -17.736700
H -11.939400 -26.933300 -21.840000
C -11.841000 -26.786000 -19.083500
N -11.585600 -26.443300 -15.399100
C -11.540100 -26.149900 -13.249600
H -11.267800 -25.894400 -12.397700
C -11.255900 -26.433800 -16.792200
C -11.068900 -26.616300 -21.926700
C -10.839500 -25.920700 -14.373600
C -10.613300 -26.331200 -19.495600
N -10.463700 -26.452400 -23.073300
N -10.279600 -26.269500 -20.877300
C -10.019700 -26.033700 -17.206500
H -10.016300 -25.494700 -14.442600
C -9.708900 -25.975300 -18.548600
H -9.378200 -25.796800 -16.576200
C -9.216100 -25.981000 -22.754500
C -9.086500 -25.855300 -21.426400
H -8.864700 -25.686200 -18.810000
H -8.552900 -25.776500 -23.373300
H -8.337800 -25.549900 -20.966200
52
Fragment
H -9.665000 -29.713100 -21.312900
H -9.449900 -29.486500 -18.905800
H -9.138100 -29.576800 -23.469200
C -8.916200 -29.407700 -20.852800
C -8.786700 -29.282000 -19.524700
H -8.624500 -29.466200 -25.702900
C -8.293900 -29.287700 -23.730600
H -7.986400 -29.768300 -27.836600
C -7.983100 -29.229300 -25.072700
N -7.723200 -28.993500 -21.401800
N -7.539100 -28.810600 -19.205900
C -7.389500 -28.931800 -22.783500
C -7.163300 -29.342300 -27.905500
C -6.933800 -28.646700 -20.352500
C -6.746800 -28.829200 -25.487000
H -6.735000 -29.368600 -29.881500
C -6.462700 -29.113100 -29.029600
N -6.417200 -28.819700 -26.880100
C -6.161800 -28.477000 -23.195600
H -6.063400 -28.329700 -20.439200
C -5.842900 -28.439800 -24.542500
H -5.539900 -28.191500 -22.565800
C -5.313300 -28.293600 -27.454100
N -5.304100 -28.459900 -28.754900
H -5.000800 -28.145400 -24.806600
H -4.638500 -27.863600 -26.981100
H -13.364300 -27.399400 -15.298000
H -13.002000 -27.117600 -17.472600
N -12.698600 -26.803100 -13.524300
C -12.689500 -26.969400 -14.825000
H -12.462900 -27.071500 -19.713400
C -12.159900 -26.823200 -17.736700
H -11.939400 -26.933300 -21.840000
C -11.841000 -26.786000 -19.083500
N -11.585600 -26.443300 -15.399100
C -11.540100 -26.149900 -13.249600
H -11.267800 -25.894400 -12.397700
C -11.255900 -26.433800 -16.792200
C -11.068900 -26.616300 -21.926700
C -10.839500 -25.920700 -14.373600
C -10.613300 -26.331200 -19.495600
N -10.463700 -26.452400 -23.073300
N -10.279600 -26.269500 -20.877300
C -10.019700 -26.033700 -17.206500
H -10.016300 -25.494700 -14.442600
C -9.708900 -25.975300 -18.548600
H -9.378200 -25.796800 -16.576200
C -9.216100 -25.981000 -22.754500
C -9.086500 -25.855300 -21.426400
H -8.864700 -25.686200 -18.810000
H -8.552900 -25.776500 -23.373300
H -8.337800 -25.549900 -20.966200
