24
Fragment
H -28.871700 -12.566400 -25.714700
H -28.749200 -12.454500 -23.286000
O -28.264800 -13.307900 -25.707600
C -27.963700 -12.950100 -23.334100
C -27.574900 -13.496400 -24.541500
H -27.479600 -12.742100 -21.398200
C -27.199100 -13.131100 -22.194500
C -26.425200 -14.263500 -24.574600
H -26.307000 -12.966200 -19.697000
H -26.157000 -14.659100 -25.372500
C -26.020100 -13.879300 -22.203200
C -25.669400 -14.446400 -23.429500
C -25.537800 -13.486200 -19.746800
C -25.187100 -14.053400 -20.973100
H -25.050200 -13.273500 -17.803700
H -24.900100 -14.966500 -23.479300
C -24.781900 -13.669200 -18.601600
C -24.008100 -14.801500 -20.981700
H -23.727600 -15.190500 -21.778100
C -23.632300 -14.436300 -18.634800
C -23.243500 -14.982500 -19.842200
O -22.942400 -14.624700 -17.468700
H -22.458000 -15.478200 -19.890200
H -22.335400 -15.366200 -17.461600
26
Fragment
H -31.818300 -14.671600 -31.001600
C -31.281500 -14.748300 -30.245800
N -31.125500 -13.765700 -29.293900
C -30.550200 -15.832800 -29.933000
H -30.484300 -16.623200 -30.417700
C -30.293900 -14.282200 -28.420600
H -29.997400 -13.835200 -27.660900
N -29.918700 -15.532100 -28.749300
H -29.520900 -15.916800 -26.204800
C -28.935800 -16.333800 -28.091600
C -28.893100 -16.379300 -26.711400
H -28.066500 -17.005600 -29.771100
C -28.017400 -17.029300 -28.842300
C -27.906900 -17.120500 -26.093800
H -27.874900 -17.163500 -25.165300
C -27.022400 -17.763400 -28.225000
C -26.971000 -17.796500 -26.841500
H -26.397000 -18.228900 -28.731600
N -25.929500 -18.518100 -26.184400
H -25.546000 -20.121400 -27.357600
H -25.523700 -17.415400 -24.477700
C -25.330500 -18.161300 -24.998200
C -25.329800 -19.663100 -26.577500
C -24.413000 -19.105900 -24.744000
N -24.405500 -20.053400 -25.730000
H -23.857200 -19.114400 -23.998400
50
Fragment
H -28.871700 -12.566400 -25.714700
H -28.749200 -12.454500 -23.286000
O -28.264800 -13.307900 -25.707600
C -27.963700 -12.950100 -23.334100
C -27.574900 -13.496400 -24.541500
H -27.479600 -12.742100 -21.398200
C -27.199100 -13.131100 -22.194500
C -26.425200 -14.263500 -24.574600
H -26.307000 -12.966200 -19.697000
H -26.157000 -14.659100 -25.372500
C -26.020100 -13.879300 -22.203200
C -25.669400 -14.446400 -23.429500
C -25.537800 -13.486200 -19.746800
C -25.187100 -14.053400 -20.973100
H -25.050200 -13.273500 -17.803700
H -24.900100 -14.966500 -23.479300
C -24.781900 -13.669200 -18.601600
C -24.008100 -14.801500 -20.981700
H -23.727600 -15.190500 -21.778100
C -23.632300 -14.436300 -18.634800
C -23.243500 -14.982500 -19.842200
O -22.942400 -14.624700 -17.468700
H -22.458000 -15.478200 -19.890200
H -22.335400 -15.366200 -17.461600
H -31.818300 -14.671600 -31.001600
C -31.281500 -14.748300 -30.245800
N -31.125500 -13.765700 -29.293900
C -30.550200 -15.832800 -29.933000
H -30.484300 -16.623200 -30.417700
C -30.293900 -14.282200 -28.420600
H -29.997400 -13.835200 -27.660900
N -29.918700 -15.532100 -28.749300
H -29.520900 -15.916800 -26.204800
C -28.935800 -16.333800 -28.091600
C -28.893100 -16.379300 -26.711400
H -28.066500 -17.005600 -29.771100
C -28.017400 -17.029300 -28.842300
C -27.906900 -17.120500 -26.093800
H -27.874900 -17.163500 -25.165300
C -27.022400 -17.763400 -28.225000
C -26.971000 -17.796500 -26.841500
H -26.397000 -18.228900 -28.731600
N -25.929500 -18.518100 -26.184400
H -25.546000 -20.121400 -27.357600
H -25.523700 -17.415400 -24.477700
C -25.330500 -18.161300 -24.998200
C -25.329800 -19.663100 -26.577500
C -24.413000 -19.105900 -24.744000
N -24.405500 -20.053400 -25.730000
H -23.857200 -19.114400 -23.998400
