24
Fragment
H -28.871700 -12.566400 -25.714700
H -28.749200 -12.454500 -23.286000
O -28.264800 -13.307900 -25.707600
C -27.963700 -12.950100 -23.334100
C -27.574900 -13.496400 -24.541500
H -27.479600 -12.742100 -21.398200
C -27.199100 -13.131100 -22.194500
C -26.425200 -14.263500 -24.574600
H -26.307000 -12.966200 -19.697000
H -26.157000 -14.659100 -25.372500
C -26.020100 -13.879300 -22.203200
C -25.669400 -14.446400 -23.429500
C -25.537800 -13.486200 -19.746800
C -25.187100 -14.053400 -20.973100
H -25.050200 -13.273500 -17.803700
H -24.900100 -14.966500 -23.479300
C -24.781900 -13.669200 -18.601600
C -24.008100 -14.801500 -20.981700
H -23.727600 -15.190500 -21.778100
C -23.632300 -14.436300 -18.634800
C -23.243500 -14.982500 -19.842200
O -22.942400 -14.624700 -17.468700
H -22.458000 -15.478200 -19.890200
H -22.335400 -15.366200 -17.461600
26
Fragment
H -37.263700 -5.666600 -31.001600
C -36.726900 -5.743300 -30.245800
N -36.570800 -4.760700 -29.293900
C -35.995600 -6.827800 -29.933000
H -35.929700 -7.618200 -30.417700
C -35.739300 -5.277200 -28.420600
H -35.442800 -4.830200 -27.660900
N -35.364100 -6.527100 -28.749300
H -34.966300 -6.911800 -26.204800
C -34.381200 -7.328900 -28.091600
C -34.338500 -7.374400 -26.711400
H -33.511800 -8.000700 -29.771100
C -33.462800 -8.024300 -28.842300
C -33.352300 -8.115600 -26.093800
H -33.320300 -8.158500 -25.165300
C -32.467800 -8.758400 -28.225000
C -32.416400 -8.791500 -26.841500
H -31.842400 -9.224000 -28.731600
N -31.374900 -9.513100 -26.184400
H -30.991400 -11.116400 -27.357600
H -30.969100 -8.410400 -24.477700
C -30.775900 -9.156300 -24.998200
C -30.775200 -10.658100 -26.577500
C -29.858400 -10.100900 -24.744000
N -29.850900 -11.048400 -25.730000
H -29.302600 -10.109400 -23.998400
50
Fragment
H -28.871700 -12.566400 -25.714700
H -28.749200 -12.454500 -23.286000
O -28.264800 -13.307900 -25.707600
C -27.963700 -12.950100 -23.334100
C -27.574900 -13.496400 -24.541500
H -27.479600 -12.742100 -21.398200
C -27.199100 -13.131100 -22.194500
C -26.425200 -14.263500 -24.574600
H -26.307000 -12.966200 -19.697000
H -26.157000 -14.659100 -25.372500
C -26.020100 -13.879300 -22.203200
C -25.669400 -14.446400 -23.429500
C -25.537800 -13.486200 -19.746800
C -25.187100 -14.053400 -20.973100
H -25.050200 -13.273500 -17.803700
H -24.900100 -14.966500 -23.479300
C -24.781900 -13.669200 -18.601600
C -24.008100 -14.801500 -20.981700
H -23.727600 -15.190500 -21.778100
C -23.632300 -14.436300 -18.634800
C -23.243500 -14.982500 -19.842200
O -22.942400 -14.624700 -17.468700
H -22.458000 -15.478200 -19.890200
H -22.335400 -15.366200 -17.461600
H -37.263700 -5.666600 -31.001600
C -36.726900 -5.743300 -30.245800
N -36.570800 -4.760700 -29.293900
C -35.995600 -6.827800 -29.933000
H -35.929700 -7.618200 -30.417700
C -35.739300 -5.277200 -28.420600
H -35.442800 -4.830200 -27.660900
N -35.364100 -6.527100 -28.749300
H -34.966300 -6.911800 -26.204800
C -34.381200 -7.328900 -28.091600
C -34.338500 -7.374400 -26.711400
H -33.511800 -8.000700 -29.771100
C -33.462800 -8.024300 -28.842300
C -33.352300 -8.115600 -26.093800
H -33.320300 -8.158500 -25.165300
C -32.467800 -8.758400 -28.225000
C -32.416400 -8.791500 -26.841500
H -31.842400 -9.224000 -28.731600
N -31.374900 -9.513100 -26.184400
H -30.991400 -11.116400 -27.357600
H -30.969100 -8.410400 -24.477700
C -30.775900 -9.156300 -24.998200
C -30.775200 -10.658100 -26.577500
C -29.858400 -10.100900 -24.744000
N -29.850900 -11.048400 -25.730000
H -29.302600 -10.109400 -23.998400
