26
Fragment
H -9.665000 -29.713100 -21.312900
H -9.449900 -29.486500 -18.905800
H -9.138100 -29.576800 -23.469200
C -8.916200 -29.407700 -20.852800
C -8.786700 -29.282000 -19.524700
H -8.624500 -29.466200 -25.702900
C -8.293900 -29.287700 -23.730600
H -7.986400 -29.768300 -27.836600
C -7.983100 -29.229300 -25.072700
N -7.723200 -28.993500 -21.401800
N -7.539100 -28.810600 -19.205900
C -7.389500 -28.931800 -22.783500
C -7.163300 -29.342300 -27.905500
C -6.933800 -28.646700 -20.352500
C -6.746800 -28.829200 -25.487000
H -6.735000 -29.368600 -29.881500
C -6.462700 -29.113100 -29.029600
N -6.417200 -28.819700 -26.880100
C -6.161800 -28.477000 -23.195600
H -6.063400 -28.329700 -20.439200
C -5.842900 -28.439800 -24.542500
H -5.539900 -28.191500 -22.565800
C -5.313300 -28.293600 -27.454100
N -5.304100 -28.459900 -28.754900
H -5.000800 -28.145400 -24.806600
H -4.638500 -27.863600 -26.981100
26
Fragment
H -6.019400 -34.263100 -34.203800
H -5.698800 -34.742000 -31.906700
N -5.604700 -33.612800 -30.281900
H -5.472100 -34.307300 -36.446000
C -5.467000 -33.916600 -31.544600
C -5.327900 -33.728300 -34.524300
C -5.157400 -32.327200 -30.182700
H -5.136600 -31.835200 -29.393900
C -5.000600 -33.756700 -35.864400
N -4.950800 -32.898200 -32.266700
C -4.749600 -31.866900 -31.377300
C -4.631300 -32.906200 -33.655900
H -4.490600 -34.673800 -38.430300
H -4.403400 -31.024600 -31.565600
C -3.971000 -32.967000 -36.344300
C -3.948600 -33.943500 -38.626400
C -3.618800 -32.108500 -34.146100
N -3.611200 -33.015000 -37.725700
N -3.441800 -33.721700 -39.804600
C -3.292700 -32.132700 -35.484200
H -3.151800 -31.549600 -33.568200
C -2.839800 -32.132900 -38.412700
C -2.753600 -32.585600 -39.672500
H -2.613900 -31.584600 -35.807600
H -2.447400 -31.361800 -38.073800
H -2.281000 -32.166800 -40.356900
52
Fragment
H -9.665000 -29.713100 -21.312900
H -9.449900 -29.486500 -18.905800
H -9.138100 -29.576800 -23.469200
C -8.916200 -29.407700 -20.852800
C -8.786700 -29.282000 -19.524700
H -8.624500 -29.466200 -25.702900
C -8.293900 -29.287700 -23.730600
H -7.986400 -29.768300 -27.836600
C -7.983100 -29.229300 -25.072700
N -7.723200 -28.993500 -21.401800
N -7.539100 -28.810600 -19.205900
C -7.389500 -28.931800 -22.783500
C -7.163300 -29.342300 -27.905500
C -6.933800 -28.646700 -20.352500
C -6.746800 -28.829200 -25.487000
H -6.735000 -29.368600 -29.881500
C -6.462700 -29.113100 -29.029600
N -6.417200 -28.819700 -26.880100
C -6.161800 -28.477000 -23.195600
H -6.063400 -28.329700 -20.439200
C -5.842900 -28.439800 -24.542500
H -5.539900 -28.191500 -22.565800
C -5.313300 -28.293600 -27.454100
N -5.304100 -28.459900 -28.754900
H -5.000800 -28.145400 -24.806600
H -4.638500 -27.863600 -26.981100
H -6.019400 -34.263100 -34.203800
H -5.698800 -34.742000 -31.906700
N -5.604700 -33.612800 -30.281900
H -5.472100 -34.307300 -36.446000
C -5.467000 -33.916600 -31.544600
C -5.327900 -33.728300 -34.524300
C -5.157400 -32.327200 -30.182700
H -5.136600 -31.835200 -29.393900
C -5.000600 -33.756700 -35.864400
N -4.950800 -32.898200 -32.266700
C -4.749600 -31.866900 -31.377300
C -4.631300 -32.906200 -33.655900
H -4.490600 -34.673800 -38.430300
H -4.403400 -31.024600 -31.565600
C -3.971000 -32.967000 -36.344300
C -3.948600 -33.943500 -38.626400
C -3.618800 -32.108500 -34.146100
N -3.611200 -33.015000 -37.725700
N -3.441800 -33.721700 -39.804600
C -3.292700 -32.132700 -35.484200
H -3.151800 -31.549600 -33.568200
C -2.839800 -32.132900 -38.412700
C -2.753600 -32.585600 -39.672500
H -2.613900 -31.584600 -35.807600
H -2.447400 -31.361800 -38.073800
H -2.281000 -32.166800 -40.356900
