26
Fragment
H -9.665000 -29.713100 -21.312900
H -9.449900 -29.486500 -18.905800
H -9.138100 -29.576800 -23.469200
C -8.916200 -29.407700 -20.852800
C -8.786700 -29.282000 -19.524700
H -8.624500 -29.466200 -25.702900
C -8.293900 -29.287700 -23.730600
H -7.986400 -29.768300 -27.836600
C -7.983100 -29.229300 -25.072700
N -7.723200 -28.993500 -21.401800
N -7.539100 -28.810600 -19.205900
C -7.389500 -28.931800 -22.783500
C -7.163300 -29.342300 -27.905500
C -6.933800 -28.646700 -20.352500
C -6.746800 -28.829200 -25.487000
H -6.735000 -29.368600 -29.881500
C -6.462700 -29.113100 -29.029600
N -6.417200 -28.819700 -26.880100
C -6.161800 -28.477000 -23.195600
H -6.063400 -28.329700 -20.439200
C -5.842900 -28.439800 -24.542500
H -5.539900 -28.191500 -22.565800
C -5.313300 -28.293600 -27.454100
N -5.304100 -28.459900 -28.754900
H -5.000800 -28.145400 -24.806600
H -4.638500 -27.863600 -26.981100
26
Fragment
H -10.456000 -27.399400 -29.391100
H -10.093700 -27.117600 -31.565600
N -9.790400 -26.803100 -27.617300
C -9.781200 -26.969400 -28.918100
H -9.554700 -27.071500 -33.806400
C -9.251600 -26.823200 -31.829700
H -9.031200 -26.933300 -35.933000
C -8.932700 -26.786000 -33.176600
N -8.677300 -26.443300 -29.492100
C -8.631800 -26.149900 -27.342600
H -8.359500 -25.894400 -26.490700
C -8.347700 -26.433800 -30.885200
C -8.160700 -26.616300 -36.019700
C -7.931300 -25.920700 -28.466700
C -7.705100 -26.331200 -33.588700
N -7.555400 -26.452400 -37.166300
N -7.371300 -26.269500 -34.970400
C -7.111500 -26.033700 -31.299500
H -7.108100 -25.494700 -28.535600
C -6.800600 -25.975300 -32.641600
H -6.470000 -25.796800 -30.669300
C -6.307800 -25.981000 -36.847500
C -6.178300 -25.855300 -35.519400
H -5.956500 -25.686200 -32.903000
H -5.644600 -25.776500 -37.466400
H -5.429500 -25.549900 -35.059300
52
Fragment
H -9.665000 -29.713100 -21.312900
H -9.449900 -29.486500 -18.905800
H -9.138100 -29.576800 -23.469200
C -8.916200 -29.407700 -20.852800
C -8.786700 -29.282000 -19.524700
H -8.624500 -29.466200 -25.702900
C -8.293900 -29.287700 -23.730600
H -7.986400 -29.768300 -27.836600
C -7.983100 -29.229300 -25.072700
N -7.723200 -28.993500 -21.401800
N -7.539100 -28.810600 -19.205900
C -7.389500 -28.931800 -22.783500
C -7.163300 -29.342300 -27.905500
C -6.933800 -28.646700 -20.352500
C -6.746800 -28.829200 -25.487000
H -6.735000 -29.368600 -29.881500
C -6.462700 -29.113100 -29.029600
N -6.417200 -28.819700 -26.880100
C -6.161800 -28.477000 -23.195600
H -6.063400 -28.329700 -20.439200
C -5.842900 -28.439800 -24.542500
H -5.539900 -28.191500 -22.565800
C -5.313300 -28.293600 -27.454100
N -5.304100 -28.459900 -28.754900
H -5.000800 -28.145400 -24.806600
H -4.638500 -27.863600 -26.981100
H -10.456000 -27.399400 -29.391100
H -10.093700 -27.117600 -31.565600
N -9.790400 -26.803100 -27.617300
C -9.781200 -26.969400 -28.918100
H -9.554700 -27.071500 -33.806400
C -9.251600 -26.823200 -31.829700
H -9.031200 -26.933300 -35.933000
C -8.932700 -26.786000 -33.176600
N -8.677300 -26.443300 -29.492100
C -8.631800 -26.149900 -27.342600
H -8.359500 -25.894400 -26.490700
C -8.347700 -26.433800 -30.885200
C -8.160700 -26.616300 -36.019700
C -7.931300 -25.920700 -28.466700
C -7.705100 -26.331200 -33.588700
N -7.555400 -26.452400 -37.166300
N -7.371300 -26.269500 -34.970400
C -7.111500 -26.033700 -31.299500
H -7.108100 -25.494700 -28.535600
C -6.800600 -25.975300 -32.641600
H -6.470000 -25.796800 -30.669300
C -6.307800 -25.981000 -36.847500
C -6.178300 -25.855300 -35.519400
H -5.956500 -25.686200 -32.903000
H -5.644600 -25.776500 -37.466400
H -5.429500 -25.549900 -35.059300
