24
Fragment
H -28.871700 -12.566400 -25.714700
H -28.749200 -12.454500 -23.286000
O -28.264800 -13.307900 -25.707600
C -27.963700 -12.950100 -23.334100
C -27.574900 -13.496400 -24.541500
H -27.479600 -12.742100 -21.398200
C -27.199100 -13.131100 -22.194500
C -26.425200 -14.263500 -24.574600
H -26.307000 -12.966200 -19.697000
H -26.157000 -14.659100 -25.372500
C -26.020100 -13.879300 -22.203200
C -25.669400 -14.446400 -23.429500
C -25.537800 -13.486200 -19.746800
C -25.187100 -14.053400 -20.973100
H -25.050200 -13.273500 -17.803700
H -24.900100 -14.966500 -23.479300
C -24.781900 -13.669200 -18.601600
C -24.008100 -14.801500 -20.981700
H -23.727600 -15.190500 -21.778100
C -23.632300 -14.436300 -18.634800
C -23.243500 -14.982500 -19.842200
O -22.942400 -14.624700 -17.468700
H -22.458000 -15.478200 -19.890200
H -22.335400 -15.366200 -17.461600
26
Fragment
H -29.770500 -14.442200 -20.207600
C -29.233700 -14.518800 -19.451800
N -29.077600 -13.536200 -18.499800
C -28.502400 -15.603300 -19.139000
H -28.436500 -16.393700 -19.623600
C -28.246100 -14.052800 -17.626500
H -27.949600 -13.605700 -16.866800
N -27.870900 -15.302600 -17.955300
H -27.473100 -15.687300 -15.410700
C -26.888000 -16.104400 -17.297500
C -26.845300 -16.149900 -15.917400
H -26.018600 -16.776200 -18.977000
C -25.969600 -16.799900 -18.048200
C -25.859100 -16.891100 -15.299700
H -25.827000 -16.934000 -14.371200
C -24.974600 -17.534000 -17.430900
C -24.923200 -17.567100 -16.047400
H -24.349200 -17.999500 -17.937600
N -23.881700 -18.288600 -15.390300
H -23.498200 -19.891900 -16.563500
H -23.475900 -17.186000 -13.683600
C -23.282600 -17.931800 -14.204100
C -23.282000 -19.433700 -15.783400
C -22.365100 -18.876500 -13.949900
N -22.357600 -19.823900 -14.936000
H -21.809400 -18.884900 -13.204400
50
Fragment
H -28.871700 -12.566400 -25.714700
H -28.749200 -12.454500 -23.286000
O -28.264800 -13.307900 -25.707600
C -27.963700 -12.950100 -23.334100
C -27.574900 -13.496400 -24.541500
H -27.479600 -12.742100 -21.398200
C -27.199100 -13.131100 -22.194500
C -26.425200 -14.263500 -24.574600
H -26.307000 -12.966200 -19.697000
H -26.157000 -14.659100 -25.372500
C -26.020100 -13.879300 -22.203200
C -25.669400 -14.446400 -23.429500
C -25.537800 -13.486200 -19.746800
C -25.187100 -14.053400 -20.973100
H -25.050200 -13.273500 -17.803700
H -24.900100 -14.966500 -23.479300
C -24.781900 -13.669200 -18.601600
C -24.008100 -14.801500 -20.981700
H -23.727600 -15.190500 -21.778100
C -23.632300 -14.436300 -18.634800
C -23.243500 -14.982500 -19.842200
O -22.942400 -14.624700 -17.468700
H -22.458000 -15.478200 -19.890200
H -22.335400 -15.366200 -17.461600
H -29.770500 -14.442200 -20.207600
C -29.233700 -14.518800 -19.451800
N -29.077600 -13.536200 -18.499800
C -28.502400 -15.603300 -19.139000
H -28.436500 -16.393700 -19.623600
C -28.246100 -14.052800 -17.626500
H -27.949600 -13.605700 -16.866800
N -27.870900 -15.302600 -17.955300
H -27.473100 -15.687300 -15.410700
C -26.888000 -16.104400 -17.297500
C -26.845300 -16.149900 -15.917400
H -26.018600 -16.776200 -18.977000
C -25.969600 -16.799900 -18.048200
C -25.859100 -16.891100 -15.299700
H -25.827000 -16.934000 -14.371200
C -24.974600 -17.534000 -17.430900
C -24.923200 -17.567100 -16.047400
H -24.349200 -17.999500 -17.937600
N -23.881700 -18.288600 -15.390300
H -23.498200 -19.891900 -16.563500
H -23.475900 -17.186000 -13.683600
C -23.282600 -17.931800 -14.204100
C -23.282000 -19.433700 -15.783400
C -22.365100 -18.876500 -13.949900
N -22.357600 -19.823900 -14.936000
H -21.809400 -18.884900 -13.204400
