24
Fragment
H -28.871700 -12.566400 -25.714700
H -28.749200 -12.454500 -23.286000
O -28.264800 -13.307900 -25.707600
C -27.963700 -12.950100 -23.334100
C -27.574900 -13.496400 -24.541500
H -27.479600 -12.742100 -21.398200
C -27.199100 -13.131100 -22.194500
C -26.425200 -14.263500 -24.574600
H -26.307000 -12.966200 -19.697000
H -26.157000 -14.659100 -25.372500
C -26.020100 -13.879300 -22.203200
C -25.669400 -14.446400 -23.429500
C -25.537800 -13.486200 -19.746800
C -25.187100 -14.053400 -20.973100
H -25.050200 -13.273500 -17.803700
H -24.900100 -14.966500 -23.479300
C -24.781900 -13.669200 -18.601600
C -24.008100 -14.801500 -20.981700
H -23.727600 -15.190500 -21.778100
C -23.632300 -14.436300 -18.634800
C -23.243500 -14.982500 -19.842200
O -22.942400 -14.624700 -17.468700
H -22.458000 -15.478200 -19.890200
H -22.335400 -15.366200 -17.461600
26
Fragment
H -27.350000 -8.818300 -19.177800
N -26.801700 -7.879300 -17.446200
C -26.794200 -8.826700 -18.432300
C -25.877400 -8.269500 -16.598800
C -25.876700 -9.771400 -18.178100
H -25.683400 -10.517200 -18.698600
H -25.661100 -7.811300 -15.818700
N -25.277600 -9.414600 -16.991900
H -24.810200 -9.703700 -14.444600
C -24.236100 -10.136100 -16.334800
C -24.184800 -10.169200 -14.951300
H -23.332300 -10.769200 -18.011000
C -23.300300 -10.812100 -17.082500
C -23.189700 -10.903300 -14.334000
H -23.140700 -10.927000 -13.405200
C -22.314000 -11.553300 -16.464800
C -22.271400 -11.598800 -15.084700
H -21.686300 -12.015900 -16.971500
N -21.288400 -12.400600 -14.426900
H -21.209800 -14.097500 -15.515400
C -20.913200 -13.650500 -14.755700
H -20.722900 -11.309500 -12.758600
C -20.657000 -12.099900 -13.243200
N -20.081700 -14.167000 -13.882400
C -19.925600 -13.184400 -12.930400
H -19.388900 -13.261100 -12.174600
50
Fragment
H -28.871700 -12.566400 -25.714700
H -28.749200 -12.454500 -23.286000
O -28.264800 -13.307900 -25.707600
C -27.963700 -12.950100 -23.334100
C -27.574900 -13.496400 -24.541500
H -27.479600 -12.742100 -21.398200
C -27.199100 -13.131100 -22.194500
C -26.425200 -14.263500 -24.574600
H -26.307000 -12.966200 -19.697000
H -26.157000 -14.659100 -25.372500
C -26.020100 -13.879300 -22.203200
C -25.669400 -14.446400 -23.429500
C -25.537800 -13.486200 -19.746800
C -25.187100 -14.053400 -20.973100
H -25.050200 -13.273500 -17.803700
H -24.900100 -14.966500 -23.479300
C -24.781900 -13.669200 -18.601600
C -24.008100 -14.801500 -20.981700
H -23.727600 -15.190500 -21.778100
C -23.632300 -14.436300 -18.634800
C -23.243500 -14.982500 -19.842200
O -22.942400 -14.624700 -17.468700
H -22.458000 -15.478200 -19.890200
H -22.335400 -15.366200 -17.461600
H -27.350000 -8.818300 -19.177800
N -26.801700 -7.879300 -17.446200
C -26.794200 -8.826700 -18.432300
C -25.877400 -8.269500 -16.598800
C -25.876700 -9.771400 -18.178100
H -25.683400 -10.517200 -18.698600
H -25.661100 -7.811300 -15.818700
N -25.277600 -9.414600 -16.991900
H -24.810200 -9.703700 -14.444600
C -24.236100 -10.136100 -16.334800
C -24.184800 -10.169200 -14.951300
H -23.332300 -10.769200 -18.011000
C -23.300300 -10.812100 -17.082500
C -23.189700 -10.903300 -14.334000
H -23.140700 -10.927000 -13.405200
C -22.314000 -11.553300 -16.464800
C -22.271400 -11.598800 -15.084700
H -21.686300 -12.015900 -16.971500
N -21.288400 -12.400600 -14.426900
H -21.209800 -14.097500 -15.515400
C -20.913200 -13.650500 -14.755700
H -20.722900 -11.309500 -12.758600
C -20.657000 -12.099900 -13.243200
N -20.081700 -14.167000 -13.882400
C -19.925600 -13.184400 -12.930400
H -19.388900 -13.261100 -12.174600
