26
Fragment
N -5.228300 -9.088600 -12.441000
H -5.071000 -8.674100 -10.451800
C -4.746900 -8.508400 -11.307300
H -4.608900 -8.819200 -14.310100
C -4.503300 -8.593000 -13.414000
C -3.741600 -7.664800 -11.591800
N -3.581600 -7.710700 -12.957100
H -3.252700 -7.153700 -10.987900
H -2.909700 -7.886600 -15.468800
C -2.653000 -6.939600 -13.710800
C -2.439700 -7.203000 -15.048600
H -2.104700 -5.723500 -12.209200
C -1.958200 -5.912100 -13.108200
C -1.527800 -6.452500 -15.764100
H -1.381400 -6.641100 -16.663200
C -1.046300 -5.161700 -13.823800
C -0.833100 -5.425000 -15.161500
H -0.576400 -4.478000 -13.403500
H -0.233400 -5.210900 -17.884500
N 0.095600 -4.654000 -15.915200
C 0.255600 -4.699800 -17.280600
C 1.017200 -3.771600 -15.458400
H 1.122900 -3.545400 -14.562300
C 1.260800 -3.856200 -17.565100
H 1.585000 -3.690500 -18.420600
N 1.742200 -3.276100 -16.431400
14
Fragment
H 3.092500 -2.041000 -16.793100
O 3.364300 -2.052600 -19.061500
O 3.707100 -1.512500 -16.917800
C 3.977400 -1.446300 -18.217500
H 4.667600 -0.138600 -20.465700
H 4.912500 0.364500 -18.187700
C 5.128300 -0.524600 -18.511500
C 5.451200 -0.447400 -19.985000
H 5.667000 -1.336600 -20.308800
H 5.912000 -0.833500 -18.030800
C 6.602100 0.474200 -20.279000
O 6.872500 0.540400 -21.578700
O 7.215300 1.080500 -19.434900
H 7.487000 1.068900 -21.703400
40
Fragment
N -5.228300 -9.088600 -12.441000
H -5.071000 -8.674100 -10.451800
C -4.746900 -8.508400 -11.307300
H -4.608900 -8.819200 -14.310100
C -4.503300 -8.593000 -13.414000
C -3.741600 -7.664800 -11.591800
N -3.581600 -7.710700 -12.957100
H -3.252700 -7.153700 -10.987900
H -2.909700 -7.886600 -15.468800
C -2.653000 -6.939600 -13.710800
C -2.439700 -7.203000 -15.048600
H -2.104700 -5.723500 -12.209200
C -1.958200 -5.912100 -13.108200
C -1.527800 -6.452500 -15.764100
H -1.381400 -6.641100 -16.663200
C -1.046300 -5.161700 -13.823800
C -0.833100 -5.425000 -15.161500
H -0.576400 -4.478000 -13.403500
H -0.233400 -5.210900 -17.884500
N 0.095600 -4.654000 -15.915200
C 0.255600 -4.699800 -17.280600
C 1.017200 -3.771600 -15.458400
H 1.122900 -3.545400 -14.562300
C 1.260800 -3.856200 -17.565100
H 1.585000 -3.690500 -18.420600
N 1.742200 -3.276100 -16.431400
H 3.092500 -2.041000 -16.793100
O 3.364300 -2.052600 -19.061500
O 3.707100 -1.512500 -16.917800
C 3.977400 -1.446300 -18.217500
H 4.667600 -0.138600 -20.465700
H 4.912500 0.364500 -18.187700
C 5.128300 -0.524600 -18.511500
C 5.451200 -0.447400 -19.985000
H 5.667000 -1.336600 -20.308800
H 5.912000 -0.833500 -18.030800
C 6.602100 0.474200 -20.279000
O 6.872500 0.540400 -21.578700
O 7.215300 1.080500 -19.434900
H 7.487000 1.068900 -21.703400
