35
Fragment
H -17.242000 -7.268600 -26.919400
N -16.409100 -6.984500 -26.911300
H -16.228400 -6.159700 -26.662900
H -15.706600 -11.331400 -28.427200
N -15.691300 -9.050400 -27.649200
C -15.424400 -7.801400 -27.273400
N -14.894000 -11.113700 -28.367100
C -14.622600 -9.823900 -28.004800
H -14.171800 -12.687300 -29.379500
N -14.153600 -7.308800 -27.256500
H -14.032500 -6.472200 -27.013400
C -13.840900 -12.030000 -28.702500
O -13.450500 -12.727000 -27.506100
O -13.377500 -15.040100 -25.976700
C -13.304600 -9.373300 -28.001000
H -13.277400 -15.283300 -25.179000
C -13.045500 -8.060100 -27.602900
H -12.876800 -10.829300 -30.119700
H -12.801400 -14.396100 -28.401600
C -12.623400 -11.281100 -29.264200
C -12.441800 -13.725800 -27.752100
N -12.254400 -10.275500 -28.276400
C -12.171900 -14.413200 -26.440800
O -11.902700 -7.527300 -27.541700
H -11.858200 -13.751900 -25.773900
H -11.729700 -12.840600 -30.283900
C -11.472000 -12.245200 -29.521700
H -11.471200 -9.879700 -28.519500
H -11.463300 -15.094700 -26.558600
C -11.142500 -13.128900 -28.320500
H -10.560300 -13.879900 -28.632400
O -10.420900 -12.371900 -27.357900
O -10.326300 -11.496800 -29.914100
H -10.117400 -11.697300 -30.702700
H -9.973800 -12.891000 -26.871500
35
Fragment
H -20.831300 -17.934600 -24.368600
N -19.998400 -18.218700 -24.376700
H -19.817700 -19.043600 -24.625100
H -19.295800 -13.871900 -22.860800
N -19.280600 -16.152900 -23.638800
C -19.013700 -17.401800 -24.014600
N -18.483200 -14.089500 -22.920900
C -18.211900 -15.379300 -23.283200
H -17.761000 -12.515900 -21.908500
N -17.742800 -17.894400 -24.031500
H -17.621800 -18.731100 -24.274600
C -17.430100 -13.173200 -22.585500
O -17.039700 -12.476200 -23.781900
O -16.966700 -10.163200 -25.311300
C -16.893900 -15.830000 -23.287000
H -16.866600 -9.920000 -26.109000
C -16.634700 -17.143100 -23.685100
H -16.466000 -14.373900 -21.168300
H -16.390700 -10.807200 -22.886400
C -16.212600 -13.922200 -22.023800
C -16.031000 -11.477500 -23.535900
N -15.843700 -14.927800 -23.011600
C -15.761100 -10.790000 -24.847200
O -15.492000 -17.675900 -23.746300
H -15.447400 -11.451300 -25.514100
H -15.318900 -12.362700 -21.004100
C -15.061200 -12.958100 -21.766300
H -15.060500 -15.323600 -22.768500
H -15.052600 -10.108500 -24.729400
C -14.731700 -12.074400 -22.967500
H -14.149500 -11.323300 -22.655600
O -14.010100 -12.831400 -23.930100
O -13.915500 -13.706400 -21.373900
H -13.706600 -13.505900 -20.585300
H -13.563100 -12.312300 -24.416500
70
Fragment
H -17.242000 -7.268600 -26.919400
N -16.409100 -6.984500 -26.911300
H -16.228400 -6.159700 -26.662900
H -15.706600 -11.331400 -28.427200
N -15.691300 -9.050400 -27.649200
C -15.424400 -7.801400 -27.273400
N -14.894000 -11.113700 -28.367100
C -14.622600 -9.823900 -28.004800
H -14.171800 -12.687300 -29.379500
N -14.153600 -7.308800 -27.256500
H -14.032500 -6.472200 -27.013400
C -13.840900 -12.030000 -28.702500
O -13.450500 -12.727000 -27.506100
O -13.377500 -15.040100 -25.976700
C -13.304600 -9.373300 -28.001000
H -13.277400 -15.283300 -25.179000
C -13.045500 -8.060100 -27.602900
H -12.876800 -10.829300 -30.119700
H -12.801400 -14.396100 -28.401600
C -12.623400 -11.281100 -29.264200
C -12.441800 -13.725800 -27.752100
N -12.254400 -10.275500 -28.276400
C -12.171900 -14.413200 -26.440800
O -11.902700 -7.527300 -27.541700
H -11.858200 -13.751900 -25.773900
H -11.729700 -12.840600 -30.283900
C -11.472000 -12.245200 -29.521700
H -11.471200 -9.879700 -28.519500
H -11.463300 -15.094700 -26.558600
C -11.142500 -13.128900 -28.320500
H -10.560300 -13.879900 -28.632400
O -10.420900 -12.371900 -27.357900
O -10.326300 -11.496800 -29.914100
H -10.117400 -11.697300 -30.702700
H -9.973800 -12.891000 -26.871500
H -20.831300 -17.934600 -24.368600
N -19.998400 -18.218700 -24.376700
H -19.817700 -19.043600 -24.625100
H -19.295800 -13.871900 -22.860800
N -19.280600 -16.152900 -23.638800
C -19.013700 -17.401800 -24.014600
N -18.483200 -14.089500 -22.920900
C -18.211900 -15.379300 -23.283200
H -17.761000 -12.515900 -21.908500
N -17.742800 -17.894400 -24.031500
H -17.621800 -18.731100 -24.274600
C -17.430100 -13.173200 -22.585500
O -17.039700 -12.476200 -23.781900
O -16.966700 -10.163200 -25.311300
C -16.893900 -15.830000 -23.287000
H -16.866600 -9.920000 -26.109000
C -16.634700 -17.143100 -23.685100
H -16.466000 -14.373900 -21.168300
H -16.390700 -10.807200 -22.886400
C -16.212600 -13.922200 -22.023800
C -16.031000 -11.477500 -23.535900
N -15.843700 -14.927800 -23.011600
C -15.761100 -10.790000 -24.847200
O -15.492000 -17.675900 -23.746300
H -15.447400 -11.451300 -25.514100
H -15.318900 -12.362700 -21.004100
C -15.061200 -12.958100 -21.766300
H -15.060500 -15.323600 -22.768500
H -15.052600 -10.108500 -24.729400
C -14.731700 -12.074400 -22.967500
H -14.149500 -11.323300 -22.655600
O -14.010100 -12.831400 -23.930100
O -13.915500 -13.706400 -21.373900
H -13.706600 -13.505900 -20.585300
H -13.563100 -12.312300 -24.416500
