35
Fragment
H -17.242000 -7.268600 -26.919400
N -16.409100 -6.984500 -26.911300
H -16.228400 -6.159700 -26.662900
H -15.706600 -11.331400 -28.427200
N -15.691300 -9.050400 -27.649200
C -15.424400 -7.801400 -27.273400
N -14.894000 -11.113700 -28.367100
C -14.622600 -9.823900 -28.004800
H -14.171800 -12.687300 -29.379500
N -14.153600 -7.308800 -27.256500
H -14.032500 -6.472200 -27.013400
C -13.840900 -12.030000 -28.702500
O -13.450500 -12.727000 -27.506100
O -13.377500 -15.040100 -25.976700
C -13.304600 -9.373300 -28.001000
H -13.277400 -15.283300 -25.179000
C -13.045500 -8.060100 -27.602900
H -12.876800 -10.829300 -30.119700
H -12.801400 -14.396100 -28.401600
C -12.623400 -11.281100 -29.264200
C -12.441800 -13.725800 -27.752100
N -12.254400 -10.275500 -28.276400
C -12.171900 -14.413200 -26.440800
O -11.902700 -7.527300 -27.541700
H -11.858200 -13.751900 -25.773900
H -11.729700 -12.840600 -30.283900
C -11.472000 -12.245200 -29.521700
H -11.471200 -9.879700 -28.519500
H -11.463300 -15.094700 -26.558600
C -11.142500 -13.128900 -28.320500
H -10.560300 -13.879900 -28.632400
O -10.420900 -12.371900 -27.357900
O -10.326300 -11.496800 -29.914100
H -10.117400 -11.697300 -30.702700
H -9.973800 -12.891000 -26.871500
35
Fragment
H -13.652800 -7.853300 -24.368600
N -12.819900 -8.137400 -24.376700
H -12.639200 -8.962300 -24.625100
H -12.117300 -3.790600 -22.860800
N -12.102100 -6.071600 -23.638800
C -11.835200 -7.320500 -24.014600
N -11.304700 -4.008200 -22.920900
C -11.033400 -5.298000 -23.283200
H -10.582500 -2.434600 -21.908500
N -10.564300 -7.813100 -24.031500
H -10.443300 -8.649800 -24.274600
C -10.251600 -3.091900 -22.585500
O -9.861200 -2.394900 -23.781900
O -9.788200 -0.081900 -25.311300
C -9.715400 -5.748700 -23.287000
H -9.688100 0.161300 -26.109000
C -9.456200 -7.061800 -23.685100
H -9.287500 -4.292600 -21.168300
H -9.212200 -0.725900 -22.886400
C -9.034100 -3.840900 -22.023800
C -8.852500 -1.396200 -23.535900
N -8.665200 -4.846500 -23.011600
C -8.582600 -0.708700 -24.847200
O -8.313500 -7.594600 -23.746300
H -8.268900 -1.370000 -25.514100
H -8.140400 -2.281400 -21.004100
C -7.882700 -2.876800 -21.766300
H -7.882000 -5.242300 -22.768500
H -7.874100 -0.027200 -24.729400
C -7.553200 -1.993100 -22.967500
H -6.971000 -1.242000 -22.655600
O -6.831600 -2.750100 -23.930100
O -6.737000 -3.625100 -21.373900
H -6.528100 -3.424600 -20.585300
H -6.384600 -2.231000 -24.416500
70
Fragment
H -17.242000 -7.268600 -26.919400
N -16.409100 -6.984500 -26.911300
H -16.228400 -6.159700 -26.662900
H -15.706600 -11.331400 -28.427200
N -15.691300 -9.050400 -27.649200
C -15.424400 -7.801400 -27.273400
N -14.894000 -11.113700 -28.367100
C -14.622600 -9.823900 -28.004800
H -14.171800 -12.687300 -29.379500
N -14.153600 -7.308800 -27.256500
H -14.032500 -6.472200 -27.013400
C -13.840900 -12.030000 -28.702500
O -13.450500 -12.727000 -27.506100
O -13.377500 -15.040100 -25.976700
C -13.304600 -9.373300 -28.001000
H -13.277400 -15.283300 -25.179000
C -13.045500 -8.060100 -27.602900
H -12.876800 -10.829300 -30.119700
H -12.801400 -14.396100 -28.401600
C -12.623400 -11.281100 -29.264200
C -12.441800 -13.725800 -27.752100
N -12.254400 -10.275500 -28.276400
C -12.171900 -14.413200 -26.440800
O -11.902700 -7.527300 -27.541700
H -11.858200 -13.751900 -25.773900
H -11.729700 -12.840600 -30.283900
C -11.472000 -12.245200 -29.521700
H -11.471200 -9.879700 -28.519500
H -11.463300 -15.094700 -26.558600
C -11.142500 -13.128900 -28.320500
H -10.560300 -13.879900 -28.632400
O -10.420900 -12.371900 -27.357900
O -10.326300 -11.496800 -29.914100
H -10.117400 -11.697300 -30.702700
H -9.973800 -12.891000 -26.871500
H -13.652800 -7.853300 -24.368600
N -12.819900 -8.137400 -24.376700
H -12.639200 -8.962300 -24.625100
H -12.117300 -3.790600 -22.860800
N -12.102100 -6.071600 -23.638800
C -11.835200 -7.320500 -24.014600
N -11.304700 -4.008200 -22.920900
C -11.033400 -5.298000 -23.283200
H -10.582500 -2.434600 -21.908500
N -10.564300 -7.813100 -24.031500
H -10.443300 -8.649800 -24.274600
C -10.251600 -3.091900 -22.585500
O -9.861200 -2.394900 -23.781900
O -9.788200 -0.081900 -25.311300
C -9.715400 -5.748700 -23.287000
H -9.688100 0.161300 -26.109000
C -9.456200 -7.061800 -23.685100
H -9.287500 -4.292600 -21.168300
H -9.212200 -0.725900 -22.886400
C -9.034100 -3.840900 -22.023800
C -8.852500 -1.396200 -23.535900
N -8.665200 -4.846500 -23.011600
C -8.582600 -0.708700 -24.847200
O -8.313500 -7.594600 -23.746300
H -8.268900 -1.370000 -25.514100
H -8.140400 -2.281400 -21.004100
C -7.882700 -2.876800 -21.766300
H -7.882000 -5.242300 -22.768500
H -7.874100 -0.027200 -24.729400
C -7.553200 -1.993100 -22.967500
H -6.971000 -1.242000 -22.655600
O -6.831600 -2.750100 -23.930100
O -6.737000 -3.625100 -21.373900
H -6.528100 -3.424600 -20.585300
H -6.384600 -2.231000 -24.416500
