35
Fragment
H -17.242000 -7.268600 -26.919400
N -16.409100 -6.984500 -26.911300
H -16.228400 -6.159700 -26.662900
H -15.706600 -11.331400 -28.427200
N -15.691300 -9.050400 -27.649200
C -15.424400 -7.801400 -27.273400
N -14.894000 -11.113700 -28.367100
C -14.622600 -9.823900 -28.004800
H -14.171800 -12.687300 -29.379500
N -14.153600 -7.308800 -27.256500
H -14.032500 -6.472200 -27.013400
C -13.840900 -12.030000 -28.702500
O -13.450500 -12.727000 -27.506100
O -13.377500 -15.040100 -25.976700
C -13.304600 -9.373300 -28.001000
H -13.277400 -15.283300 -25.179000
C -13.045500 -8.060100 -27.602900
H -12.876800 -10.829300 -30.119700
H -12.801400 -14.396100 -28.401600
C -12.623400 -11.281100 -29.264200
C -12.441800 -13.725800 -27.752100
N -12.254400 -10.275500 -28.276400
C -12.171900 -14.413200 -26.440800
O -11.902700 -7.527300 -27.541700
H -11.858200 -13.751900 -25.773900
H -11.729700 -12.840600 -30.283900
C -11.472000 -12.245200 -29.521700
H -11.471200 -9.879700 -28.519500
H -11.463300 -15.094700 -26.558600
C -11.142500 -13.128900 -28.320500
H -10.560300 -13.879900 -28.632400
O -10.420900 -12.371900 -27.357900
O -10.326300 -11.496800 -29.914100
H -10.117400 -11.697300 -30.702700
H -9.973800 -12.891000 -26.871500
35
Fragment
H -17.242000 2.812700 -26.919400
N -16.409100 3.096800 -26.911300
H -16.228400 3.921600 -26.662900
H -15.706600 -1.250100 -28.427200
N -15.691300 1.030900 -27.649200
C -15.424400 2.279900 -27.273400
N -14.894000 -1.032400 -28.367100
C -14.622600 0.257400 -28.004800
H -14.171800 -2.606000 -29.379500
N -14.153600 2.772500 -27.256500
H -14.032500 3.609100 -27.013400
C -13.840900 -1.948700 -28.702500
O -13.450500 -2.645700 -27.506100
O -13.377500 -4.958800 -25.976700
C -13.304600 0.708000 -28.001000
H -13.277400 -5.202000 -25.179000
C -13.045500 2.021200 -27.602900
H -12.876800 -0.748000 -30.119700
H -12.801400 -4.314800 -28.401600
C -12.623400 -1.199800 -29.264200
C -12.441800 -3.644500 -27.752100
N -12.254400 -0.194200 -28.276400
C -12.171900 -4.331900 -26.440800
O -11.902700 2.554000 -27.541700
H -11.858200 -3.670600 -25.773900
H -11.729700 -2.759300 -30.283900
C -11.472000 -2.163900 -29.521700
H -11.471200 0.201600 -28.519500
H -11.463300 -5.013400 -26.558600
C -11.142500 -3.047600 -28.320500
H -10.560300 -3.798600 -28.632400
O -10.420900 -2.290600 -27.357900
O -10.326300 -1.415500 -29.914100
H -10.117400 -1.616000 -30.702700
H -9.973800 -2.809700 -26.871500
70
Fragment
H -17.242000 -7.268600 -26.919400
N -16.409100 -6.984500 -26.911300
H -16.228400 -6.159700 -26.662900
H -15.706600 -11.331400 -28.427200
N -15.691300 -9.050400 -27.649200
C -15.424400 -7.801400 -27.273400
N -14.894000 -11.113700 -28.367100
C -14.622600 -9.823900 -28.004800
H -14.171800 -12.687300 -29.379500
N -14.153600 -7.308800 -27.256500
H -14.032500 -6.472200 -27.013400
C -13.840900 -12.030000 -28.702500
O -13.450500 -12.727000 -27.506100
O -13.377500 -15.040100 -25.976700
C -13.304600 -9.373300 -28.001000
H -13.277400 -15.283300 -25.179000
C -13.045500 -8.060100 -27.602900
H -12.876800 -10.829300 -30.119700
H -12.801400 -14.396100 -28.401600
C -12.623400 -11.281100 -29.264200
C -12.441800 -13.725800 -27.752100
N -12.254400 -10.275500 -28.276400
C -12.171900 -14.413200 -26.440800
O -11.902700 -7.527300 -27.541700
H -11.858200 -13.751900 -25.773900
H -11.729700 -12.840600 -30.283900
C -11.472000 -12.245200 -29.521700
H -11.471200 -9.879700 -28.519500
H -11.463300 -15.094700 -26.558600
C -11.142500 -13.128900 -28.320500
H -10.560300 -13.879900 -28.632400
O -10.420900 -12.371900 -27.357900
O -10.326300 -11.496800 -29.914100
H -10.117400 -11.697300 -30.702700
H -9.973800 -12.891000 -26.871500
H -17.242000 2.812700 -26.919400
N -16.409100 3.096800 -26.911300
H -16.228400 3.921600 -26.662900
H -15.706600 -1.250100 -28.427200
N -15.691300 1.030900 -27.649200
C -15.424400 2.279900 -27.273400
N -14.894000 -1.032400 -28.367100
C -14.622600 0.257400 -28.004800
H -14.171800 -2.606000 -29.379500
N -14.153600 2.772500 -27.256500
H -14.032500 3.609100 -27.013400
C -13.840900 -1.948700 -28.702500
O -13.450500 -2.645700 -27.506100
O -13.377500 -4.958800 -25.976700
C -13.304600 0.708000 -28.001000
H -13.277400 -5.202000 -25.179000
C -13.045500 2.021200 -27.602900
H -12.876800 -0.748000 -30.119700
H -12.801400 -4.314800 -28.401600
C -12.623400 -1.199800 -29.264200
C -12.441800 -3.644500 -27.752100
N -12.254400 -0.194200 -28.276400
C -12.171900 -4.331900 -26.440800
O -11.902700 2.554000 -27.541700
H -11.858200 -3.670600 -25.773900
H -11.729700 -2.759300 -30.283900
C -11.472000 -2.163900 -29.521700
H -11.471200 0.201600 -28.519500
H -11.463300 -5.013400 -26.558600
C -11.142500 -3.047600 -28.320500
H -10.560300 -3.798600 -28.632400
O -10.420900 -2.290600 -27.357900
O -10.326300 -1.415500 -29.914100
H -10.117400 -1.616000 -30.702700
H -9.973800 -2.809700 -26.871500
