28
Fragment
H -30.758200 -5.882100 -14.679600
H -30.679000 -5.434400 -16.953500
C -30.151000 -6.344600 -15.229300
C -30.107600 -6.081700 -16.584100
H -29.319300 -7.458900 -13.757600
C -29.300100 -7.291800 -14.682400
C -29.228800 -6.763600 -17.395000
H -29.200500 -6.579300 -18.315500
C -28.415600 -7.998500 -15.494800
C -28.386200 -7.724200 -16.851000
H -27.791800 -8.192000 -17.408000
N -27.513000 -9.364700 -13.613300
C -27.505100 -9.010300 -14.932100
N -26.592600 -10.284500 -13.401200
C -26.546200 -9.746800 -15.564000
H -26.313300 -9.723300 -16.474500
N -26.004400 -10.517700 -14.596200
H -25.298700 -12.121800 -11.993000
C -24.983400 -11.480700 -14.763200
N -24.590500 -11.875200 -15.944500
C -24.418000 -11.855100 -12.300300
N -24.320900 -12.070100 -13.747500
H -24.276500 -10.916100 -12.102600
H -23.744700 -12.386200 -11.848700
C -23.607600 -12.804200 -15.670800
C -23.430200 -12.930600 -14.341900
H -23.128100 -13.283000 -16.323000
H -22.818800 -13.496100 -13.907600
28
Fragment
H -24.327500 -11.101900 -6.693400
H -24.018200 -10.888800 -9.108700
C -23.716100 -10.536400 -7.127700
C -23.538600 -10.410000 -8.456500
H -23.401500 -9.992000 -4.634400
H -22.869700 -8.521900 -4.888400
N -22.825400 -9.675900 -6.533200
C -22.728300 -9.460900 -5.086000
N -22.555700 -9.481000 -8.730300
C -22.162900 -9.086500 -7.549000
H -21.847600 -9.727600 -4.778700
N -21.141900 -8.123500 -7.381900
H -20.833000 -7.329100 -9.260200
C -20.600100 -7.352600 -8.349800
N -20.553700 -7.890300 -6.186900
C -19.641100 -6.616100 -7.717800
N -19.633200 -6.970500 -6.399000
H -19.354500 -5.797800 -10.193700
C -18.760100 -5.330000 -9.636800
C -18.730600 -5.604300 -8.280500
H -17.945700 -4.185100 -11.101300
C -17.917500 -4.369400 -10.180700
C -17.846200 -4.897600 -7.468200
H -17.826900 -5.064700 -6.543300
C -17.038700 -3.687500 -9.369900
C -16.995300 -3.950400 -8.015000
H -16.467200 -3.040200 -9.739200
H -16.388000 -3.487900 -7.465300
56
Fragment
H -30.758200 -5.882100 -14.679600
H -30.679000 -5.434400 -16.953500
C -30.151000 -6.344600 -15.229300
C -30.107600 -6.081700 -16.584100
H -29.319300 -7.458900 -13.757600
C -29.300100 -7.291800 -14.682400
C -29.228800 -6.763600 -17.395000
H -29.200500 -6.579300 -18.315500
C -28.415600 -7.998500 -15.494800
C -28.386200 -7.724200 -16.851000
H -27.791800 -8.192000 -17.408000
N -27.513000 -9.364700 -13.613300
C -27.505100 -9.010300 -14.932100
N -26.592600 -10.284500 -13.401200
C -26.546200 -9.746800 -15.564000
H -26.313300 -9.723300 -16.474500
N -26.004400 -10.517700 -14.596200
H -25.298700 -12.121800 -11.993000
C -24.983400 -11.480700 -14.763200
N -24.590500 -11.875200 -15.944500
C -24.418000 -11.855100 -12.300300
N -24.320900 -12.070100 -13.747500
H -24.276500 -10.916100 -12.102600
H -23.744700 -12.386200 -11.848700
C -23.607600 -12.804200 -15.670800
C -23.430200 -12.930600 -14.341900
H -23.128100 -13.283000 -16.323000
H -22.818800 -13.496100 -13.907600
H -24.327500 -11.101900 -6.693400
H -24.018200 -10.888800 -9.108700
C -23.716100 -10.536400 -7.127700
C -23.538600 -10.410000 -8.456500
H -23.401500 -9.992000 -4.634400
H -22.869700 -8.521900 -4.888400
N -22.825400 -9.675900 -6.533200
C -22.728300 -9.460900 -5.086000
N -22.555700 -9.481000 -8.730300
C -22.162900 -9.086500 -7.549000
H -21.847600 -9.727600 -4.778700
N -21.141900 -8.123500 -7.381900
H -20.833000 -7.329100 -9.260200
C -20.600100 -7.352600 -8.349800
N -20.553700 -7.890300 -6.186900
C -19.641100 -6.616100 -7.717800
N -19.633200 -6.970500 -6.399000
H -19.354500 -5.797800 -10.193700
C -18.760100 -5.330000 -9.636800
C -18.730600 -5.604300 -8.280500
H -17.945700 -4.185100 -11.101300
C -17.917500 -4.369400 -10.180700
C -17.846200 -4.897600 -7.468200
H -17.826900 -5.064700 -6.543300
C -17.038700 -3.687500 -9.369900
C -16.995300 -3.950400 -8.015000
H -16.467200 -3.040200 -9.739200
H -16.388000 -3.487900 -7.465300
