28
Fragment
H -30.758200 -5.882100 -14.679600
H -30.679000 -5.434400 -16.953500
C -30.151000 -6.344600 -15.229300
C -30.107600 -6.081700 -16.584100
H -29.319300 -7.458900 -13.757600
C -29.300100 -7.291800 -14.682400
C -29.228800 -6.763600 -17.395000
H -29.200500 -6.579300 -18.315500
C -28.415600 -7.998500 -15.494800
C -28.386200 -7.724200 -16.851000
H -27.791800 -8.192000 -17.408000
N -27.513000 -9.364700 -13.613300
C -27.505100 -9.010300 -14.932100
N -26.592600 -10.284500 -13.401200
C -26.546200 -9.746800 -15.564000
H -26.313300 -9.723300 -16.474500
N -26.004400 -10.517700 -14.596200
H -25.298700 -12.121800 -11.993000
C -24.983400 -11.480700 -14.763200
N -24.590500 -11.875200 -15.944500
C -24.418000 -11.855100 -12.300300
N -24.320900 -12.070100 -13.747500
H -24.276500 -10.916100 -12.102600
H -23.744700 -12.386200 -11.848700
C -23.607600 -12.804200 -15.670800
C -23.430200 -12.930600 -14.341900
H -23.128100 -13.283000 -16.323000
H -22.818800 -13.496100 -13.907600
28
Fragment
H -33.756700 -5.657500 -21.121900
H -33.447400 -5.870600 -23.537200
C -33.145300 -6.223000 -21.556200
C -32.967900 -6.349400 -22.885000
H -32.830800 -6.767400 -19.062900
H -32.299000 -8.237500 -19.316900
N -32.254600 -7.083500 -20.961700
C -32.157500 -7.298500 -19.514500
N -31.985000 -7.278400 -23.158800
C -31.592100 -7.672900 -21.977500
H -31.276800 -7.031800 -19.207200
N -30.571100 -8.635900 -21.810400
H -30.262200 -9.430300 -23.688700
C -30.029300 -9.406800 -22.778300
N -29.982900 -8.869100 -20.615400
C -29.070400 -10.143300 -22.146300
N -29.062500 -9.788900 -20.827500
H -28.783700 -10.961600 -24.622200
C -28.189300 -11.429400 -24.065300
C -28.159900 -11.155100 -22.709000
H -27.375000 -12.574300 -25.529800
C -27.346700 -12.390000 -24.609200
C -27.275400 -11.861800 -21.896700
H -27.256200 -11.694700 -20.971800
C -26.467900 -13.071900 -23.798400
C -26.424500 -12.809000 -22.443500
H -25.896500 -13.719200 -24.167700
H -25.817300 -13.271500 -21.893800
56
Fragment
H -30.758200 -5.882100 -14.679600
H -30.679000 -5.434400 -16.953500
C -30.151000 -6.344600 -15.229300
C -30.107600 -6.081700 -16.584100
H -29.319300 -7.458900 -13.757600
C -29.300100 -7.291800 -14.682400
C -29.228800 -6.763600 -17.395000
H -29.200500 -6.579300 -18.315500
C -28.415600 -7.998500 -15.494800
C -28.386200 -7.724200 -16.851000
H -27.791800 -8.192000 -17.408000
N -27.513000 -9.364700 -13.613300
C -27.505100 -9.010300 -14.932100
N -26.592600 -10.284500 -13.401200
C -26.546200 -9.746800 -15.564000
H -26.313300 -9.723300 -16.474500
N -26.004400 -10.517700 -14.596200
H -25.298700 -12.121800 -11.993000
C -24.983400 -11.480700 -14.763200
N -24.590500 -11.875200 -15.944500
C -24.418000 -11.855100 -12.300300
N -24.320900 -12.070100 -13.747500
H -24.276500 -10.916100 -12.102600
H -23.744700 -12.386200 -11.848700
C -23.607600 -12.804200 -15.670800
C -23.430200 -12.930600 -14.341900
H -23.128100 -13.283000 -16.323000
H -22.818800 -13.496100 -13.907600
H -33.756700 -5.657500 -21.121900
H -33.447400 -5.870600 -23.537200
C -33.145300 -6.223000 -21.556200
C -32.967900 -6.349400 -22.885000
H -32.830800 -6.767400 -19.062900
H -32.299000 -8.237500 -19.316900
N -32.254600 -7.083500 -20.961700
C -32.157500 -7.298500 -19.514500
N -31.985000 -7.278400 -23.158800
C -31.592100 -7.672900 -21.977500
H -31.276800 -7.031800 -19.207200
N -30.571100 -8.635900 -21.810400
H -30.262200 -9.430300 -23.688700
C -30.029300 -9.406800 -22.778300
N -29.982900 -8.869100 -20.615400
C -29.070400 -10.143300 -22.146300
N -29.062500 -9.788900 -20.827500
H -28.783700 -10.961600 -24.622200
C -28.189300 -11.429400 -24.065300
C -28.159900 -11.155100 -22.709000
H -27.375000 -12.574300 -25.529800
C -27.346700 -12.390000 -24.609200
C -27.275400 -11.861800 -21.896700
H -27.256200 -11.694700 -20.971800
C -26.467900 -13.071900 -23.798400
C -26.424500 -12.809000 -22.443500
H -25.896500 -13.719200 -24.167700
H -25.817300 -13.271500 -21.893800
