28
Fragment
H -30.758200 -5.882100 -14.679600
H -30.679000 -5.434400 -16.953500
C -30.151000 -6.344600 -15.229300
C -30.107600 -6.081700 -16.584100
H -29.319300 -7.458900 -13.757600
C -29.300100 -7.291800 -14.682400
C -29.228800 -6.763600 -17.395000
H -29.200500 -6.579300 -18.315500
C -28.415600 -7.998500 -15.494800
C -28.386200 -7.724200 -16.851000
H -27.791800 -8.192000 -17.408000
N -27.513000 -9.364700 -13.613300
C -27.505100 -9.010300 -14.932100
N -26.592600 -10.284500 -13.401200
C -26.546200 -9.746800 -15.564000
H -26.313300 -9.723300 -16.474500
N -26.004400 -10.517700 -14.596200
H -25.298700 -12.121800 -11.993000
C -24.983400 -11.480700 -14.763200
N -24.590500 -11.875200 -15.944500
C -24.418000 -11.855100 -12.300300
N -24.320900 -12.070100 -13.747500
H -24.276500 -10.916100 -12.102600
H -23.744700 -12.386200 -11.848700
C -23.607600 -12.804200 -15.670800
C -23.430200 -12.930600 -14.341900
H -23.128100 -13.283000 -16.323000
H -22.818800 -13.496100 -13.907600
28
Fragment
H -40.187500 -10.877300 -14.679600
H -40.108300 -11.325000 -16.953500
C -39.580200 -10.414800 -15.229300
C -39.536800 -10.677700 -16.584100
H -38.748600 -9.300500 -13.757600
C -38.729300 -9.467600 -14.682400
C -38.658000 -9.995800 -17.395000
H -38.629800 -10.180100 -18.315500
C -37.844900 -8.760900 -15.494800
C -37.815400 -9.035200 -16.851000
H -37.221000 -8.567400 -17.408000
N -36.942300 -7.394700 -13.613300
C -36.934400 -7.749100 -14.932100
N -36.021800 -6.474900 -13.401200
C -35.975400 -7.012600 -15.564000
H -35.742500 -7.036100 -16.474500
N -35.433600 -6.241700 -14.596200
H -34.727900 -4.637600 -11.993000
C -34.412600 -5.278700 -14.763200
N -34.019800 -4.884200 -15.944500
C -33.847200 -4.904300 -12.300300
N -33.750100 -4.689300 -13.747500
H -33.705800 -5.843300 -12.102600
H -33.174000 -4.373200 -11.848700
C -33.036900 -3.955200 -15.670800
C -32.859400 -3.828800 -14.341900
H -32.557300 -3.476400 -16.323000
H -32.248000 -3.263300 -13.907600
56
Fragment
H -30.758200 -5.882100 -14.679600
H -30.679000 -5.434400 -16.953500
C -30.151000 -6.344600 -15.229300
C -30.107600 -6.081700 -16.584100
H -29.319300 -7.458900 -13.757600
C -29.300100 -7.291800 -14.682400
C -29.228800 -6.763600 -17.395000
H -29.200500 -6.579300 -18.315500
C -28.415600 -7.998500 -15.494800
C -28.386200 -7.724200 -16.851000
H -27.791800 -8.192000 -17.408000
N -27.513000 -9.364700 -13.613300
C -27.505100 -9.010300 -14.932100
N -26.592600 -10.284500 -13.401200
C -26.546200 -9.746800 -15.564000
H -26.313300 -9.723300 -16.474500
N -26.004400 -10.517700 -14.596200
H -25.298700 -12.121800 -11.993000
C -24.983400 -11.480700 -14.763200
N -24.590500 -11.875200 -15.944500
C -24.418000 -11.855100 -12.300300
N -24.320900 -12.070100 -13.747500
H -24.276500 -10.916100 -12.102600
H -23.744700 -12.386200 -11.848700
C -23.607600 -12.804200 -15.670800
C -23.430200 -12.930600 -14.341900
H -23.128100 -13.283000 -16.323000
H -22.818800 -13.496100 -13.907600
H -40.187500 -10.877300 -14.679600
H -40.108300 -11.325000 -16.953500
C -39.580200 -10.414800 -15.229300
C -39.536800 -10.677700 -16.584100
H -38.748600 -9.300500 -13.757600
C -38.729300 -9.467600 -14.682400
C -38.658000 -9.995800 -17.395000
H -38.629800 -10.180100 -18.315500
C -37.844900 -8.760900 -15.494800
C -37.815400 -9.035200 -16.851000
H -37.221000 -8.567400 -17.408000
N -36.942300 -7.394700 -13.613300
C -36.934400 -7.749100 -14.932100
N -36.021800 -6.474900 -13.401200
C -35.975400 -7.012600 -15.564000
H -35.742500 -7.036100 -16.474500
N -35.433600 -6.241700 -14.596200
H -34.727900 -4.637600 -11.993000
C -34.412600 -5.278700 -14.763200
N -34.019800 -4.884200 -15.944500
C -33.847200 -4.904300 -12.300300
N -33.750100 -4.689300 -13.747500
H -33.705800 -5.843300 -12.102600
H -33.174000 -4.373200 -11.848700
C -33.036900 -3.955200 -15.670800
C -32.859400 -3.828800 -14.341900
H -32.557300 -3.476400 -16.323000
H -32.248000 -3.263300 -13.907600
