18
Fragment
O -20.448500 -19.144200 -23.967400
O -20.372700 -17.140600 -23.113300
N -20.104700 -18.345200 -23.108800
H -19.435600 -20.855400 -22.497100
C -19.287800 -18.847100 -21.976500
C -19.114400 -20.212800 -21.854400
H -18.893800 -16.966000 -21.171300
C -18.741900 -17.946400 -21.104600
O -18.669400 -22.845700 -21.408700
C -18.338800 -20.635200 -20.796400
N -18.108800 -22.095200 -20.645200
C -17.976100 -18.448000 -20.065600
C -17.760300 -19.794000 -19.884700
O -17.591600 -16.309100 -19.283800
O -17.374600 -22.467200 -19.754800
N -17.347700 -17.485100 -19.124500
H -17.233500 -20.201900 -19.129000
O -16.643100 -17.929000 -18.242400
18
Fragment
O -21.300100 -16.750400 -29.363000
H -20.709700 -14.477500 -28.476300
N -20.595500 -17.194300 -28.480800
O -20.568600 -12.212200 -27.850500
O -20.351600 -18.370200 -28.321500
C -20.182900 -14.885400 -27.720600
C -19.967100 -16.231300 -27.539700
N -19.834300 -12.584100 -26.960100
C -19.604300 -14.044100 -26.808900
O -19.273700 -11.833600 -26.196600
C -19.201300 -16.733000 -26.500700
H -19.049400 -17.713400 -26.434100
C -18.828800 -14.466600 -25.750900
C -18.655400 -15.832300 -25.628800
H -18.507600 -13.824000 -25.108200
N -17.838500 -16.334200 -24.496500
O -17.570500 -17.538800 -24.492000
O -17.494700 -15.535100 -23.638000
36
Fragment
O -20.448500 -19.144200 -23.967400
O -20.372700 -17.140600 -23.113300
N -20.104700 -18.345200 -23.108800
H -19.435600 -20.855400 -22.497100
C -19.287800 -18.847100 -21.976500
C -19.114400 -20.212800 -21.854400
H -18.893800 -16.966000 -21.171300
C -18.741900 -17.946400 -21.104600
O -18.669400 -22.845700 -21.408700
C -18.338800 -20.635200 -20.796400
N -18.108800 -22.095200 -20.645200
C -17.976100 -18.448000 -20.065600
C -17.760300 -19.794000 -19.884700
O -17.591600 -16.309100 -19.283800
O -17.374600 -22.467200 -19.754800
N -17.347700 -17.485100 -19.124500
H -17.233500 -20.201900 -19.129000
O -16.643100 -17.929000 -18.242400
O -21.300100 -16.750400 -29.363000
H -20.709700 -14.477500 -28.476300
N -20.595500 -17.194300 -28.480800
O -20.568600 -12.212200 -27.850500
O -20.351600 -18.370200 -28.321500
C -20.182900 -14.885400 -27.720600
C -19.967100 -16.231300 -27.539700
N -19.834300 -12.584100 -26.960100
C -19.604300 -14.044100 -26.808900
O -19.273700 -11.833600 -26.196600
C -19.201300 -16.733000 -26.500700
H -19.049400 -17.713400 -26.434100
C -18.828800 -14.466600 -25.750900
C -18.655400 -15.832300 -25.628800
H -18.507600 -13.824000 -25.108200
N -17.838500 -16.334200 -24.496500
O -17.570500 -17.538800 -24.492000
O -17.494700 -15.535100 -23.638000
