18
Fragment
O -20.448500 -19.144200 -23.967400
O -20.372700 -17.140600 -23.113300
N -20.104700 -18.345200 -23.108800
H -19.435600 -20.855400 -22.497100
C -19.287800 -18.847100 -21.976500
C -19.114400 -20.212800 -21.854400
H -18.893800 -16.966000 -21.171300
C -18.741900 -17.946400 -21.104600
O -18.669400 -22.845700 -21.408700
C -18.338800 -20.635200 -20.796400
N -18.108800 -22.095200 -20.645200
C -17.976100 -18.448000 -20.065600
C -17.760300 -19.794000 -19.884700
O -17.591600 -16.309100 -19.283800
O -17.374600 -22.467200 -19.754800
N -17.347700 -17.485100 -19.124500
H -17.233500 -20.201900 -19.129000
O -16.643100 -17.929000 -18.242400
17
Fragment
H -24.078100 -19.693900 -23.562300
C -23.610200 -19.831000 -22.707700
H -23.540500 -17.697900 -22.437600
H -23.404000 -21.841400 -22.632800
C -23.292100 -18.644800 -22.073400
C -23.212300 -21.047100 -22.193600
C -22.545800 -18.740800 -20.902500
C -22.471700 -21.149100 -21.028500
H -22.145700 -21.930400 -20.669000
H -22.137200 -16.912300 -20.133500
C -22.134300 -19.974800 -20.376600
N -22.017900 -17.796900 -20.042400
N -21.371100 -19.783300 -19.218000
C -21.334500 -18.473300 -19.074300
H -20.732400 -17.008700 -18.042400
N -20.677000 -17.824000 -18.092400
H -20.171000 -18.357200 -17.585400
35
Fragment
O -20.448500 -19.144200 -23.967400
O -20.372700 -17.140600 -23.113300
N -20.104700 -18.345200 -23.108800
H -19.435600 -20.855400 -22.497100
C -19.287800 -18.847100 -21.976500
C -19.114400 -20.212800 -21.854400
H -18.893800 -16.966000 -21.171300
C -18.741900 -17.946400 -21.104600
O -18.669400 -22.845700 -21.408700
C -18.338800 -20.635200 -20.796400
N -18.108800 -22.095200 -20.645200
C -17.976100 -18.448000 -20.065600
C -17.760300 -19.794000 -19.884700
O -17.591600 -16.309100 -19.283800
O -17.374600 -22.467200 -19.754800
N -17.347700 -17.485100 -19.124500
H -17.233500 -20.201900 -19.129000
O -16.643100 -17.929000 -18.242400
H -24.078100 -19.693900 -23.562300
C -23.610200 -19.831000 -22.707700
H -23.540500 -17.697900 -22.437600
H -23.404000 -21.841400 -22.632800
C -23.292100 -18.644800 -22.073400
C -23.212300 -21.047100 -22.193600
C -22.545800 -18.740800 -20.902500
C -22.471700 -21.149100 -21.028500
H -22.145700 -21.930400 -20.669000
H -22.137200 -16.912300 -20.133500
C -22.134300 -19.974800 -20.376600
N -22.017900 -17.796900 -20.042400
N -21.371100 -19.783300 -19.218000
C -21.334500 -18.473300 -19.074300
H -20.732400 -17.008700 -18.042400
N -20.677000 -17.824000 -18.092400
H -20.171000 -18.357200 -17.585400
