18
Fragment
O -20.448500 -19.144200 -23.967400
O -20.372700 -17.140600 -23.113300
N -20.104700 -18.345200 -23.108800
H -19.435600 -20.855400 -22.497100
C -19.287800 -18.847100 -21.976500
C -19.114400 -20.212800 -21.854400
H -18.893800 -16.966000 -21.171300
C -18.741900 -17.946400 -21.104600
O -18.669400 -22.845700 -21.408700
C -18.338800 -20.635200 -20.796400
N -18.108800 -22.095200 -20.645200
C -17.976100 -18.448000 -20.065600
C -17.760300 -19.794000 -19.884700
O -17.591600 -16.309100 -19.283800
O -17.374600 -22.467200 -19.754800
N -17.347700 -17.485100 -19.124500
H -17.233500 -20.201900 -19.129000
O -16.643100 -17.929000 -18.242400
17
Fragment
H -19.340300 -27.378300 -23.562300
C -18.872400 -27.515400 -22.707700
H -18.802700 -25.382300 -22.437600
H -18.666200 -29.525800 -22.632800
C -18.554300 -26.329300 -22.073400
C -18.474500 -28.731600 -22.193600
C -17.808000 -26.425200 -20.902500
C -17.733900 -28.833500 -21.028500
H -17.408000 -29.614900 -20.669000
H -17.399500 -24.596800 -20.133500
C -17.396500 -27.659200 -20.376600
N -17.280100 -25.481300 -20.042400
N -16.633300 -27.467700 -19.218000
C -16.596700 -26.157800 -19.074300
H -15.994600 -24.693200 -18.042400
N -15.939200 -25.508400 -18.092400
H -15.433200 -26.041600 -17.585400
35
Fragment
O -20.448500 -19.144200 -23.967400
O -20.372700 -17.140600 -23.113300
N -20.104700 -18.345200 -23.108800
H -19.435600 -20.855400 -22.497100
C -19.287800 -18.847100 -21.976500
C -19.114400 -20.212800 -21.854400
H -18.893800 -16.966000 -21.171300
C -18.741900 -17.946400 -21.104600
O -18.669400 -22.845700 -21.408700
C -18.338800 -20.635200 -20.796400
N -18.108800 -22.095200 -20.645200
C -17.976100 -18.448000 -20.065600
C -17.760300 -19.794000 -19.884700
O -17.591600 -16.309100 -19.283800
O -17.374600 -22.467200 -19.754800
N -17.347700 -17.485100 -19.124500
H -17.233500 -20.201900 -19.129000
O -16.643100 -17.929000 -18.242400
H -19.340300 -27.378300 -23.562300
C -18.872400 -27.515400 -22.707700
H -18.802700 -25.382300 -22.437600
H -18.666200 -29.525800 -22.632800
C -18.554300 -26.329300 -22.073400
C -18.474500 -28.731600 -22.193600
C -17.808000 -26.425200 -20.902500
C -17.733900 -28.833500 -21.028500
H -17.408000 -29.614900 -20.669000
H -17.399500 -24.596800 -20.133500
C -17.396500 -27.659200 -20.376600
N -17.280100 -25.481300 -20.042400
N -16.633300 -27.467700 -19.218000
C -16.596700 -26.157800 -19.074300
H -15.994600 -24.693200 -18.042400
N -15.939200 -25.508400 -18.092400
H -15.433200 -26.041600 -17.585400
