18
Fragment
O -20.448500 -19.144200 -23.967400
O -20.372700 -17.140600 -23.113300
N -20.104700 -18.345200 -23.108800
H -19.435600 -20.855400 -22.497100
C -19.287800 -18.847100 -21.976500
C -19.114400 -20.212800 -21.854400
H -18.893800 -16.966000 -21.171300
C -18.741900 -17.946400 -21.104600
O -18.669400 -22.845700 -21.408700
C -18.338800 -20.635200 -20.796400
N -18.108800 -22.095200 -20.645200
C -17.976100 -18.448000 -20.065600
C -17.760300 -19.794000 -19.884700
O -17.591600 -16.309100 -19.283800
O -17.374600 -22.467200 -19.754800
N -17.347700 -17.485100 -19.124500
H -17.233500 -20.201900 -19.129000
O -16.643100 -17.929000 -18.242400
18
Fragment
O -17.083300 -11.459800 -23.967400
O -17.007500 -9.456200 -23.113300
N -16.739400 -10.660700 -23.108800
H -16.070300 -13.170900 -22.497100
C -15.922500 -11.162700 -21.976500
C -15.749100 -12.528300 -21.854400
H -15.528500 -9.281600 -21.171300
C -15.376600 -10.262000 -21.104600
O -15.304200 -15.161300 -21.408700
C -14.973600 -12.950800 -20.796400
N -14.743600 -14.410800 -20.645200
C -14.610900 -10.763600 -20.065600
C -14.395100 -12.109500 -19.884700
O -14.226400 -8.624700 -19.283800
O -14.009300 -14.782700 -19.754800
N -13.982400 -9.800700 -19.124500
H -13.868300 -12.517400 -19.129000
O -13.277800 -10.244600 -18.242400
36
Fragment
O -20.448500 -19.144200 -23.967400
O -20.372700 -17.140600 -23.113300
N -20.104700 -18.345200 -23.108800
H -19.435600 -20.855400 -22.497100
C -19.287800 -18.847100 -21.976500
C -19.114400 -20.212800 -21.854400
H -18.893800 -16.966000 -21.171300
C -18.741900 -17.946400 -21.104600
O -18.669400 -22.845700 -21.408700
C -18.338800 -20.635200 -20.796400
N -18.108800 -22.095200 -20.645200
C -17.976100 -18.448000 -20.065600
C -17.760300 -19.794000 -19.884700
O -17.591600 -16.309100 -19.283800
O -17.374600 -22.467200 -19.754800
N -17.347700 -17.485100 -19.124500
H -17.233500 -20.201900 -19.129000
O -16.643100 -17.929000 -18.242400
O -17.083300 -11.459800 -23.967400
O -17.007500 -9.456200 -23.113300
N -16.739400 -10.660700 -23.108800
H -16.070300 -13.170900 -22.497100
C -15.922500 -11.162700 -21.976500
C -15.749100 -12.528300 -21.854400
H -15.528500 -9.281600 -21.171300
C -15.376600 -10.262000 -21.104600
O -15.304200 -15.161300 -21.408700
C -14.973600 -12.950800 -20.796400
N -14.743600 -14.410800 -20.645200
C -14.610900 -10.763600 -20.065600
C -14.395100 -12.109500 -19.884700
O -14.226400 -8.624700 -19.283800
O -14.009300 -14.782700 -19.754800
N -13.982400 -9.800700 -19.124500
H -13.868300 -12.517400 -19.129000
O -13.277800 -10.244600 -18.242400
