18
Fragment
O -20.448500 -19.144200 -23.967400
O -20.372700 -17.140600 -23.113300
N -20.104700 -18.345200 -23.108800
H -19.435600 -20.855400 -22.497100
C -19.287800 -18.847100 -21.976500
C -19.114400 -20.212800 -21.854400
H -18.893800 -16.966000 -21.171300
C -18.741900 -17.946400 -21.104600
O -18.669400 -22.845700 -21.408700
C -18.338800 -20.635200 -20.796400
N -18.108800 -22.095200 -20.645200
C -17.976100 -18.448000 -20.065600
C -17.760300 -19.794000 -19.884700
O -17.591600 -16.309100 -19.283800
O -17.374600 -22.467200 -19.754800
N -17.347700 -17.485100 -19.124500
H -17.233500 -20.201900 -19.129000
O -16.643100 -17.929000 -18.242400
18
Fragment
O -15.677700 -21.528300 -17.461600
H -15.087300 -19.255400 -16.575000
N -14.973100 -21.972200 -16.579500
O -14.946200 -16.990100 -15.949200
O -14.729200 -23.148200 -16.420100
C -14.560500 -19.663300 -15.819300
C -14.344700 -21.009200 -15.638400
N -14.212000 -17.362000 -15.058800
C -13.982000 -18.822100 -14.907600
O -13.651300 -16.611600 -14.295300
C -13.578900 -21.510900 -14.599400
H -13.427000 -22.491300 -14.532700
C -13.206400 -19.244500 -13.849600
C -13.033000 -20.610200 -13.727500
H -12.885200 -18.601900 -13.206900
N -12.216100 -21.112100 -12.595200
O -11.948100 -22.316700 -12.590700
O -11.872300 -20.313000 -11.736600
36
Fragment
O -20.448500 -19.144200 -23.967400
O -20.372700 -17.140600 -23.113300
N -20.104700 -18.345200 -23.108800
H -19.435600 -20.855400 -22.497100
C -19.287800 -18.847100 -21.976500
C -19.114400 -20.212800 -21.854400
H -18.893800 -16.966000 -21.171300
C -18.741900 -17.946400 -21.104600
O -18.669400 -22.845700 -21.408700
C -18.338800 -20.635200 -20.796400
N -18.108800 -22.095200 -20.645200
C -17.976100 -18.448000 -20.065600
C -17.760300 -19.794000 -19.884700
O -17.591600 -16.309100 -19.283800
O -17.374600 -22.467200 -19.754800
N -17.347700 -17.485100 -19.124500
H -17.233500 -20.201900 -19.129000
O -16.643100 -17.929000 -18.242400
O -15.677700 -21.528300 -17.461600
H -15.087300 -19.255400 -16.575000
N -14.973100 -21.972200 -16.579500
O -14.946200 -16.990100 -15.949200
O -14.729200 -23.148200 -16.420100
C -14.560500 -19.663300 -15.819300
C -14.344700 -21.009200 -15.638400
N -14.212000 -17.362000 -15.058800
C -13.982000 -18.822100 -14.907600
O -13.651300 -16.611600 -14.295300
C -13.578900 -21.510900 -14.599400
H -13.427000 -22.491300 -14.532700
C -13.206400 -19.244500 -13.849600
C -13.033000 -20.610200 -13.727500
H -12.885200 -18.601900 -13.206900
N -12.216100 -21.112100 -12.595200
O -11.948100 -22.316700 -12.590700
O -11.872300 -20.313000 -11.736600
