18
Fragment
O -20.448500 -19.144200 -23.967400
O -20.372700 -17.140600 -23.113300
N -20.104700 -18.345200 -23.108800
H -19.435600 -20.855400 -22.497100
C -19.287800 -18.847100 -21.976500
C -19.114400 -20.212800 -21.854400
H -18.893800 -16.966000 -21.171300
C -18.741900 -17.946400 -21.104600
O -18.669400 -22.845700 -21.408700
C -18.338800 -20.635200 -20.796400
N -18.108800 -22.095200 -20.645200
C -17.976100 -18.448000 -20.065600
C -17.760300 -19.794000 -19.884700
O -17.591600 -16.309100 -19.283800
O -17.374600 -22.467200 -19.754800
N -17.347700 -17.485100 -19.124500
H -17.233500 -20.201900 -19.129000
O -16.643100 -17.929000 -18.242400
17
Fragment
H -25.875200 -16.322200 -30.019900
N -25.369200 -16.855400 -29.512900
H -25.313800 -17.670600 -29.562900
C -24.711700 -16.206000 -28.531100
N -24.675100 -14.896100 -28.387300
N -24.028300 -16.882500 -27.562900
C -23.911900 -14.704500 -27.228700
H -23.908900 -17.767000 -27.471800
H -23.900400 -12.748900 -26.936300
C -23.574500 -13.530200 -26.576900
C -23.500400 -15.938600 -26.702800
C -22.833900 -13.632200 -25.411700
C -22.754100 -16.034500 -25.531900
H -22.642200 -12.838000 -24.972600
H -22.505700 -16.981500 -25.167700
C -22.436000 -14.848400 -24.897600
H -21.968100 -14.985500 -24.043100
35
Fragment
O -20.448500 -19.144200 -23.967400
O -20.372700 -17.140600 -23.113300
N -20.104700 -18.345200 -23.108800
H -19.435600 -20.855400 -22.497100
C -19.287800 -18.847100 -21.976500
C -19.114400 -20.212800 -21.854400
H -18.893800 -16.966000 -21.171300
C -18.741900 -17.946400 -21.104600
O -18.669400 -22.845700 -21.408700
C -18.338800 -20.635200 -20.796400
N -18.108800 -22.095200 -20.645200
C -17.976100 -18.448000 -20.065600
C -17.760300 -19.794000 -19.884700
O -17.591600 -16.309100 -19.283800
O -17.374600 -22.467200 -19.754800
N -17.347700 -17.485100 -19.124500
H -17.233500 -20.201900 -19.129000
O -16.643100 -17.929000 -18.242400
H -25.875200 -16.322200 -30.019900
N -25.369200 -16.855400 -29.512900
H -25.313800 -17.670600 -29.562900
C -24.711700 -16.206000 -28.531100
N -24.675100 -14.896100 -28.387300
N -24.028300 -16.882500 -27.562900
C -23.911900 -14.704500 -27.228700
H -23.908900 -17.767000 -27.471800
H -23.900400 -12.748900 -26.936300
C -23.574500 -13.530200 -26.576900
C -23.500400 -15.938600 -26.702800
C -22.833900 -13.632200 -25.411700
C -22.754100 -16.034500 -25.531900
H -22.642200 -12.838000 -24.972600
H -22.505700 -16.981500 -25.167700
C -22.436000 -14.848400 -24.897600
H -21.968100 -14.985500 -24.043100
