16
Fragment
O -13.868700 -7.268900 -5.820800
C -13.198800 -7.884000 -6.633600
H -13.190100 -6.531900 -8.067800
H -13.167500 -10.050500 -4.740700
N -12.867300 -7.317500 -7.864400
N -12.741800 -10.151700 -5.517400
C -12.672400 -9.201700 -6.514300
C -12.116400 -7.854000 -8.883300
C -12.062000 -11.215700 -5.953500
H -11.936100 -11.996100 -5.400800
C -11.929000 -9.793200 -7.506400
O -11.877800 -7.224800 -9.915400
N -11.659100 -9.124700 -8.676600
N -11.536100 -11.046300 -7.173700
H -11.215400 -10.140300 -10.128100
O -10.758200 -9.654800 -9.576700
3
Fragment
H -12.798900 -11.634000 -10.561500
O -12.233700 -11.093500 -11.170900
H -11.770500 -11.544700 -11.701700
19
Fragment
O -13.868700 -7.268900 -5.820800
C -13.198800 -7.884000 -6.633600
H -13.190100 -6.531900 -8.067800
H -13.167500 -10.050500 -4.740700
N -12.867300 -7.317500 -7.864400
N -12.741800 -10.151700 -5.517400
C -12.672400 -9.201700 -6.514300
C -12.116400 -7.854000 -8.883300
C -12.062000 -11.215700 -5.953500
H -11.936100 -11.996100 -5.400800
C -11.929000 -9.793200 -7.506400
O -11.877800 -7.224800 -9.915400
N -11.659100 -9.124700 -8.676600
N -11.536100 -11.046300 -7.173700
H -11.215400 -10.140300 -10.128100
O -10.758200 -9.654800 -9.576700
H -12.798900 -11.634000 -10.561500
O -12.233700 -11.093500 -11.170900
H -11.770500 -11.544700 -11.701700
