3
Fragment
H -29.762500 -6.778000 -8.983300
O -29.244600 -6.139500 -9.416400
H -28.726700 -6.778000 -9.849600
13
Fragment
H -27.970700 -4.060300 -12.969500
H -27.964600 -5.210400 -14.237600
N -27.577400 -4.794500 -13.483700
O -27.573400 -3.450800 -11.184800
C -26.507800 -4.008700 -10.940000
C -26.414000 -5.290600 -13.098900
H -26.147300 -3.319400 -9.133900
N -25.875200 -4.798200 -11.904200
N -25.856100 -3.905900 -9.781800
O -25.780100 -6.121900 -13.743000
H -25.167000 -4.215800 -9.692600
O -24.694600 -5.440800 -11.508100
H -23.989600 -4.895200 -11.764200
16
Fragment
H -29.762500 -6.778000 -8.983300
O -29.244600 -6.139500 -9.416400
H -28.726700 -6.778000 -9.849600
H -27.970700 -4.060300 -12.969500
H -27.964600 -5.210400 -14.237600
N -27.577400 -4.794500 -13.483700
O -27.573400 -3.450800 -11.184800
C -26.507800 -4.008700 -10.940000
C -26.414000 -5.290600 -13.098900
H -26.147300 -3.319400 -9.133900
N -25.875200 -4.798200 -11.904200
N -25.856100 -3.905900 -9.781800
O -25.780100 -6.121900 -13.743000
H -25.167000 -4.215800 -9.692600
O -24.694600 -5.440800 -11.508100
H -23.989600 -4.895200 -11.764200
