3
Fragment
H -29.762500 -6.778000 -8.983300
O -29.244600 -6.139500 -9.416400
H -28.726700 -6.778000 -9.849600
13
Fragment
H -28.295300 -4.060300 -6.691900
H -28.289200 -5.210400 -7.960000
N -27.902000 -4.794500 -7.206100
O -27.898000 -3.450800 -4.907200
C -26.832400 -4.008700 -4.662400
C -26.738600 -5.290600 -6.821300
H -26.471900 -3.319400 -2.856300
N -26.199800 -4.798200 -5.626600
N -26.180700 -3.905900 -3.504200
O -26.104800 -6.121900 -7.465300
H -25.491600 -4.215800 -3.415000
O -25.019200 -5.440800 -5.230500
H -24.314200 -4.895200 -5.486600
16
Fragment
H -29.762500 -6.778000 -8.983300
O -29.244600 -6.139500 -9.416400
H -28.726700 -6.778000 -9.849600
H -28.295300 -4.060300 -6.691900
H -28.289200 -5.210400 -7.960000
N -27.902000 -4.794500 -7.206100
O -27.898000 -3.450800 -4.907200
C -26.832400 -4.008700 -4.662400
C -26.738600 -5.290600 -6.821300
H -26.471900 -3.319400 -2.856300
N -26.199800 -4.798200 -5.626600
N -26.180700 -3.905900 -3.504200
O -26.104800 -6.121900 -7.465300
H -25.491600 -4.215800 -3.415000
O -25.019200 -5.440800 -5.230500
H -24.314200 -4.895200 -5.486600
