27
Fragment
H -17.631700 -19.259800 -10.104200
H -17.539200 -20.635100 -11.984200
C -17.211300 -18.953200 -10.875000
C -17.156800 -19.788300 -12.017300
H -16.699300 -17.177200 -10.129600
C -16.660900 -17.716400 -10.886500
C -16.561100 -19.374900 -13.148800
H -16.530300 -19.929900 -13.894400
H -16.208800 -19.196900 -16.122300
C -16.026600 -17.253200 -12.061900
N -15.990500 -18.107100 -13.191000
N -15.437200 -16.095500 -12.294400
C -15.325500 -17.387900 -14.157600
C -15.262900 -19.058100 -16.032900
N -15.015100 -17.730300 -15.454700
C -15.003600 -16.186500 -13.590200
H -14.893900 -19.732000 -15.457300
H -14.848500 -19.113500 -16.897000
C -14.423400 -16.774800 -16.257600
C -14.298600 -15.185600 -14.342800
O -14.198000 -16.983000 -17.437300
H -14.136800 -13.838200 -16.706700
N -14.085700 -15.558100 -15.673800
O -13.904700 -14.114900 -13.923000
C -13.492400 -14.531600 -16.544400
H -13.234700 -14.929800 -17.379200
H -12.719600 -14.156300 -16.116700
27
Fragment
H -15.378300 -14.213600 -19.198000
H -15.285700 -15.589000 -21.078100
C -14.957900 -13.907100 -19.968800
C -14.903400 -14.742200 -21.111200
H -14.445900 -12.131100 -19.223500
C -14.407400 -12.670300 -19.980400
C -14.307600 -14.328800 -22.242600
H -14.276800 -14.883800 -22.988200
H -13.955300 -14.150800 -25.216100
C -13.773100 -12.207100 -21.155700
N -13.737100 -13.061000 -22.284800
N -13.183800 -11.049300 -21.388300
C -13.072000 -12.341700 -23.251400
C -13.009400 -14.012000 -25.126700
N -12.761600 -12.684200 -24.548600
C -12.750100 -11.140400 -22.684000
H -12.640500 -14.685900 -24.551100
H -12.595000 -14.067400 -25.990800
C -12.169900 -11.728700 -25.351500
C -12.045200 -10.139500 -23.436700
O -11.944500 -11.936900 -26.531100
H -11.883300 -8.792100 -25.800500
N -11.832200 -10.512000 -24.767600
O -11.651200 -9.068800 -23.016900
C -11.239000 -9.485500 -25.638300
H -10.981300 -9.883700 -26.473100
H -10.466100 -9.110200 -25.210600
54
Fragment
H -17.631700 -19.259800 -10.104200
H -17.539200 -20.635100 -11.984200
C -17.211300 -18.953200 -10.875000
C -17.156800 -19.788300 -12.017300
H -16.699300 -17.177200 -10.129600
C -16.660900 -17.716400 -10.886500
C -16.561100 -19.374900 -13.148800
H -16.530300 -19.929900 -13.894400
H -16.208800 -19.196900 -16.122300
C -16.026600 -17.253200 -12.061900
N -15.990500 -18.107100 -13.191000
N -15.437200 -16.095500 -12.294400
C -15.325500 -17.387900 -14.157600
C -15.262900 -19.058100 -16.032900
N -15.015100 -17.730300 -15.454700
C -15.003600 -16.186500 -13.590200
H -14.893900 -19.732000 -15.457300
H -14.848500 -19.113500 -16.897000
C -14.423400 -16.774800 -16.257600
C -14.298600 -15.185600 -14.342800
O -14.198000 -16.983000 -17.437300
H -14.136800 -13.838200 -16.706700
N -14.085700 -15.558100 -15.673800
O -13.904700 -14.114900 -13.923000
C -13.492400 -14.531600 -16.544400
H -13.234700 -14.929800 -17.379200
H -12.719600 -14.156300 -16.116700
H -15.378300 -14.213600 -19.198000
H -15.285700 -15.589000 -21.078100
C -14.957900 -13.907100 -19.968800
C -14.903400 -14.742200 -21.111200
H -14.445900 -12.131100 -19.223500
C -14.407400 -12.670300 -19.980400
C -14.307600 -14.328800 -22.242600
H -14.276800 -14.883800 -22.988200
H -13.955300 -14.150800 -25.216100
C -13.773100 -12.207100 -21.155700
N -13.737100 -13.061000 -22.284800
N -13.183800 -11.049300 -21.388300
C -13.072000 -12.341700 -23.251400
C -13.009400 -14.012000 -25.126700
N -12.761600 -12.684200 -24.548600
C -12.750100 -11.140400 -22.684000
H -12.640500 -14.685900 -24.551100
H -12.595000 -14.067400 -25.990800
C -12.169900 -11.728700 -25.351500
C -12.045200 -10.139500 -23.436700
O -11.944500 -11.936900 -26.531100
H -11.883300 -8.792100 -25.800500
N -11.832200 -10.512000 -24.767600
O -11.651200 -9.068800 -23.016900
C -11.239000 -9.485500 -25.638300
H -10.981300 -9.883700 -26.473100
H -10.466100 -9.110200 -25.210600
