27
Fragment
H -17.631700 -19.259800 -10.104200
H -17.539200 -20.635100 -11.984200
C -17.211300 -18.953200 -10.875000
C -17.156800 -19.788300 -12.017300
H -16.699300 -17.177200 -10.129600
C -16.660900 -17.716400 -10.886500
C -16.561100 -19.374900 -13.148800
H -16.530300 -19.929900 -13.894400
H -16.208800 -19.196900 -16.122300
C -16.026600 -17.253200 -12.061900
N -15.990500 -18.107100 -13.191000
N -15.437200 -16.095500 -12.294400
C -15.325500 -17.387900 -14.157600
C -15.262900 -19.058100 -16.032900
N -15.015100 -17.730300 -15.454700
C -15.003600 -16.186500 -13.590200
H -14.893900 -19.732000 -15.457300
H -14.848500 -19.113500 -16.897000
C -14.423400 -16.774800 -16.257600
C -14.298600 -15.185600 -14.342800
O -14.198000 -16.983000 -17.437300
H -14.136800 -13.838200 -16.706700
N -14.085700 -15.558100 -15.673800
O -13.904700 -14.114900 -13.923000
C -13.492400 -14.531600 -16.544400
H -13.234700 -14.929800 -17.379200
H -12.719600 -14.156300 -16.116700
3
Fragment
O -16.458300 -17.169800 -19.314700
H -16.335000 -17.724600 -19.947000
H -15.767700 -17.248300 -18.825000
30
Fragment
H -17.631700 -19.259800 -10.104200
H -17.539200 -20.635100 -11.984200
C -17.211300 -18.953200 -10.875000
C -17.156800 -19.788300 -12.017300
H -16.699300 -17.177200 -10.129600
C -16.660900 -17.716400 -10.886500
C -16.561100 -19.374900 -13.148800
H -16.530300 -19.929900 -13.894400
H -16.208800 -19.196900 -16.122300
C -16.026600 -17.253200 -12.061900
N -15.990500 -18.107100 -13.191000
N -15.437200 -16.095500 -12.294400
C -15.325500 -17.387900 -14.157600
C -15.262900 -19.058100 -16.032900
N -15.015100 -17.730300 -15.454700
C -15.003600 -16.186500 -13.590200
H -14.893900 -19.732000 -15.457300
H -14.848500 -19.113500 -16.897000
C -14.423400 -16.774800 -16.257600
C -14.298600 -15.185600 -14.342800
O -14.198000 -16.983000 -17.437300
H -14.136800 -13.838200 -16.706700
N -14.085700 -15.558100 -15.673800
O -13.904700 -14.114900 -13.923000
C -13.492400 -14.531600 -16.544400
H -13.234700 -14.929800 -17.379200
H -12.719600 -14.156300 -16.116700
O -16.458300 -17.169800 -19.314700
H -16.335000 -17.724600 -19.947000
H -15.767700 -17.248300 -18.825000
