27
Fragment
H -17.631700 -19.259800 -10.104200
H -17.539200 -20.635100 -11.984200
C -17.211300 -18.953200 -10.875000
C -17.156800 -19.788300 -12.017300
H -16.699300 -17.177200 -10.129600
C -16.660900 -17.716400 -10.886500
C -16.561100 -19.374900 -13.148800
H -16.530300 -19.929900 -13.894400
H -16.208800 -19.196900 -16.122300
C -16.026600 -17.253200 -12.061900
N -15.990500 -18.107100 -13.191000
N -15.437200 -16.095500 -12.294400
C -15.325500 -17.387900 -14.157600
C -15.262900 -19.058100 -16.032900
N -15.015100 -17.730300 -15.454700
C -15.003600 -16.186500 -13.590200
H -14.893900 -19.732000 -15.457300
H -14.848500 -19.113500 -16.897000
C -14.423400 -16.774800 -16.257600
C -14.298600 -15.185600 -14.342800
O -14.198000 -16.983000 -17.437300
H -14.136800 -13.838200 -16.706700
N -14.085700 -15.558100 -15.673800
O -13.904700 -14.114900 -13.923000
C -13.492400 -14.531600 -16.544400
H -13.234700 -14.929800 -17.379200
H -12.719600 -14.156300 -16.116700
27
Fragment
H -14.239100 -19.747900 -11.164800
H -13.723900 -18.974400 -9.902300
C -13.466300 -19.372500 -10.737100
O -13.054000 -19.789200 -13.358500
N -12.873000 -18.346100 -11.607700
H -12.821900 -20.066000 -10.574900
O -12.760700 -16.921100 -9.844300
C -12.660000 -18.718500 -12.938700
C -12.535300 -17.129400 -11.023900
H -12.110200 -14.790700 -10.384500
H -12.064800 -14.172100 -11.824300
C -11.955100 -17.717600 -13.691300
N -11.943600 -16.173900 -11.826800
C -11.695800 -14.846100 -11.248600
C -11.633200 -16.516300 -13.124000
N -11.521500 -17.808700 -14.987100
N -10.968200 -15.797000 -14.090500
C -10.932100 -16.650900 -15.219600
H -10.749900 -14.707300 -11.159200
H -10.428400 -13.974200 -13.387100
C -10.397600 -14.529200 -14.132700
C -10.297800 -16.187800 -16.395000
H -10.259300 -16.727000 -17.151900
C -9.801800 -14.115900 -15.264200
C -9.747300 -14.950900 -16.406600
H -9.419500 -13.269000 -15.297300
H -9.326900 -14.644400 -17.177400
54
Fragment
H -17.631700 -19.259800 -10.104200
H -17.539200 -20.635100 -11.984200
C -17.211300 -18.953200 -10.875000
C -17.156800 -19.788300 -12.017300
H -16.699300 -17.177200 -10.129600
C -16.660900 -17.716400 -10.886500
C -16.561100 -19.374900 -13.148800
H -16.530300 -19.929900 -13.894400
H -16.208800 -19.196900 -16.122300
C -16.026600 -17.253200 -12.061900
N -15.990500 -18.107100 -13.191000
N -15.437200 -16.095500 -12.294400
C -15.325500 -17.387900 -14.157600
C -15.262900 -19.058100 -16.032900
N -15.015100 -17.730300 -15.454700
C -15.003600 -16.186500 -13.590200
H -14.893900 -19.732000 -15.457300
H -14.848500 -19.113500 -16.897000
C -14.423400 -16.774800 -16.257600
C -14.298600 -15.185600 -14.342800
O -14.198000 -16.983000 -17.437300
H -14.136800 -13.838200 -16.706700
N -14.085700 -15.558100 -15.673800
O -13.904700 -14.114900 -13.923000
C -13.492400 -14.531600 -16.544400
H -13.234700 -14.929800 -17.379200
H -12.719600 -14.156300 -16.116700
H -14.239100 -19.747900 -11.164800
H -13.723900 -18.974400 -9.902300
C -13.466300 -19.372500 -10.737100
O -13.054000 -19.789200 -13.358500
N -12.873000 -18.346100 -11.607700
H -12.821900 -20.066000 -10.574900
O -12.760700 -16.921100 -9.844300
C -12.660000 -18.718500 -12.938700
C -12.535300 -17.129400 -11.023900
H -12.110200 -14.790700 -10.384500
H -12.064800 -14.172100 -11.824300
C -11.955100 -17.717600 -13.691300
N -11.943600 -16.173900 -11.826800
C -11.695800 -14.846100 -11.248600
C -11.633200 -16.516300 -13.124000
N -11.521500 -17.808700 -14.987100
N -10.968200 -15.797000 -14.090500
C -10.932100 -16.650900 -15.219600
H -10.749900 -14.707300 -11.159200
H -10.428400 -13.974200 -13.387100
C -10.397600 -14.529200 -14.132700
C -10.297800 -16.187800 -16.395000
H -10.259300 -16.727000 -17.151900
C -9.801800 -14.115900 -15.264200
C -9.747300 -14.950900 -16.406600
H -9.419500 -13.269000 -15.297300
H -9.326900 -14.644400 -17.177400
