3
Fragment
H -22.719000 -10.156000 -20.044700
O -22.613600 -9.409600 -20.414300
H -22.118000 -8.914500 -19.823000
31
Fragment
H -26.432800 -17.085600 -10.402900
H -26.056700 -11.916400 -18.919300
H -25.784600 -17.836100 -8.385000
N -25.670000 -16.617000 -10.470600
H -25.477000 -16.166800 -11.203600
N -25.226000 -11.856000 -19.241100
H -25.083600 -11.790200 -20.105500
N -24.941000 -17.682400 -8.563400
C -24.664100 -16.893900 -9.619400
N -24.448600 -12.620800 -17.228400
H -24.369200 -13.444800 -15.026100
H -24.296200 -17.836100 -7.961400
C -24.202300 -12.283900 -18.483800
C -23.483200 -13.406600 -15.365500
N -23.413500 -16.462700 -9.773300
N -23.282900 -12.980300 -16.556100
N -23.266000 -15.751200 -10.961700
H -22.997700 -12.484600 -19.909200
N -22.957200 -12.301600 -19.056800
N -22.705600 -14.350100 -13.320200
H -22.410900 -12.807200 -18.605800
C -22.367100 -13.836700 -14.517400
C -22.054200 -15.428700 -11.241600
C -21.709300 -14.777000 -12.513600
H -21.365700 -15.615500 -10.613300
C -21.034000 -13.726700 -14.948000
H -20.828800 -13.362700 -15.801400
C -20.361300 -14.687200 -12.865100
C -20.026300 -14.158300 -14.106300
H -19.686000 -14.982200 -12.266900
H -19.116900 -14.094200 -14.372300
34
Fragment
H -22.719000 -10.156000 -20.044700
O -22.613600 -9.409600 -20.414300
H -22.118000 -8.914500 -19.823000
H -26.432800 -17.085600 -10.402900
H -26.056700 -11.916400 -18.919300
H -25.784600 -17.836100 -8.385000
N -25.670000 -16.617000 -10.470600
H -25.477000 -16.166800 -11.203600
N -25.226000 -11.856000 -19.241100
H -25.083600 -11.790200 -20.105500
N -24.941000 -17.682400 -8.563400
C -24.664100 -16.893900 -9.619400
N -24.448600 -12.620800 -17.228400
H -24.369200 -13.444800 -15.026100
H -24.296200 -17.836100 -7.961400
C -24.202300 -12.283900 -18.483800
C -23.483200 -13.406600 -15.365500
N -23.413500 -16.462700 -9.773300
N -23.282900 -12.980300 -16.556100
N -23.266000 -15.751200 -10.961700
H -22.997700 -12.484600 -19.909200
N -22.957200 -12.301600 -19.056800
N -22.705600 -14.350100 -13.320200
H -22.410900 -12.807200 -18.605800
C -22.367100 -13.836700 -14.517400
C -22.054200 -15.428700 -11.241600
C -21.709300 -14.777000 -12.513600
H -21.365700 -15.615500 -10.613300
C -21.034000 -13.726700 -14.948000
H -20.828800 -13.362700 -15.801400
C -20.361300 -14.687200 -12.865100
C -20.026300 -14.158300 -14.106300
H -19.686000 -14.982200 -12.266900
H -19.116900 -14.094200 -14.372300
