3
Fragment
H -22.719000 -10.156000 -20.044700
O -22.613600 -9.409600 -20.414300
H -22.118000 -8.914500 -19.823000
31
Fragment
H -19.738600 -10.587300 -20.930100
H -19.169500 -11.475300 -23.035600
C -18.829100 -10.651400 -21.196200
C -18.494200 -11.180300 -22.437400
H -18.026700 -9.855800 -19.501100
C -17.821400 -10.219800 -20.354400
H -17.489700 -12.108600 -24.689100
C -17.146200 -11.270100 -22.788900
C -16.801300 -11.921800 -24.060900
C -16.488400 -10.329800 -20.785100
H -16.444600 -9.300300 -16.696600
N -16.149900 -10.843200 -21.982300
N -15.898300 -8.794700 -16.245600
H -15.857700 -8.977700 -15.393300
N -15.589500 -12.244300 -24.340800
N -15.572600 -9.473400 -18.746300
N -15.442000 -12.955800 -25.529200
C -15.372300 -9.899700 -19.937000
C -14.653200 -8.777000 -16.818700
H -14.559300 -14.329200 -27.341000
H -14.486200 -9.937900 -20.276300
N -14.406900 -9.113900 -18.074000
C -14.191400 -13.387000 -25.683100
N -13.914500 -14.175500 -26.739100
H -13.771900 -8.283300 -15.197000
N -13.629400 -8.349100 -16.061300
H -13.378500 -12.659900 -24.098900
N -13.185500 -13.110100 -24.831900
H -13.070900 -14.329200 -26.917400
H -12.798800 -8.409500 -16.383200
H -12.422700 -13.578700 -24.899500
34
Fragment
H -22.719000 -10.156000 -20.044700
O -22.613600 -9.409600 -20.414300
H -22.118000 -8.914500 -19.823000
H -19.738600 -10.587300 -20.930100
H -19.169500 -11.475300 -23.035600
C -18.829100 -10.651400 -21.196200
C -18.494200 -11.180300 -22.437400
H -18.026700 -9.855800 -19.501100
C -17.821400 -10.219800 -20.354400
H -17.489700 -12.108600 -24.689100
C -17.146200 -11.270100 -22.788900
C -16.801300 -11.921800 -24.060900
C -16.488400 -10.329800 -20.785100
H -16.444600 -9.300300 -16.696600
N -16.149900 -10.843200 -21.982300
N -15.898300 -8.794700 -16.245600
H -15.857700 -8.977700 -15.393300
N -15.589500 -12.244300 -24.340800
N -15.572600 -9.473400 -18.746300
N -15.442000 -12.955800 -25.529200
C -15.372300 -9.899700 -19.937000
C -14.653200 -8.777000 -16.818700
H -14.559300 -14.329200 -27.341000
H -14.486200 -9.937900 -20.276300
N -14.406900 -9.113900 -18.074000
C -14.191400 -13.387000 -25.683100
N -13.914500 -14.175500 -26.739100
H -13.771900 -8.283300 -15.197000
N -13.629400 -8.349100 -16.061300
H -13.378500 -12.659900 -24.098900
N -13.185500 -13.110100 -24.831900
H -13.070900 -14.329200 -26.917400
H -12.798800 -8.409500 -16.383200
H -12.422700 -13.578700 -24.899500
