20
Fragment
N -5.354900 -9.984000 -15.645100
F -5.347500 -8.447500 -12.993000
C -5.231400 -8.840300 -15.577700
F -5.193800 -6.942600 -10.851200
C -5.120500 -7.141400 -13.143600
C -5.057100 -7.430400 -15.603400
C -5.056500 -6.374200 -12.047500
C -4.978600 -6.627700 -14.486000
C -4.947700 -6.917200 -16.952100
N -4.917900 -4.986000 -8.531400
N -4.882900 -6.593500 -18.051700
C -4.853100 -4.662300 -9.631100
C -4.822200 -4.951800 -12.097100
C -4.744300 -5.205300 -14.535700
C -4.743700 -4.149100 -10.979700
C -4.680300 -4.438100 -13.439600
F -4.607000 -4.636900 -15.731900
C -4.569400 -2.739200 -11.005400
F -4.453300 -3.132000 -13.590200
N -4.445900 -1.595500 -10.938100
20
Fragment
N -6.439300 -1.762000 -15.645100
F -6.431800 -0.225500 -12.993000
C -6.315800 -0.618300 -15.577700
F -6.278100 1.279400 -10.851200
C -6.204800 1.080600 -13.143600
C -6.141500 0.791600 -15.603400
C -6.140900 1.847800 -12.047500
C -6.063000 1.594300 -14.486000
C -6.032000 1.304800 -16.952100
N -6.002200 3.236000 -8.531400
N -5.967300 1.628500 -18.051700
C -5.937500 3.559700 -9.631100
C -5.906500 3.270200 -12.097100
C -5.828600 3.016700 -14.535700
C -5.828000 4.072900 -10.979700
C -5.764700 3.783900 -13.439600
F -5.691400 3.585100 -15.731900
C -5.653700 5.482800 -11.005400
F -5.537700 5.090000 -13.590200
N -5.530200 6.626500 -10.938100
40
Fragment
N -5.354900 -9.984000 -15.645100
F -5.347500 -8.447500 -12.993000
C -5.231400 -8.840300 -15.577700
F -5.193800 -6.942600 -10.851200
C -5.120500 -7.141400 -13.143600
C -5.057100 -7.430400 -15.603400
C -5.056500 -6.374200 -12.047500
C -4.978600 -6.627700 -14.486000
C -4.947700 -6.917200 -16.952100
N -4.917900 -4.986000 -8.531400
N -4.882900 -6.593500 -18.051700
C -4.853100 -4.662300 -9.631100
C -4.822200 -4.951800 -12.097100
C -4.744300 -5.205300 -14.535700
C -4.743700 -4.149100 -10.979700
C -4.680300 -4.438100 -13.439600
F -4.607000 -4.636900 -15.731900
C -4.569400 -2.739200 -11.005400
F -4.453300 -3.132000 -13.590200
N -4.445900 -1.595500 -10.938100
N -6.439300 -1.762000 -15.645100
F -6.431800 -0.225500 -12.993000
C -6.315800 -0.618300 -15.577700
F -6.278100 1.279400 -10.851200
C -6.204800 1.080600 -13.143600
C -6.141500 0.791600 -15.603400
C -6.140900 1.847800 -12.047500
C -6.063000 1.594300 -14.486000
C -6.032000 1.304800 -16.952100
N -6.002200 3.236000 -8.531400
N -5.967300 1.628500 -18.051700
C -5.937500 3.559700 -9.631100
C -5.906500 3.270200 -12.097100
C -5.828600 3.016700 -14.535700
C -5.828000 4.072900 -10.979700
C -5.764700 3.783900 -13.439600
F -5.691400 3.585100 -15.731900
C -5.653700 5.482800 -11.005400
F -5.537700 5.090000 -13.590200
N -5.530200 6.626500 -10.938100
