20
Fragment
N -13.662800 -5.640700 -29.992500
C -12.569700 -5.937400 -29.980600
F -12.185500 -6.557700 -27.483700
C -11.183300 -6.286700 -30.091200
C -10.901000 -6.846400 -27.706500
F -10.710100 -7.341500 -25.477500
C -10.696300 -6.131200 -31.428800
C -10.413800 -6.711700 -29.042300
N -10.395900 -5.963200 -32.510100
C -10.152000 -7.245600 -26.684100
C -9.031600 -7.054600 -29.166900
N -8.787600 -8.337000 -23.340900
C -8.769700 -7.588500 -26.808700
C -8.487200 -8.169000 -24.422100
F -8.473400 -6.958700 -30.373400
C -8.282500 -7.453800 -28.144400
C -8.000200 -8.013500 -25.759800
F -6.998000 -7.742500 -28.367300
C -6.613800 -8.362800 -25.870400
N -5.520800 -8.659500 -25.858400
30
Fragment
H -15.452400 -9.023400 -21.396500
H -14.833200 -8.444300 -19.197800
C -14.572900 -8.718800 -21.197100
C -14.214800 -8.392100 -19.951600
H -13.860800 -8.873300 -23.159500
C -13.652800 -8.634500 -22.249500
H -13.149200 -7.677100 -17.667500
C -12.894500 -7.946500 -19.650600
C -12.505100 -7.608400 -18.374200
C -12.382100 -8.223300 -22.034300
C -11.943800 -7.862600 -20.719400
H -11.748000 -8.186900 -22.699700
H -11.430600 -6.912000 -16.094400
C -11.202300 -7.188100 -18.081800
C -10.792500 -6.849100 -16.788200
C -10.653900 -7.451100 -20.445700
C -10.244000 -7.112100 -19.152200
H -10.015700 -7.388200 -21.139600
H -9.698300 -6.113300 -14.534300
C -9.502500 -6.437600 -16.514600
C -9.064200 -6.076900 -15.199700
C -8.941200 -6.691800 -18.859800
C -8.551800 -6.353700 -17.583400
H -8.297100 -6.623100 -19.566500
C -7.793500 -5.665700 -14.984400
H -7.585500 -5.426900 -14.074400
C -7.231500 -5.908100 -17.282300
C -6.873500 -5.581400 -16.036900
H -6.613100 -5.855900 -18.036100
H -5.993900 -5.276800 -15.837500
50
Fragment
N -13.662800 -5.640700 -29.992500
C -12.569700 -5.937400 -29.980600
F -12.185500 -6.557700 -27.483700
C -11.183300 -6.286700 -30.091200
C -10.901000 -6.846400 -27.706500
F -10.710100 -7.341500 -25.477500
C -10.696300 -6.131200 -31.428800
C -10.413800 -6.711700 -29.042300
N -10.395900 -5.963200 -32.510100
C -10.152000 -7.245600 -26.684100
C -9.031600 -7.054600 -29.166900
N -8.787600 -8.337000 -23.340900
C -8.769700 -7.588500 -26.808700
C -8.487200 -8.169000 -24.422100
F -8.473400 -6.958700 -30.373400
C -8.282500 -7.453800 -28.144400
C -8.000200 -8.013500 -25.759800
F -6.998000 -7.742500 -28.367300
C -6.613800 -8.362800 -25.870400
N -5.520800 -8.659500 -25.858400
H -15.452400 -9.023400 -21.396500
H -14.833200 -8.444300 -19.197800
C -14.572900 -8.718800 -21.197100
C -14.214800 -8.392100 -19.951600
H -13.860800 -8.873300 -23.159500
C -13.652800 -8.634500 -22.249500
H -13.149200 -7.677100 -17.667500
C -12.894500 -7.946500 -19.650600
C -12.505100 -7.608400 -18.374200
C -12.382100 -8.223300 -22.034300
C -11.943800 -7.862600 -20.719400
H -11.748000 -8.186900 -22.699700
H -11.430600 -6.912000 -16.094400
C -11.202300 -7.188100 -18.081800
C -10.792500 -6.849100 -16.788200
C -10.653900 -7.451100 -20.445700
C -10.244000 -7.112100 -19.152200
H -10.015700 -7.388200 -21.139600
H -9.698300 -6.113300 -14.534300
C -9.502500 -6.437600 -16.514600
C -9.064200 -6.076900 -15.199700
C -8.941200 -6.691800 -18.859800
C -8.551800 -6.353700 -17.583400
H -8.297100 -6.623100 -19.566500
C -7.793500 -5.665700 -14.984400
H -7.585500 -5.426900 -14.074400
C -7.231500 -5.908100 -17.282300
C -6.873500 -5.581400 -16.036900
H -6.613100 -5.855900 -18.036100
H -5.993900 -5.276800 -15.837500
