20
Fragment
N -5.354900 -9.984000 -15.645100
F -5.347500 -8.447500 -12.993000
C -5.231400 -8.840300 -15.577700
F -5.193800 -6.942600 -10.851200
C -5.120500 -7.141400 -13.143600
C -5.057100 -7.430400 -15.603400
C -5.056500 -6.374200 -12.047500
C -4.978600 -6.627700 -14.486000
C -4.947700 -6.917200 -16.952100
N -4.917900 -4.986000 -8.531400
N -4.882900 -6.593500 -18.051700
C -4.853100 -4.662300 -9.631100
C -4.822200 -4.951800 -12.097100
C -4.744300 -5.205300 -14.535700
C -4.743700 -4.149100 -10.979700
C -4.680300 -4.438100 -13.439600
F -4.607000 -4.636900 -15.731900
C -4.569400 -2.739200 -11.005400
F -4.453300 -3.132000 -13.590200
N -4.445900 -1.595500 -10.938100
20
Fragment
N -2.559300 -8.362500 -24.506100
F -2.551900 -6.826000 -21.854000
C -2.435900 -7.218800 -24.438800
F -2.398200 -5.321100 -19.712300
C -2.324900 -5.519900 -22.004600
C -2.261600 -5.808900 -24.464500
C -2.261000 -4.752700 -20.908500
C -2.183100 -5.006200 -23.347100
C -2.152100 -5.295700 -25.813100
N -2.122300 -3.364500 -17.392500
N -2.087400 -4.972000 -26.912800
C -2.057500 -3.040800 -18.492100
C -2.026600 -3.330300 -20.958200
C -1.948700 -3.583800 -23.396700
C -1.948100 -2.527600 -19.840800
C -1.884800 -2.816600 -22.300600
F -1.811500 -3.015400 -24.593000
C -1.773800 -1.117700 -19.866500
F -1.657800 -1.510500 -22.451200
N -1.650300 0.026000 -19.799100
40
Fragment
N -5.354900 -9.984000 -15.645100
F -5.347500 -8.447500 -12.993000
C -5.231400 -8.840300 -15.577700
F -5.193800 -6.942600 -10.851200
C -5.120500 -7.141400 -13.143600
C -5.057100 -7.430400 -15.603400
C -5.056500 -6.374200 -12.047500
C -4.978600 -6.627700 -14.486000
C -4.947700 -6.917200 -16.952100
N -4.917900 -4.986000 -8.531400
N -4.882900 -6.593500 -18.051700
C -4.853100 -4.662300 -9.631100
C -4.822200 -4.951800 -12.097100
C -4.744300 -5.205300 -14.535700
C -4.743700 -4.149100 -10.979700
C -4.680300 -4.438100 -13.439600
F -4.607000 -4.636900 -15.731900
C -4.569400 -2.739200 -11.005400
F -4.453300 -3.132000 -13.590200
N -4.445900 -1.595500 -10.938100
N -2.559300 -8.362500 -24.506100
F -2.551900 -6.826000 -21.854000
C -2.435900 -7.218800 -24.438800
F -2.398200 -5.321100 -19.712300
C -2.324900 -5.519900 -22.004600
C -2.261600 -5.808900 -24.464500
C -2.261000 -4.752700 -20.908500
C -2.183100 -5.006200 -23.347100
C -2.152100 -5.295700 -25.813100
N -2.122300 -3.364500 -17.392500
N -2.087400 -4.972000 -26.912800
C -2.057500 -3.040800 -18.492100
C -2.026600 -3.330300 -20.958200
C -1.948700 -3.583800 -23.396700
C -1.948100 -2.527600 -19.840800
C -1.884800 -2.816600 -22.300600
F -1.811500 -3.015400 -24.593000
C -1.773800 -1.117700 -19.866500
F -1.657800 -1.510500 -22.451200
N -1.650300 0.026000 -19.799100
