20
Fragment
N -13.662800 -5.640700 -29.992500
C -12.569700 -5.937400 -29.980600
F -12.185500 -6.557700 -27.483700
C -11.183300 -6.286700 -30.091200
C -10.901000 -6.846400 -27.706500
F -10.710100 -7.341500 -25.477500
C -10.696300 -6.131200 -31.428800
C -10.413800 -6.711700 -29.042300
N -10.395900 -5.963200 -32.510100
C -10.152000 -7.245600 -26.684100
C -9.031600 -7.054600 -29.166900
N -8.787600 -8.337000 -23.340900
C -8.769700 -7.588500 -26.808700
C -8.487200 -8.169000 -24.422100
F -8.473400 -6.958700 -30.373400
C -8.282500 -7.453800 -28.144400
C -8.000200 -8.013500 -25.759800
F -6.998000 -7.742500 -28.367300
C -6.613800 -8.362800 -25.870400
N -5.520800 -8.659500 -25.858400
20
Fragment
N -14.794200 -5.084400 -20.684000
C -13.701100 -4.787700 -20.672100
F -13.316900 -4.167400 -18.175200
C -12.314700 -4.438500 -20.782700
C -12.032400 -3.878700 -18.398100
F -11.841500 -3.383600 -16.169000
C -11.827700 -4.593900 -22.120300
C -11.545200 -4.013500 -19.733800
N -11.527300 -4.762000 -23.201600
C -11.283400 -3.479600 -17.375600
C -10.163000 -3.670500 -19.858400
N -9.919000 -2.388100 -14.032400
C -9.901100 -3.136600 -17.500200
C -9.618600 -2.556200 -15.113600
F -9.604800 -3.766500 -21.064900
C -9.413900 -3.271400 -18.835900
C -9.131600 -2.711600 -16.451300
F -8.129400 -2.982700 -19.058800
C -7.745200 -2.362400 -16.561900
N -6.652200 -2.065700 -16.549900
40
Fragment
N -13.662800 -5.640700 -29.992500
C -12.569700 -5.937400 -29.980600
F -12.185500 -6.557700 -27.483700
C -11.183300 -6.286700 -30.091200
C -10.901000 -6.846400 -27.706500
F -10.710100 -7.341500 -25.477500
C -10.696300 -6.131200 -31.428800
C -10.413800 -6.711700 -29.042300
N -10.395900 -5.963200 -32.510100
C -10.152000 -7.245600 -26.684100
C -9.031600 -7.054600 -29.166900
N -8.787600 -8.337000 -23.340900
C -8.769700 -7.588500 -26.808700
C -8.487200 -8.169000 -24.422100
F -8.473400 -6.958700 -30.373400
C -8.282500 -7.453800 -28.144400
C -8.000200 -8.013500 -25.759800
F -6.998000 -7.742500 -28.367300
C -6.613800 -8.362800 -25.870400
N -5.520800 -8.659500 -25.858400
N -14.794200 -5.084400 -20.684000
C -13.701100 -4.787700 -20.672100
F -13.316900 -4.167400 -18.175200
C -12.314700 -4.438500 -20.782700
C -12.032400 -3.878700 -18.398100
F -11.841500 -3.383600 -16.169000
C -11.827700 -4.593900 -22.120300
C -11.545200 -4.013500 -19.733800
N -11.527300 -4.762000 -23.201600
C -11.283400 -3.479600 -17.375600
C -10.163000 -3.670500 -19.858400
N -9.919000 -2.388100 -14.032400
C -9.901100 -3.136600 -17.500200
C -9.618600 -2.556200 -15.113600
F -9.604800 -3.766500 -21.064900
C -9.413900 -3.271400 -18.835900
C -9.131600 -2.711600 -16.451300
F -8.129400 -2.982700 -19.058800
C -7.745200 -2.362400 -16.561900
N -6.652200 -2.065700 -16.549900
