20
Fragment
N -5.354900 -9.984000 -15.645100
F -5.347500 -8.447500 -12.993000
C -5.231400 -8.840300 -15.577700
F -5.193800 -6.942600 -10.851200
C -5.120500 -7.141400 -13.143600
C -5.057100 -7.430400 -15.603400
C -5.056500 -6.374200 -12.047500
C -4.978600 -6.627700 -14.486000
C -4.947700 -6.917200 -16.952100
N -4.917900 -4.986000 -8.531400
N -4.882900 -6.593500 -18.051700
C -4.853100 -4.662300 -9.631100
C -4.822200 -4.951800 -12.097100
C -4.744300 -5.205300 -14.535700
C -4.743700 -4.149100 -10.979700
C -4.680300 -4.438100 -13.439600
F -4.607000 -4.636900 -15.731900
C -4.569400 -2.739200 -11.005400
F -4.453300 -3.132000 -13.590200
N -4.445900 -1.595500 -10.938100
24
Fragment
H -2.048900 -9.810200 -15.489100
H -2.041200 -9.165100 -13.295100
C -1.919600 -8.896500 -15.265800
C -1.913300 -8.512800 -13.974800
H -1.818200 -7.388000 -11.584900
H -1.733200 -8.213700 -17.204600
C -1.731400 -7.934900 -16.297200
C -1.719700 -7.154300 -13.607900
C -1.694200 -6.745600 -12.273400
H -1.580300 -5.586900 -9.880100
C -1.549200 -6.620400 -15.999500
C -1.526500 -6.171100 -14.644700
C -1.489000 -5.408400 -11.938500
C -1.466200 -4.959100 -10.583600
H -1.435100 -5.992600 -16.703100
C -1.321200 -4.833900 -14.309700
C -1.295700 -4.425200 -12.975200
C -1.284000 -3.644600 -10.285900
H -1.282200 -3.365800 -9.378500
H -1.197200 -4.191500 -14.998200
C -1.102100 -3.066700 -12.608400
C -1.095800 -2.683000 -11.317300
H -0.974200 -2.414400 -13.288000
H -0.966500 -1.769300 -11.094000
44
Fragment
N -5.354900 -9.984000 -15.645100
F -5.347500 -8.447500 -12.993000
C -5.231400 -8.840300 -15.577700
F -5.193800 -6.942600 -10.851200
C -5.120500 -7.141400 -13.143600
C -5.057100 -7.430400 -15.603400
C -5.056500 -6.374200 -12.047500
C -4.978600 -6.627700 -14.486000
C -4.947700 -6.917200 -16.952100
N -4.917900 -4.986000 -8.531400
N -4.882900 -6.593500 -18.051700
C -4.853100 -4.662300 -9.631100
C -4.822200 -4.951800 -12.097100
C -4.744300 -5.205300 -14.535700
C -4.743700 -4.149100 -10.979700
C -4.680300 -4.438100 -13.439600
F -4.607000 -4.636900 -15.731900
C -4.569400 -2.739200 -11.005400
F -4.453300 -3.132000 -13.590200
N -4.445900 -1.595500 -10.938100
H -2.048900 -9.810200 -15.489100
H -2.041200 -9.165100 -13.295100
C -1.919600 -8.896500 -15.265800
C -1.913300 -8.512800 -13.974800
H -1.818200 -7.388000 -11.584900
H -1.733200 -8.213700 -17.204600
C -1.731400 -7.934900 -16.297200
C -1.719700 -7.154300 -13.607900
C -1.694200 -6.745600 -12.273400
H -1.580300 -5.586900 -9.880100
C -1.549200 -6.620400 -15.999500
C -1.526500 -6.171100 -14.644700
C -1.489000 -5.408400 -11.938500
C -1.466200 -4.959100 -10.583600
H -1.435100 -5.992600 -16.703100
C -1.321200 -4.833900 -14.309700
C -1.295700 -4.425200 -12.975200
C -1.284000 -3.644600 -10.285900
H -1.282200 -3.365800 -9.378500
H -1.197200 -4.191500 -14.998200
C -1.102100 -3.066700 -12.608400
C -1.095800 -2.683000 -11.317300
H -0.974200 -2.414400 -13.288000
H -0.966500 -1.769300 -11.094000
