20
Fragment
N -5.354900 -9.984000 -15.645100
F -5.347500 -8.447500 -12.993000
C -5.231400 -8.840300 -15.577700
F -5.193800 -6.942600 -10.851200
C -5.120500 -7.141400 -13.143600
C -5.057100 -7.430400 -15.603400
C -5.056500 -6.374200 -12.047500
C -4.978600 -6.627700 -14.486000
C -4.947700 -6.917200 -16.952100
N -4.917900 -4.986000 -8.531400
N -4.882900 -6.593500 -18.051700
C -4.853100 -4.662300 -9.631100
C -4.822200 -4.951800 -12.097100
C -4.744300 -5.205300 -14.535700
C -4.743700 -4.149100 -10.979700
C -4.680300 -4.438100 -13.439600
F -4.607000 -4.636900 -15.731900
C -4.569400 -2.739200 -11.005400
F -4.453300 -3.132000 -13.590200
N -4.445900 -1.595500 -10.938100
24
Fragment
H -4.954400 -16.410700 -24.350200
H -4.946700 -15.765600 -22.156200
C -4.825100 -15.497000 -24.126900
C -4.818800 -15.113300 -22.835800
H -4.723700 -13.988500 -20.446000
H -4.638700 -14.814200 -26.065700
C -4.636900 -14.535400 -25.158300
C -4.625200 -13.754800 -22.469000
C -4.599700 -13.346100 -21.134500
H -4.485800 -12.187400 -18.741100
C -4.454700 -13.220900 -24.860600
C -4.431900 -12.771600 -23.505700
C -4.394400 -12.008900 -20.799500
C -4.371700 -11.559600 -19.444700
H -4.340600 -12.593100 -25.564100
C -4.226700 -11.434400 -23.170800
C -4.201200 -11.025700 -21.836300
C -4.189500 -10.245100 -19.147000
H -4.187700 -9.966300 -18.239600
H -4.102700 -10.792000 -23.859300
C -4.007600 -9.667200 -21.469400
C -4.001300 -9.283500 -20.178400
H -3.879700 -9.015000 -22.149100
H -3.872000 -8.369800 -19.955100
44
Fragment
N -5.354900 -9.984000 -15.645100
F -5.347500 -8.447500 -12.993000
C -5.231400 -8.840300 -15.577700
F -5.193800 -6.942600 -10.851200
C -5.120500 -7.141400 -13.143600
C -5.057100 -7.430400 -15.603400
C -5.056500 -6.374200 -12.047500
C -4.978600 -6.627700 -14.486000
C -4.947700 -6.917200 -16.952100
N -4.917900 -4.986000 -8.531400
N -4.882900 -6.593500 -18.051700
C -4.853100 -4.662300 -9.631100
C -4.822200 -4.951800 -12.097100
C -4.744300 -5.205300 -14.535700
C -4.743700 -4.149100 -10.979700
C -4.680300 -4.438100 -13.439600
F -4.607000 -4.636900 -15.731900
C -4.569400 -2.739200 -11.005400
F -4.453300 -3.132000 -13.590200
N -4.445900 -1.595500 -10.938100
H -4.954400 -16.410700 -24.350200
H -4.946700 -15.765600 -22.156200
C -4.825100 -15.497000 -24.126900
C -4.818800 -15.113300 -22.835800
H -4.723700 -13.988500 -20.446000
H -4.638700 -14.814200 -26.065700
C -4.636900 -14.535400 -25.158300
C -4.625200 -13.754800 -22.469000
C -4.599700 -13.346100 -21.134500
H -4.485800 -12.187400 -18.741100
C -4.454700 -13.220900 -24.860600
C -4.431900 -12.771600 -23.505700
C -4.394400 -12.008900 -20.799500
C -4.371700 -11.559600 -19.444700
H -4.340600 -12.593100 -25.564100
C -4.226700 -11.434400 -23.170800
C -4.201200 -11.025700 -21.836300
C -4.189500 -10.245100 -19.147000
H -4.187700 -9.966300 -18.239600
H -4.102700 -10.792000 -23.859300
C -4.007600 -9.667200 -21.469400
C -4.001300 -9.283500 -20.178400
H -3.879700 -9.015000 -22.149100
H -3.872000 -8.369800 -19.955100
