20
Fragment
N -5.354900 -9.984000 -15.645100
F -5.347500 -8.447500 -12.993000
C -5.231400 -8.840300 -15.577700
F -5.193800 -6.942600 -10.851200
C -5.120500 -7.141400 -13.143600
C -5.057100 -7.430400 -15.603400
C -5.056500 -6.374200 -12.047500
C -4.978600 -6.627700 -14.486000
C -4.947700 -6.917200 -16.952100
N -4.917900 -4.986000 -8.531400
N -4.882900 -6.593500 -18.051700
C -4.853100 -4.662300 -9.631100
C -4.822200 -4.951800 -12.097100
C -4.744300 -5.205300 -14.535700
C -4.743700 -4.149100 -10.979700
C -4.680300 -4.438100 -13.439600
F -4.607000 -4.636900 -15.731900
C -4.569400 -2.739200 -11.005400
F -4.453300 -3.132000 -13.590200
N -4.445900 -1.595500 -10.938100
24
Fragment
H -6.038800 -8.188700 -24.350200
H -6.031000 -7.543600 -22.156200
C -5.909400 -7.275000 -24.126900
C -5.903200 -6.891300 -22.835800
H -5.808000 -5.766500 -20.446000
H -5.723000 -6.592200 -26.065700
C -5.721200 -6.313400 -25.158300
C -5.709600 -5.532800 -22.469000
C -5.684000 -5.124100 -21.134500
H -5.570100 -3.965400 -18.741100
C -5.539000 -4.998900 -24.860600
C -5.516300 -4.549600 -23.505700
C -5.478800 -3.786900 -20.799500
C -5.456000 -3.337600 -19.444700
H -5.425000 -4.371100 -25.564100
C -5.311100 -3.212400 -23.170800
C -5.285500 -2.803700 -21.836300
C -5.273900 -2.023100 -19.147000
H -5.272000 -1.744300 -18.239600
H -5.187100 -2.570000 -23.859300
C -5.091900 -1.445200 -21.469400
C -5.085700 -1.061500 -20.178400
H -4.964100 -0.792900 -22.149100
H -4.956300 -0.147800 -19.955100
44
Fragment
N -5.354900 -9.984000 -15.645100
F -5.347500 -8.447500 -12.993000
C -5.231400 -8.840300 -15.577700
F -5.193800 -6.942600 -10.851200
C -5.120500 -7.141400 -13.143600
C -5.057100 -7.430400 -15.603400
C -5.056500 -6.374200 -12.047500
C -4.978600 -6.627700 -14.486000
C -4.947700 -6.917200 -16.952100
N -4.917900 -4.986000 -8.531400
N -4.882900 -6.593500 -18.051700
C -4.853100 -4.662300 -9.631100
C -4.822200 -4.951800 -12.097100
C -4.744300 -5.205300 -14.535700
C -4.743700 -4.149100 -10.979700
C -4.680300 -4.438100 -13.439600
F -4.607000 -4.636900 -15.731900
C -4.569400 -2.739200 -11.005400
F -4.453300 -3.132000 -13.590200
N -4.445900 -1.595500 -10.938100
H -6.038800 -8.188700 -24.350200
H -6.031000 -7.543600 -22.156200
C -5.909400 -7.275000 -24.126900
C -5.903200 -6.891300 -22.835800
H -5.808000 -5.766500 -20.446000
H -5.723000 -6.592200 -26.065700
C -5.721200 -6.313400 -25.158300
C -5.709600 -5.532800 -22.469000
C -5.684000 -5.124100 -21.134500
H -5.570100 -3.965400 -18.741100
C -5.539000 -4.998900 -24.860600
C -5.516300 -4.549600 -23.505700
C -5.478800 -3.786900 -20.799500
C -5.456000 -3.337600 -19.444700
H -5.425000 -4.371100 -25.564100
C -5.311100 -3.212400 -23.170800
C -5.285500 -2.803700 -21.836300
C -5.273900 -2.023100 -19.147000
H -5.272000 -1.744300 -18.239600
H -5.187100 -2.570000 -23.859300
C -5.091900 -1.445200 -21.469400
C -5.085700 -1.061500 -20.178400
H -4.964100 -0.792900 -22.149100
H -4.956300 -0.147800 -19.955100
