31
Fragment
H -8.199100 -6.715600 -25.412800
H -7.996500 -8.611900 -24.153100
C -7.885200 -6.665200 -24.538600
C -7.757500 -7.796800 -23.774700
H -7.631300 -4.672500 -24.476200
C -7.540700 -5.458700 -23.988100
N -7.308200 -7.790800 -22.513700
C -7.058900 -5.430900 -22.704100
C -6.951000 -6.612100 -21.993900
H -6.807100 -4.624900 -22.315100
C -6.422500 -6.646800 -20.628000
H -6.382800 -7.448700 -20.159300
N -6.018900 -5.567400 -20.091200
N -5.528000 -5.669800 -18.816600
H -5.487800 -6.431900 -18.419000
O -5.153600 -3.438700 -18.716300
C -5.107600 -4.540200 -18.198000
H -4.958700 -1.934700 -16.545800
H -4.685700 -6.766200 -16.389500
C -4.604900 -4.757100 -16.828300
C -4.473100 -5.905700 -16.109000
N -4.163300 -3.699500 -16.036100
C -4.077100 -2.278000 -16.382600
C -3.955400 -5.533700 -14.864800
C -3.772900 -4.179600 -14.848900
O -3.748900 -7.613700 -13.964500
H -3.674300 -1.796200 -15.656200
N -3.597600 -6.404600 -13.807400
H -3.541500 -2.173400 -17.172400
H -3.436900 -3.680400 -14.139900
O -3.130900 -5.913500 -12.778000
31
Fragment
H -13.263900 -3.343100 -38.438900
H -13.061300 -5.239300 -37.179300
C -12.950000 -3.292600 -37.564800
C -12.822300 -4.424200 -36.800900
H -12.696100 -1.299900 -37.502400
C -12.605500 -2.086100 -37.014300
N -12.373000 -4.418300 -35.539800
C -12.123700 -2.058300 -35.730300
C -12.015800 -3.239500 -35.020100
H -11.871900 -1.252300 -35.341300
C -11.487300 -3.274300 -33.654200
H -11.447600 -4.076200 -33.185500
N -11.083700 -2.194800 -33.117400
N -10.592800 -2.297200 -31.842700
H -10.552600 -3.059300 -31.445200
O -10.218400 -0.066100 -31.742400
C -10.172400 -1.167600 -31.224100
H -10.023500 1.437900 -29.572000
H -9.750500 -3.393600 -29.415700
C -9.669600 -1.384600 -29.854400
C -9.537900 -2.533100 -29.135100
N -9.228100 -0.327000 -29.062300
C -9.141900 1.094600 -29.408800
C -9.020200 -2.161100 -27.891000
C -8.837700 -0.807000 -27.875100
O -8.813700 -4.241200 -26.990600
H -8.739100 1.576400 -28.682300
N -8.662400 -3.032000 -26.833500
H -8.606300 1.199200 -30.198600
H -8.501700 -0.307900 -27.166100
O -8.195700 -2.540900 -25.804200
62
Fragment
H -8.199100 -6.715600 -25.412800
H -7.996500 -8.611900 -24.153100
C -7.885200 -6.665200 -24.538600
C -7.757500 -7.796800 -23.774700
H -7.631300 -4.672500 -24.476200
C -7.540700 -5.458700 -23.988100
N -7.308200 -7.790800 -22.513700
C -7.058900 -5.430900 -22.704100
C -6.951000 -6.612100 -21.993900
H -6.807100 -4.624900 -22.315100
C -6.422500 -6.646800 -20.628000
H -6.382800 -7.448700 -20.159300
N -6.018900 -5.567400 -20.091200
N -5.528000 -5.669800 -18.816600
H -5.487800 -6.431900 -18.419000
O -5.153600 -3.438700 -18.716300
C -5.107600 -4.540200 -18.198000
H -4.958700 -1.934700 -16.545800
H -4.685700 -6.766200 -16.389500
C -4.604900 -4.757100 -16.828300
C -4.473100 -5.905700 -16.109000
N -4.163300 -3.699500 -16.036100
C -4.077100 -2.278000 -16.382600
C -3.955400 -5.533700 -14.864800
C -3.772900 -4.179600 -14.848900
O -3.748900 -7.613700 -13.964500
H -3.674300 -1.796200 -15.656200
N -3.597600 -6.404600 -13.807400
H -3.541500 -2.173400 -17.172400
H -3.436900 -3.680400 -14.139900
O -3.130900 -5.913500 -12.778000
H -13.263900 -3.343100 -38.438900
H -13.061300 -5.239300 -37.179300
C -12.950000 -3.292600 -37.564800
C -12.822300 -4.424200 -36.800900
H -12.696100 -1.299900 -37.502400
C -12.605500 -2.086100 -37.014300
N -12.373000 -4.418300 -35.539800
C -12.123700 -2.058300 -35.730300
C -12.015800 -3.239500 -35.020100
H -11.871900 -1.252300 -35.341300
C -11.487300 -3.274300 -33.654200
H -11.447600 -4.076200 -33.185500
N -11.083700 -2.194800 -33.117400
N -10.592800 -2.297200 -31.842700
H -10.552600 -3.059300 -31.445200
O -10.218400 -0.066100 -31.742400
C -10.172400 -1.167600 -31.224100
H -10.023500 1.437900 -29.572000
H -9.750500 -3.393600 -29.415700
C -9.669600 -1.384600 -29.854400
C -9.537900 -2.533100 -29.135100
N -9.228100 -0.327000 -29.062300
C -9.141900 1.094600 -29.408800
C -9.020200 -2.161100 -27.891000
C -8.837700 -0.807000 -27.875100
O -8.813700 -4.241200 -26.990600
H -8.739100 1.576400 -28.682300
N -8.662400 -3.032000 -26.833500
H -8.606300 1.199200 -30.198600
H -8.501700 -0.307900 -27.166100
O -8.195700 -2.540900 -25.804200
