31
Fragment
H -8.199100 -6.715600 -25.412800
H -7.996500 -8.611900 -24.153100
C -7.885200 -6.665200 -24.538600
C -7.757500 -7.796800 -23.774700
H -7.631300 -4.672500 -24.476200
C -7.540700 -5.458700 -23.988100
N -7.308200 -7.790800 -22.513700
C -7.058900 -5.430900 -22.704100
C -6.951000 -6.612100 -21.993900
H -6.807100 -4.624900 -22.315100
C -6.422500 -6.646800 -20.628000
H -6.382800 -7.448700 -20.159300
N -6.018900 -5.567400 -20.091200
N -5.528000 -5.669800 -18.816600
H -5.487800 -6.431900 -18.419000
O -5.153600 -3.438700 -18.716300
C -5.107600 -4.540200 -18.198000
H -4.958700 -1.934700 -16.545800
H -4.685700 -6.766200 -16.389500
C -4.604900 -4.757100 -16.828300
C -4.473100 -5.905700 -16.109000
N -4.163300 -3.699500 -16.036100
C -4.077100 -2.278000 -16.382600
C -3.955400 -5.533700 -14.864800
C -3.772900 -4.179600 -14.848900
O -3.748900 -7.613700 -13.964500
H -3.674300 -1.796200 -15.656200
N -3.597600 -6.404600 -13.807400
H -3.541500 -2.173400 -17.172400
H -3.436900 -3.680400 -14.139900
O -3.130900 -5.913500 -12.778000
31
Fragment
H -10.870300 -10.476800 -38.438900
H -10.667800 -12.373100 -37.179300
C -10.556400 -10.426400 -37.564800
C -10.428700 -11.557900 -36.800900
H -10.302500 -8.433700 -37.502400
C -10.212000 -9.219900 -37.014300
N -9.979400 -11.552000 -35.539800
C -9.730100 -9.192100 -35.730300
C -9.622200 -10.373200 -35.020100
H -9.478300 -8.386100 -35.341300
C -9.093800 -10.408000 -33.654200
H -9.054100 -11.209900 -33.185500
N -8.690100 -9.328600 -33.117400
N -8.199200 -9.431000 -31.842700
H -8.159000 -10.193100 -31.445200
O -7.824800 -7.199800 -31.742400
C -7.778800 -8.301400 -31.224100
H -7.629900 -5.695800 -29.572000
H -7.356900 -10.527300 -29.415700
C -7.276100 -8.518300 -29.854400
C -7.144300 -9.666900 -29.135100
N -6.834600 -7.460700 -29.062300
C -6.748300 -6.039100 -29.408800
C -6.626600 -9.294900 -27.891000
C -6.444100 -7.940700 -27.875100
O -6.420100 -11.374900 -26.990600
H -6.345600 -5.557400 -28.682300
N -6.268800 -10.165800 -26.833500
H -6.212700 -5.934500 -30.198600
H -6.108100 -7.441600 -27.166100
O -5.802100 -9.674700 -25.804200
62
Fragment
H -8.199100 -6.715600 -25.412800
H -7.996500 -8.611900 -24.153100
C -7.885200 -6.665200 -24.538600
C -7.757500 -7.796800 -23.774700
H -7.631300 -4.672500 -24.476200
C -7.540700 -5.458700 -23.988100
N -7.308200 -7.790800 -22.513700
C -7.058900 -5.430900 -22.704100
C -6.951000 -6.612100 -21.993900
H -6.807100 -4.624900 -22.315100
C -6.422500 -6.646800 -20.628000
H -6.382800 -7.448700 -20.159300
N -6.018900 -5.567400 -20.091200
N -5.528000 -5.669800 -18.816600
H -5.487800 -6.431900 -18.419000
O -5.153600 -3.438700 -18.716300
C -5.107600 -4.540200 -18.198000
H -4.958700 -1.934700 -16.545800
H -4.685700 -6.766200 -16.389500
C -4.604900 -4.757100 -16.828300
C -4.473100 -5.905700 -16.109000
N -4.163300 -3.699500 -16.036100
C -4.077100 -2.278000 -16.382600
C -3.955400 -5.533700 -14.864800
C -3.772900 -4.179600 -14.848900
O -3.748900 -7.613700 -13.964500
H -3.674300 -1.796200 -15.656200
N -3.597600 -6.404600 -13.807400
H -3.541500 -2.173400 -17.172400
H -3.436900 -3.680400 -14.139900
O -3.130900 -5.913500 -12.778000
H -10.870300 -10.476800 -38.438900
H -10.667800 -12.373100 -37.179300
C -10.556400 -10.426400 -37.564800
C -10.428700 -11.557900 -36.800900
H -10.302500 -8.433700 -37.502400
C -10.212000 -9.219900 -37.014300
N -9.979400 -11.552000 -35.539800
C -9.730100 -9.192100 -35.730300
C -9.622200 -10.373200 -35.020100
H -9.478300 -8.386100 -35.341300
C -9.093800 -10.408000 -33.654200
H -9.054100 -11.209900 -33.185500
N -8.690100 -9.328600 -33.117400
N -8.199200 -9.431000 -31.842700
H -8.159000 -10.193100 -31.445200
O -7.824800 -7.199800 -31.742400
C -7.778800 -8.301400 -31.224100
H -7.629900 -5.695800 -29.572000
H -7.356900 -10.527300 -29.415700
C -7.276100 -8.518300 -29.854400
C -7.144300 -9.666900 -29.135100
N -6.834600 -7.460700 -29.062300
C -6.748300 -6.039100 -29.408800
C -6.626600 -9.294900 -27.891000
C -6.444100 -7.940700 -27.875100
O -6.420100 -11.374900 -26.990600
H -6.345600 -5.557400 -28.682300
N -6.268800 -10.165800 -26.833500
H -6.212700 -5.934500 -30.198600
H -6.108100 -7.441600 -27.166100
O -5.802100 -9.674700 -25.804200
