31
Fragment
H -8.199100 -6.715600 -25.412800
H -7.996500 -8.611900 -24.153100
C -7.885200 -6.665200 -24.538600
C -7.757500 -7.796800 -23.774700
H -7.631300 -4.672500 -24.476200
C -7.540700 -5.458700 -23.988100
N -7.308200 -7.790800 -22.513700
C -7.058900 -5.430900 -22.704100
C -6.951000 -6.612100 -21.993900
H -6.807100 -4.624900 -22.315100
C -6.422500 -6.646800 -20.628000
H -6.382800 -7.448700 -20.159300
N -6.018900 -5.567400 -20.091200
N -5.528000 -5.669800 -18.816600
H -5.487800 -6.431900 -18.419000
O -5.153600 -3.438700 -18.716300
C -5.107600 -4.540200 -18.198000
H -4.958700 -1.934700 -16.545800
H -4.685700 -6.766200 -16.389500
C -4.604900 -4.757100 -16.828300
C -4.473100 -5.905700 -16.109000
N -4.163300 -3.699500 -16.036100
C -4.077100 -2.278000 -16.382600
C -3.955400 -5.533700 -14.864800
C -3.772900 -4.179600 -14.848900
O -3.748900 -7.613700 -13.964500
H -3.674300 -1.796200 -15.656200
N -3.597600 -6.404600 -13.807400
H -3.541500 -2.173400 -17.172400
H -3.436900 -3.680400 -14.139900
O -3.130900 -5.913500 -12.778000
31
Fragment
H -5.805500 -13.849400 -25.412800
H -5.603000 -15.745700 -24.153100
C -5.491600 -13.798900 -24.538600
C -5.363900 -14.930500 -23.774700
H -5.237800 -11.806200 -24.476200
C -5.147200 -12.592500 -23.988100
N -4.914600 -14.924600 -22.513700
C -4.665300 -12.564600 -22.704100
C -4.557400 -13.745800 -21.993900
H -4.413500 -11.758600 -22.315100
C -4.029000 -13.780600 -20.628000
H -3.989300 -14.582500 -20.159300
N -3.625300 -12.701100 -20.091200
N -3.134400 -12.803600 -18.816600
H -3.094200 -13.565600 -18.419000
O -2.760000 -10.572400 -18.716300
C -2.714000 -11.673900 -18.198000
H -2.565100 -9.068400 -16.545800
H -2.292100 -13.899900 -16.389500
C -2.211300 -11.890900 -16.828300
C -2.079600 -13.039500 -16.109000
N -1.769800 -10.833300 -16.036100
C -1.683500 -9.411700 -16.382600
C -1.561800 -12.667500 -14.864800
C -1.379300 -11.313300 -14.848900
O -1.355300 -14.747500 -13.964500
H -1.280800 -8.929900 -15.656200
N -1.204000 -13.538300 -13.807400
H -1.147900 -9.307100 -17.172400
H -1.043400 -10.814200 -14.139900
O -0.737300 -13.047200 -12.778000
62
Fragment
H -8.199100 -6.715600 -25.412800
H -7.996500 -8.611900 -24.153100
C -7.885200 -6.665200 -24.538600
C -7.757500 -7.796800 -23.774700
H -7.631300 -4.672500 -24.476200
C -7.540700 -5.458700 -23.988100
N -7.308200 -7.790800 -22.513700
C -7.058900 -5.430900 -22.704100
C -6.951000 -6.612100 -21.993900
H -6.807100 -4.624900 -22.315100
C -6.422500 -6.646800 -20.628000
H -6.382800 -7.448700 -20.159300
N -6.018900 -5.567400 -20.091200
N -5.528000 -5.669800 -18.816600
H -5.487800 -6.431900 -18.419000
O -5.153600 -3.438700 -18.716300
C -5.107600 -4.540200 -18.198000
H -4.958700 -1.934700 -16.545800
H -4.685700 -6.766200 -16.389500
C -4.604900 -4.757100 -16.828300
C -4.473100 -5.905700 -16.109000
N -4.163300 -3.699500 -16.036100
C -4.077100 -2.278000 -16.382600
C -3.955400 -5.533700 -14.864800
C -3.772900 -4.179600 -14.848900
O -3.748900 -7.613700 -13.964500
H -3.674300 -1.796200 -15.656200
N -3.597600 -6.404600 -13.807400
H -3.541500 -2.173400 -17.172400
H -3.436900 -3.680400 -14.139900
O -3.130900 -5.913500 -12.778000
H -5.805500 -13.849400 -25.412800
H -5.603000 -15.745700 -24.153100
C -5.491600 -13.798900 -24.538600
C -5.363900 -14.930500 -23.774700
H -5.237800 -11.806200 -24.476200
C -5.147200 -12.592500 -23.988100
N -4.914600 -14.924600 -22.513700
C -4.665300 -12.564600 -22.704100
C -4.557400 -13.745800 -21.993900
H -4.413500 -11.758600 -22.315100
C -4.029000 -13.780600 -20.628000
H -3.989300 -14.582500 -20.159300
N -3.625300 -12.701100 -20.091200
N -3.134400 -12.803600 -18.816600
H -3.094200 -13.565600 -18.419000
O -2.760000 -10.572400 -18.716300
C -2.714000 -11.673900 -18.198000
H -2.565100 -9.068400 -16.545800
H -2.292100 -13.899900 -16.389500
C -2.211300 -11.890900 -16.828300
C -2.079600 -13.039500 -16.109000
N -1.769800 -10.833300 -16.036100
C -1.683500 -9.411700 -16.382600
C -1.561800 -12.667500 -14.864800
C -1.379300 -11.313300 -14.848900
O -1.355300 -14.747500 -13.964500
H -1.280800 -8.929900 -15.656200
N -1.204000 -13.538300 -13.807400
H -1.147900 -9.307100 -17.172400
H -1.043400 -10.814200 -14.139900
O -0.737300 -13.047200 -12.778000
