31
Fragment
H -8.199100 -6.715600 -25.412800
H -7.996500 -8.611900 -24.153100
C -7.885200 -6.665200 -24.538600
C -7.757500 -7.796800 -23.774700
H -7.631300 -4.672500 -24.476200
C -7.540700 -5.458700 -23.988100
N -7.308200 -7.790800 -22.513700
C -7.058900 -5.430900 -22.704100
C -6.951000 -6.612100 -21.993900
H -6.807100 -4.624900 -22.315100
C -6.422500 -6.646800 -20.628000
H -6.382800 -7.448700 -20.159300
N -6.018900 -5.567400 -20.091200
N -5.528000 -5.669800 -18.816600
H -5.487800 -6.431900 -18.419000
O -5.153600 -3.438700 -18.716300
C -5.107600 -4.540200 -18.198000
H -4.958700 -1.934700 -16.545800
H -4.685700 -6.766200 -16.389500
C -4.604900 -4.757100 -16.828300
C -4.473100 -5.905700 -16.109000
N -4.163300 -3.699500 -16.036100
C -4.077100 -2.278000 -16.382600
C -3.955400 -5.533700 -14.864800
C -3.772900 -4.179600 -14.848900
O -3.748900 -7.613700 -13.964500
H -3.674300 -1.796200 -15.656200
N -3.597600 -6.404600 -13.807400
H -3.541500 -2.173400 -17.172400
H -3.436900 -3.680400 -14.139900
O -3.130900 -5.913500 -12.778000
31
Fragment
O -7.093000 -8.742600 -13.274300
H -6.787000 -10.975700 -11.912400
H -6.682400 -12.482800 -8.879900
N -6.626300 -8.251500 -12.245000
H -6.549600 -12.859900 -10.396200
O -6.475000 -7.042400 -12.087900
C -6.451000 -10.476600 -11.203400
C -6.268500 -9.122400 -11.187500
C -6.146800 -12.378200 -9.669700
N -6.060600 -10.956600 -10.016200
C -5.750800 -8.750400 -9.943400
C -5.619000 -9.899000 -9.224100
H -5.538200 -7.890000 -9.662800
H -5.265200 -12.721500 -9.506500
C -5.116300 -10.115900 -7.854400
O -5.070300 -11.217500 -7.336100
H -4.736100 -8.224200 -7.633300
N -4.695900 -8.986300 -7.235800
N -4.205000 -9.088800 -5.961200
H -3.841100 -7.207400 -5.893000
C -3.801400 -8.009300 -5.424400
H -3.416800 -10.031200 -3.737200
C -3.272900 -8.044100 -4.058400
C -3.165000 -9.225200 -3.348200
N -2.915700 -6.865300 -3.538700
C -2.683100 -9.197400 -2.064300
H -2.592600 -9.983700 -1.576200
C -2.466400 -6.859400 -2.277600
C -2.338700 -7.990900 -1.513800
H -2.227300 -6.044200 -1.899200
H -2.024800 -7.940500 -0.639600
62
Fragment
H -8.199100 -6.715600 -25.412800
H -7.996500 -8.611900 -24.153100
C -7.885200 -6.665200 -24.538600
C -7.757500 -7.796800 -23.774700
H -7.631300 -4.672500 -24.476200
C -7.540700 -5.458700 -23.988100
N -7.308200 -7.790800 -22.513700
C -7.058900 -5.430900 -22.704100
C -6.951000 -6.612100 -21.993900
H -6.807100 -4.624900 -22.315100
C -6.422500 -6.646800 -20.628000
H -6.382800 -7.448700 -20.159300
N -6.018900 -5.567400 -20.091200
N -5.528000 -5.669800 -18.816600
H -5.487800 -6.431900 -18.419000
O -5.153600 -3.438700 -18.716300
C -5.107600 -4.540200 -18.198000
H -4.958700 -1.934700 -16.545800
H -4.685700 -6.766200 -16.389500
C -4.604900 -4.757100 -16.828300
C -4.473100 -5.905700 -16.109000
N -4.163300 -3.699500 -16.036100
C -4.077100 -2.278000 -16.382600
C -3.955400 -5.533700 -14.864800
C -3.772900 -4.179600 -14.848900
O -3.748900 -7.613700 -13.964500
H -3.674300 -1.796200 -15.656200
N -3.597600 -6.404600 -13.807400
H -3.541500 -2.173400 -17.172400
H -3.436900 -3.680400 -14.139900
O -3.130900 -5.913500 -12.778000
O -7.093000 -8.742600 -13.274300
H -6.787000 -10.975700 -11.912400
H -6.682400 -12.482800 -8.879900
N -6.626300 -8.251500 -12.245000
H -6.549600 -12.859900 -10.396200
O -6.475000 -7.042400 -12.087900
C -6.451000 -10.476600 -11.203400
C -6.268500 -9.122400 -11.187500
C -6.146800 -12.378200 -9.669700
N -6.060600 -10.956600 -10.016200
C -5.750800 -8.750400 -9.943400
C -5.619000 -9.899000 -9.224100
H -5.538200 -7.890000 -9.662800
H -5.265200 -12.721500 -9.506500
C -5.116300 -10.115900 -7.854400
O -5.070300 -11.217500 -7.336100
H -4.736100 -8.224200 -7.633300
N -4.695900 -8.986300 -7.235800
N -4.205000 -9.088800 -5.961200
H -3.841100 -7.207400 -5.893000
C -3.801400 -8.009300 -5.424400
H -3.416800 -10.031200 -3.737200
C -3.272900 -8.044100 -4.058400
C -3.165000 -9.225200 -3.348200
N -2.915700 -6.865300 -3.538700
C -2.683100 -9.197400 -2.064300
H -2.592600 -9.983700 -1.576200
C -2.466400 -6.859400 -2.277600
C -2.338700 -7.990900 -1.513800
H -2.227300 -6.044200 -1.899200
H -2.024800 -7.940500 -0.639600
