31
Fragment
H -8.199100 -6.715600 -25.412800
H -7.996500 -8.611900 -24.153100
C -7.885200 -6.665200 -24.538600
C -7.757500 -7.796800 -23.774700
H -7.631300 -4.672500 -24.476200
C -7.540700 -5.458700 -23.988100
N -7.308200 -7.790800 -22.513700
C -7.058900 -5.430900 -22.704100
C -6.951000 -6.612100 -21.993900
H -6.807100 -4.624900 -22.315100
C -6.422500 -6.646800 -20.628000
H -6.382800 -7.448700 -20.159300
N -6.018900 -5.567400 -20.091200
N -5.528000 -5.669800 -18.816600
H -5.487800 -6.431900 -18.419000
O -5.153600 -3.438700 -18.716300
C -5.107600 -4.540200 -18.198000
H -4.958700 -1.934700 -16.545800
H -4.685700 -6.766200 -16.389500
C -4.604900 -4.757100 -16.828300
C -4.473100 -5.905700 -16.109000
N -4.163300 -3.699500 -16.036100
C -4.077100 -2.278000 -16.382600
C -3.955400 -5.533700 -14.864800
C -3.772900 -4.179600 -14.848900
O -3.748900 -7.613700 -13.964500
H -3.674300 -1.796200 -15.656200
N -3.597600 -6.404600 -13.807400
H -3.541500 -2.173400 -17.172400
H -3.436900 -3.680400 -14.139900
O -3.130900 -5.913500 -12.778000
31
Fragment
O -2.211600 -1.608900 -13.274300
H -1.905500 -3.841900 -11.912400
H -1.801000 -5.349000 -8.879900
N -1.744800 -1.117800 -12.245000
H -1.668100 -5.726200 -10.396200
O -1.593600 0.091400 -12.087900
C -1.569600 -3.342800 -11.203400
C -1.387100 -1.988700 -11.187500
C -1.265400 -5.244400 -9.669700
N -1.179100 -3.822800 -10.016200
C -0.869300 -1.616700 -9.943400
C -0.737600 -2.765200 -9.224100
H -0.656700 -0.756200 -9.662800
H -0.383800 -5.587700 -9.506500
C -0.234900 -2.982200 -7.854400
O -0.188800 -4.083700 -7.336100
H 0.145300 -1.090500 -7.633300
N 0.185500 -1.852600 -7.235800
N 0.676400 -1.955000 -5.961200
H 1.040400 -0.073600 -5.893000
C 1.080100 -0.875500 -5.424400
H 1.464600 -2.897500 -3.737200
C 1.608500 -0.910300 -4.058400
C 1.716400 -2.091500 -3.348200
N 1.965800 0.268400 -3.538700
C 2.198300 -2.063700 -2.064300
H 2.288900 -2.849900 -1.576200
C 2.415000 0.274400 -2.277600
C 2.542700 -0.857200 -1.513800
H 2.654100 1.089500 -1.899200
H 2.856600 -0.806700 -0.639600
62
Fragment
H -8.199100 -6.715600 -25.412800
H -7.996500 -8.611900 -24.153100
C -7.885200 -6.665200 -24.538600
C -7.757500 -7.796800 -23.774700
H -7.631300 -4.672500 -24.476200
C -7.540700 -5.458700 -23.988100
N -7.308200 -7.790800 -22.513700
C -7.058900 -5.430900 -22.704100
C -6.951000 -6.612100 -21.993900
H -6.807100 -4.624900 -22.315100
C -6.422500 -6.646800 -20.628000
H -6.382800 -7.448700 -20.159300
N -6.018900 -5.567400 -20.091200
N -5.528000 -5.669800 -18.816600
H -5.487800 -6.431900 -18.419000
O -5.153600 -3.438700 -18.716300
C -5.107600 -4.540200 -18.198000
H -4.958700 -1.934700 -16.545800
H -4.685700 -6.766200 -16.389500
C -4.604900 -4.757100 -16.828300
C -4.473100 -5.905700 -16.109000
N -4.163300 -3.699500 -16.036100
C -4.077100 -2.278000 -16.382600
C -3.955400 -5.533700 -14.864800
C -3.772900 -4.179600 -14.848900
O -3.748900 -7.613700 -13.964500
H -3.674300 -1.796200 -15.656200
N -3.597600 -6.404600 -13.807400
H -3.541500 -2.173400 -17.172400
H -3.436900 -3.680400 -14.139900
O -3.130900 -5.913500 -12.778000
O -2.211600 -1.608900 -13.274300
H -1.905500 -3.841900 -11.912400
H -1.801000 -5.349000 -8.879900
N -1.744800 -1.117800 -12.245000
H -1.668100 -5.726200 -10.396200
O -1.593600 0.091400 -12.087900
C -1.569600 -3.342800 -11.203400
C -1.387100 -1.988700 -11.187500
C -1.265400 -5.244400 -9.669700
N -1.179100 -3.822800 -10.016200
C -0.869300 -1.616700 -9.943400
C -0.737600 -2.765200 -9.224100
H -0.656700 -0.756200 -9.662800
H -0.383800 -5.587700 -9.506500
C -0.234900 -2.982200 -7.854400
O -0.188800 -4.083700 -7.336100
H 0.145300 -1.090500 -7.633300
N 0.185500 -1.852600 -7.235800
N 0.676400 -1.955000 -5.961200
H 1.040400 -0.073600 -5.893000
C 1.080100 -0.875500 -5.424400
H 1.464600 -2.897500 -3.737200
C 1.608500 -0.910300 -4.058400
C 1.716400 -2.091500 -3.348200
N 1.965800 0.268400 -3.538700
C 2.198300 -2.063700 -2.064300
H 2.288900 -2.849900 -1.576200
C 2.415000 0.274400 -2.277600
C 2.542700 -0.857200 -1.513800
H 2.654100 1.089500 -1.899200
H 2.856600 -0.806700 -0.639600
