31
Fragment
H -8.199100 -6.715600 -25.412800
H -7.996500 -8.611900 -24.153100
C -7.885200 -6.665200 -24.538600
C -7.757500 -7.796800 -23.774700
H -7.631300 -4.672500 -24.476200
C -7.540700 -5.458700 -23.988100
N -7.308200 -7.790800 -22.513700
C -7.058900 -5.430900 -22.704100
C -6.951000 -6.612100 -21.993900
H -6.807100 -4.624900 -22.315100
C -6.422500 -6.646800 -20.628000
H -6.382800 -7.448700 -20.159300
N -6.018900 -5.567400 -20.091200
N -5.528000 -5.669800 -18.816600
H -5.487800 -6.431900 -18.419000
O -5.153600 -3.438700 -18.716300
C -5.107600 -4.540200 -18.198000
H -4.958700 -1.934700 -16.545800
H -4.685700 -6.766200 -16.389500
C -4.604900 -4.757100 -16.828300
C -4.473100 -5.905700 -16.109000
N -4.163300 -3.699500 -16.036100
C -4.077100 -2.278000 -16.382600
C -3.955400 -5.533700 -14.864800
C -3.772900 -4.179600 -14.848900
O -3.748900 -7.613700 -13.964500
H -3.674300 -1.796200 -15.656200
N -3.597600 -6.404600 -13.807400
H -3.541500 -2.173400 -17.172400
H -3.436900 -3.680400 -14.139900
O -3.130900 -5.913500 -12.778000
31
Fragment
O -9.764200 -12.503800 -26.300500
H -9.458200 -14.736900 -24.938600
H -9.353700 -16.244000 -21.906100
N -9.297500 -12.012700 -25.271200
H -9.220800 -16.621100 -23.422400
O -9.146200 -10.803600 -25.114100
C -9.122300 -14.237800 -24.229600
C -8.939800 -12.883600 -24.213700
C -8.818000 -16.139400 -22.695900
N -8.731800 -14.717800 -23.042400
C -8.422000 -12.511600 -22.969600
C -8.290300 -13.660200 -22.250300
H -8.209400 -11.651200 -22.689000
H -7.936500 -16.482700 -22.532700
C -7.787500 -13.877100 -20.880600
O -7.741500 -14.978700 -20.362300
H -7.407300 -11.985400 -20.659500
N -7.367100 -12.747500 -20.262000
N -6.876200 -12.849900 -18.987300
H -6.512300 -10.968600 -18.919200
C -6.472600 -11.770500 -18.450500
H -6.088000 -13.792400 -16.763400
C -5.944200 -11.805300 -17.084600
C -5.836200 -12.986400 -16.374400
N -5.586900 -10.626500 -16.564900
C -5.354400 -12.958600 -15.090400
H -5.263800 -13.744800 -14.602300
C -5.137600 -10.620600 -15.303800
C -5.009900 -11.752100 -14.539900
H -4.898600 -9.805400 -14.925400
H -4.696000 -11.701700 -13.665800
62
Fragment
H -8.199100 -6.715600 -25.412800
H -7.996500 -8.611900 -24.153100
C -7.885200 -6.665200 -24.538600
C -7.757500 -7.796800 -23.774700
H -7.631300 -4.672500 -24.476200
C -7.540700 -5.458700 -23.988100
N -7.308200 -7.790800 -22.513700
C -7.058900 -5.430900 -22.704100
C -6.951000 -6.612100 -21.993900
H -6.807100 -4.624900 -22.315100
C -6.422500 -6.646800 -20.628000
H -6.382800 -7.448700 -20.159300
N -6.018900 -5.567400 -20.091200
N -5.528000 -5.669800 -18.816600
H -5.487800 -6.431900 -18.419000
O -5.153600 -3.438700 -18.716300
C -5.107600 -4.540200 -18.198000
H -4.958700 -1.934700 -16.545800
H -4.685700 -6.766200 -16.389500
C -4.604900 -4.757100 -16.828300
C -4.473100 -5.905700 -16.109000
N -4.163300 -3.699500 -16.036100
C -4.077100 -2.278000 -16.382600
C -3.955400 -5.533700 -14.864800
C -3.772900 -4.179600 -14.848900
O -3.748900 -7.613700 -13.964500
H -3.674300 -1.796200 -15.656200
N -3.597600 -6.404600 -13.807400
H -3.541500 -2.173400 -17.172400
H -3.436900 -3.680400 -14.139900
O -3.130900 -5.913500 -12.778000
O -9.764200 -12.503800 -26.300500
H -9.458200 -14.736900 -24.938600
H -9.353700 -16.244000 -21.906100
N -9.297500 -12.012700 -25.271200
H -9.220800 -16.621100 -23.422400
O -9.146200 -10.803600 -25.114100
C -9.122300 -14.237800 -24.229600
C -8.939800 -12.883600 -24.213700
C -8.818000 -16.139400 -22.695900
N -8.731800 -14.717800 -23.042400
C -8.422000 -12.511600 -22.969600
C -8.290300 -13.660200 -22.250300
H -8.209400 -11.651200 -22.689000
H -7.936500 -16.482700 -22.532700
C -7.787500 -13.877100 -20.880600
O -7.741500 -14.978700 -20.362300
H -7.407300 -11.985400 -20.659500
N -7.367100 -12.747500 -20.262000
N -6.876200 -12.849900 -18.987300
H -6.512300 -10.968600 -18.919200
C -6.472600 -11.770500 -18.450500
H -6.088000 -13.792400 -16.763400
C -5.944200 -11.805300 -17.084600
C -5.836200 -12.986400 -16.374400
N -5.586900 -10.626500 -16.564900
C -5.354400 -12.958600 -15.090400
H -5.263800 -13.744800 -14.602300
C -5.137600 -10.620600 -15.303800
C -5.009900 -11.752100 -14.539900
H -4.898600 -9.805400 -14.925400
H -4.696000 -11.701700 -13.665800
