22
Fragment
H -6.351300 -20.837200 -20.499600
N -6.125100 -22.698300 -19.947800
N -5.973300 -21.379100 -19.766200
N -5.590300 -23.273400 -18.923000
H -5.544000 -18.734800 -19.644100
C -5.338200 -21.174900 -18.606200
C -5.178600 -18.698900 -18.768100
N -5.087200 -22.355500 -18.063800
C -4.982400 -19.874200 -18.044600
H -4.979500 -16.679700 -18.699900
C -4.841100 -17.481200 -18.208400
C -4.439200 -19.816900 -16.760000
H -4.300900 -20.618400 -16.268500
C -4.297900 -17.423900 -16.923800
N -4.193200 -14.942600 -16.904500
C -4.101800 -18.599200 -16.200300
C -3.942100 -16.123200 -16.362200
H -3.736300 -18.563300 -15.324300
N -3.690100 -14.024700 -16.045400
N -3.307000 -15.919000 -15.202100
N -3.155200 -14.599800 -15.020500
H -2.929000 -16.460900 -14.468700
22
Fragment
H -10.049500 -20.837200 -20.499600
N -9.823300 -22.698300 -19.947800
N -9.671500 -21.379100 -19.766200
N -9.288500 -23.273400 -18.923000
H -9.242200 -18.734800 -19.644100
C -9.036400 -21.174900 -18.606200
C -8.876800 -18.698900 -18.768100
N -8.785400 -22.355500 -18.063800
C -8.680600 -19.874200 -18.044600
H -8.677700 -16.679700 -18.699900
C -8.539300 -17.481200 -18.208400
C -8.137400 -19.816900 -16.760000
H -7.999100 -20.618400 -16.268500
C -7.996100 -17.423900 -16.923800
N -7.891400 -14.942600 -16.904500
C -7.800000 -18.599200 -16.200300
C -7.640300 -16.123200 -16.362200
H -7.434500 -18.563300 -15.324300
N -7.388300 -14.024700 -16.045400
N -7.005200 -15.919000 -15.202100
N -6.853400 -14.599800 -15.020500
H -6.627200 -16.460900 -14.468700
44
Fragment
H -6.351300 -20.837200 -20.499600
N -6.125100 -22.698300 -19.947800
N -5.973300 -21.379100 -19.766200
N -5.590300 -23.273400 -18.923000
H -5.544000 -18.734800 -19.644100
C -5.338200 -21.174900 -18.606200
C -5.178600 -18.698900 -18.768100
N -5.087200 -22.355500 -18.063800
C -4.982400 -19.874200 -18.044600
H -4.979500 -16.679700 -18.699900
C -4.841100 -17.481200 -18.208400
C -4.439200 -19.816900 -16.760000
H -4.300900 -20.618400 -16.268500
C -4.297900 -17.423900 -16.923800
N -4.193200 -14.942600 -16.904500
C -4.101800 -18.599200 -16.200300
C -3.942100 -16.123200 -16.362200
H -3.736300 -18.563300 -15.324300
N -3.690100 -14.024700 -16.045400
N -3.307000 -15.919000 -15.202100
N -3.155200 -14.599800 -15.020500
H -2.929000 -16.460900 -14.468700
H -10.049500 -20.837200 -20.499600
N -9.823300 -22.698300 -19.947800
N -9.671500 -21.379100 -19.766200
N -9.288500 -23.273400 -18.923000
H -9.242200 -18.734800 -19.644100
C -9.036400 -21.174900 -18.606200
C -8.876800 -18.698900 -18.768100
N -8.785400 -22.355500 -18.063800
C -8.680600 -19.874200 -18.044600
H -8.677700 -16.679700 -18.699900
C -8.539300 -17.481200 -18.208400
C -8.137400 -19.816900 -16.760000
H -7.999100 -20.618400 -16.268500
C -7.996100 -17.423900 -16.923800
N -7.891400 -14.942600 -16.904500
C -7.800000 -18.599200 -16.200300
C -7.640300 -16.123200 -16.362200
H -7.434500 -18.563300 -15.324300
N -7.388300 -14.024700 -16.045400
N -7.005200 -15.919000 -15.202100
N -6.853400 -14.599800 -15.020500
H -6.627200 -16.460900 -14.468700
