28
Fragment
O -12.521000 -12.149900 -8.733000
H -11.714100 -12.584100 -6.227600
C -11.443000 -11.622500 -8.753700
O -11.066800 -11.056600 -9.956900
H -10.962300 -12.876400 -4.014600
C -10.892900 -12.066400 -6.364900
C -10.536700 -11.517000 -7.610600
O -10.430500 -10.038000 -12.384800
O -10.236200 -12.340400 -4.038700
H -10.070500 -9.776200 -13.029600
C -10.033600 -11.880800 -5.288600
C -9.902800 -10.365400 -10.093100
C -9.602200 -9.836500 -11.336600
C -9.407700 -10.782700 -7.747500
C -9.046900 -10.198300 -9.015200
C -8.852400 -11.144500 -5.426100
C -8.551800 -10.615600 -6.669500
C -8.421000 -9.100100 -11.474000
H -8.384100 -11.204800 -3.733000
O -8.218400 -8.640600 -12.723900
O -8.024100 -10.943000 -4.377800
C -7.917900 -9.464000 -9.152000
C -7.561700 -8.914600 -10.397700
H -7.492300 -8.104600 -12.748000
O -7.387800 -9.924400 -6.805700
C -7.011600 -9.358500 -8.008900
H -6.740500 -8.396900 -10.535000
O -5.933600 -8.831100 -8.029600
28
Fragment
O -9.965800 -12.950200 -14.320500
H -9.158900 -13.384400 -11.815100
C -8.887700 -12.422700 -14.341300
O -8.511500 -11.856900 -15.544400
H -8.407000 -13.676600 -9.602200
C -8.337700 -12.866700 -11.952400
C -7.981500 -12.317200 -13.198200
O -7.875300 -10.838300 -17.972300
O -7.680900 -13.140700 -9.626200
H -7.515200 -10.576400 -18.617100
C -7.478300 -12.681100 -10.876100
C -7.347500 -11.165700 -15.680700
C -7.046900 -10.636800 -16.924100
C -6.852500 -11.583000 -13.335000
C -6.491600 -10.998600 -14.602700
C -6.297100 -11.944800 -11.013600
C -5.996600 -11.415800 -12.257100
C -5.865700 -9.900400 -17.061600
H -5.828900 -12.005100 -9.320600
O -5.663200 -9.440800 -18.311500
O -5.468800 -11.743200 -9.965400
C -5.362600 -10.264300 -14.739500
C -5.006400 -9.714900 -15.985300
H -4.937100 -8.904900 -18.335500
O -4.832600 -10.724700 -12.393300
C -4.456400 -10.158800 -13.596400
H -4.185200 -9.197100 -16.122600
O -3.378300 -9.631400 -13.617200
56
Fragment
O -12.521000 -12.149900 -8.733000
H -11.714100 -12.584100 -6.227600
C -11.443000 -11.622500 -8.753700
O -11.066800 -11.056600 -9.956900
H -10.962300 -12.876400 -4.014600
C -10.892900 -12.066400 -6.364900
C -10.536700 -11.517000 -7.610600
O -10.430500 -10.038000 -12.384800
O -10.236200 -12.340400 -4.038700
H -10.070500 -9.776200 -13.029600
C -10.033600 -11.880800 -5.288600
C -9.902800 -10.365400 -10.093100
C -9.602200 -9.836500 -11.336600
C -9.407700 -10.782700 -7.747500
C -9.046900 -10.198300 -9.015200
C -8.852400 -11.144500 -5.426100
C -8.551800 -10.615600 -6.669500
C -8.421000 -9.100100 -11.474000
H -8.384100 -11.204800 -3.733000
O -8.218400 -8.640600 -12.723900
O -8.024100 -10.943000 -4.377800
C -7.917900 -9.464000 -9.152000
C -7.561700 -8.914600 -10.397700
H -7.492300 -8.104600 -12.748000
O -7.387800 -9.924400 -6.805700
C -7.011600 -9.358500 -8.008900
H -6.740500 -8.396900 -10.535000
O -5.933600 -8.831100 -8.029600
O -9.965800 -12.950200 -14.320500
H -9.158900 -13.384400 -11.815100
C -8.887700 -12.422700 -14.341300
O -8.511500 -11.856900 -15.544400
H -8.407000 -13.676600 -9.602200
C -8.337700 -12.866700 -11.952400
C -7.981500 -12.317200 -13.198200
O -7.875300 -10.838300 -17.972300
O -7.680900 -13.140700 -9.626200
H -7.515200 -10.576400 -18.617100
C -7.478300 -12.681100 -10.876100
C -7.347500 -11.165700 -15.680700
C -7.046900 -10.636800 -16.924100
C -6.852500 -11.583000 -13.335000
C -6.491600 -10.998600 -14.602700
C -6.297100 -11.944800 -11.013600
C -5.996600 -11.415800 -12.257100
C -5.865700 -9.900400 -17.061600
H -5.828900 -12.005100 -9.320600
O -5.663200 -9.440800 -18.311500
O -5.468800 -11.743200 -9.965400
C -5.362600 -10.264300 -14.739500
C -5.006400 -9.714900 -15.985300
H -4.937100 -8.904900 -18.335500
O -4.832600 -10.724700 -12.393300
C -4.456400 -10.158800 -13.596400
H -4.185200 -9.197100 -16.122600
O -3.378300 -9.631400 -13.617200
