28
Fragment
O -12.521000 -12.149900 -8.733000
H -11.714100 -12.584100 -6.227600
C -11.443000 -11.622500 -8.753700
O -11.066800 -11.056600 -9.956900
H -10.962300 -12.876400 -4.014600
C -10.892900 -12.066400 -6.364900
C -10.536700 -11.517000 -7.610600
O -10.430500 -10.038000 -12.384800
O -10.236200 -12.340400 -4.038700
H -10.070500 -9.776200 -13.029600
C -10.033600 -11.880800 -5.288600
C -9.902800 -10.365400 -10.093100
C -9.602200 -9.836500 -11.336600
C -9.407700 -10.782700 -7.747500
C -9.046900 -10.198300 -9.015200
C -8.852400 -11.144500 -5.426100
C -8.551800 -10.615600 -6.669500
C -8.421000 -9.100100 -11.474000
H -8.384100 -11.204800 -3.733000
O -8.218400 -8.640600 -12.723900
O -8.024100 -10.943000 -4.377800
C -7.917900 -9.464000 -9.152000
C -7.561700 -8.914600 -10.397700
H -7.492300 -8.104600 -12.748000
O -7.387800 -9.924400 -6.805700
C -7.011600 -9.358500 -8.008900
H -6.740500 -8.396900 -10.535000
O -5.933600 -8.831100 -8.029600
8
Fragment
H -15.098100 -12.452700 -10.674400
O -14.744600 -13.310800 -13.093800
N -14.101900 -12.489300 -11.089600
C -13.827600 -12.917500 -12.327800
H -13.375600 -12.190000 -10.518000
N -12.549300 -12.915600 -12.730100
H -12.228300 -13.241400 -13.707400
H -11.860400 -12.607000 -12.118800
36
Fragment
O -12.521000 -12.149900 -8.733000
H -11.714100 -12.584100 -6.227600
C -11.443000 -11.622500 -8.753700
O -11.066800 -11.056600 -9.956900
H -10.962300 -12.876400 -4.014600
C -10.892900 -12.066400 -6.364900
C -10.536700 -11.517000 -7.610600
O -10.430500 -10.038000 -12.384800
O -10.236200 -12.340400 -4.038700
H -10.070500 -9.776200 -13.029600
C -10.033600 -11.880800 -5.288600
C -9.902800 -10.365400 -10.093100
C -9.602200 -9.836500 -11.336600
C -9.407700 -10.782700 -7.747500
C -9.046900 -10.198300 -9.015200
C -8.852400 -11.144500 -5.426100
C -8.551800 -10.615600 -6.669500
C -8.421000 -9.100100 -11.474000
H -8.384100 -11.204800 -3.733000
O -8.218400 -8.640600 -12.723900
O -8.024100 -10.943000 -4.377800
C -7.917900 -9.464000 -9.152000
C -7.561700 -8.914600 -10.397700
H -7.492300 -8.104600 -12.748000
O -7.387800 -9.924400 -6.805700
C -7.011600 -9.358500 -8.008900
H -6.740500 -8.396900 -10.535000
O -5.933600 -8.831100 -8.029600
H -15.098100 -12.452700 -10.674400
O -14.744600 -13.310800 -13.093800
N -14.101900 -12.489300 -11.089600
C -13.827600 -12.917500 -12.327800
H -13.375600 -12.190000 -10.518000
N -12.549300 -12.915600 -12.730100
H -12.228300 -13.241400 -13.707400
H -11.860400 -12.607000 -12.118800
