28
Fragment
O -12.521000 -12.149900 -8.733000
H -11.714100 -12.584100 -6.227600
C -11.443000 -11.622500 -8.753700
O -11.066800 -11.056600 -9.956900
H -10.962300 -12.876400 -4.014600
C -10.892900 -12.066400 -6.364900
C -10.536700 -11.517000 -7.610600
O -10.430500 -10.038000 -12.384800
O -10.236200 -12.340400 -4.038700
H -10.070500 -9.776200 -13.029600
C -10.033600 -11.880800 -5.288600
C -9.902800 -10.365400 -10.093100
C -9.602200 -9.836500 -11.336600
C -9.407700 -10.782700 -7.747500
C -9.046900 -10.198300 -9.015200
C -8.852400 -11.144500 -5.426100
C -8.551800 -10.615600 -6.669500
C -8.421000 -9.100100 -11.474000
H -8.384100 -11.204800 -3.733000
O -8.218400 -8.640600 -12.723900
O -8.024100 -10.943000 -4.377800
C -7.917900 -9.464000 -9.152000
C -7.561700 -8.914600 -10.397700
H -7.492300 -8.104600 -12.748000
O -7.387800 -9.924400 -6.805700
C -7.011600 -9.358500 -8.008900
H -6.740500 -8.396900 -10.535000
O -5.933600 -8.831100 -8.029600
28
Fragment
O -14.679900 -16.742700 2.442100
H -13.872900 -17.177000 4.947500
C -13.601800 -16.215300 2.421400
O -13.225600 -15.649400 1.218200
H -13.121100 -17.469200 7.160400
C -13.051800 -16.659200 4.810200
C -12.695600 -16.109800 3.564500
O -12.589400 -14.630800 -1.209700
O -12.395000 -16.933300 7.136400
H -12.229300 -14.369000 -1.854500
C -12.192400 -16.473700 5.886500
C -12.061600 -14.958300 1.082000
C -11.761000 -14.429300 -0.161500
C -11.566600 -15.375500 3.427600
C -11.205700 -14.791100 2.159900
C -11.011200 -15.737300 5.749000
C -10.710600 -15.208400 4.505600
C -10.579800 -13.693000 -0.298900
H -10.542900 -15.797600 7.442000
O -10.377300 -13.233400 -1.548900
O -10.182900 -15.535800 6.797200
C -10.076700 -14.056800 2.023100
C -9.720500 -13.507400 0.777300
H -9.651100 -12.697500 -1.572900
O -9.546600 -14.517200 4.369300
C -9.170400 -13.951300 3.166200
H -8.899300 -12.989700 0.640100
O -8.092400 -13.423900 3.145500
56
Fragment
O -12.521000 -12.149900 -8.733000
H -11.714100 -12.584100 -6.227600
C -11.443000 -11.622500 -8.753700
O -11.066800 -11.056600 -9.956900
H -10.962300 -12.876400 -4.014600
C -10.892900 -12.066400 -6.364900
C -10.536700 -11.517000 -7.610600
O -10.430500 -10.038000 -12.384800
O -10.236200 -12.340400 -4.038700
H -10.070500 -9.776200 -13.029600
C -10.033600 -11.880800 -5.288600
C -9.902800 -10.365400 -10.093100
C -9.602200 -9.836500 -11.336600
C -9.407700 -10.782700 -7.747500
C -9.046900 -10.198300 -9.015200
C -8.852400 -11.144500 -5.426100
C -8.551800 -10.615600 -6.669500
C -8.421000 -9.100100 -11.474000
H -8.384100 -11.204800 -3.733000
O -8.218400 -8.640600 -12.723900
O -8.024100 -10.943000 -4.377800
C -7.917900 -9.464000 -9.152000
C -7.561700 -8.914600 -10.397700
H -7.492300 -8.104600 -12.748000
O -7.387800 -9.924400 -6.805700
C -7.011600 -9.358500 -8.008900
H -6.740500 -8.396900 -10.535000
O -5.933600 -8.831100 -8.029600
O -14.679900 -16.742700 2.442100
H -13.872900 -17.177000 4.947500
C -13.601800 -16.215300 2.421400
O -13.225600 -15.649400 1.218200
H -13.121100 -17.469200 7.160400
C -13.051800 -16.659200 4.810200
C -12.695600 -16.109800 3.564500
O -12.589400 -14.630800 -1.209700
O -12.395000 -16.933300 7.136400
H -12.229300 -14.369000 -1.854500
C -12.192400 -16.473700 5.886500
C -12.061600 -14.958300 1.082000
C -11.761000 -14.429300 -0.161500
C -11.566600 -15.375500 3.427600
C -11.205700 -14.791100 2.159900
C -11.011200 -15.737300 5.749000
C -10.710600 -15.208400 4.505600
C -10.579800 -13.693000 -0.298900
H -10.542900 -15.797600 7.442000
O -10.377300 -13.233400 -1.548900
O -10.182900 -15.535800 6.797200
C -10.076700 -14.056800 2.023100
C -9.720500 -13.507400 0.777300
H -9.651100 -12.697500 -1.572900
O -9.546600 -14.517200 4.369300
C -9.170400 -13.951300 3.166200
H -8.899300 -12.989700 0.640100
O -8.092400 -13.423900 3.145500
