28
Fragment
O -12.521000 -12.149900 -8.733000
H -11.714100 -12.584100 -6.227600
C -11.443000 -11.622500 -8.753700
O -11.066800 -11.056600 -9.956900
H -10.962300 -12.876400 -4.014600
C -10.892900 -12.066400 -6.364900
C -10.536700 -11.517000 -7.610600
O -10.430500 -10.038000 -12.384800
O -10.236200 -12.340400 -4.038700
H -10.070500 -9.776200 -13.029600
C -10.033600 -11.880800 -5.288600
C -9.902800 -10.365400 -10.093100
C -9.602200 -9.836500 -11.336600
C -9.407700 -10.782700 -7.747500
C -9.046900 -10.198300 -9.015200
C -8.852400 -11.144500 -5.426100
C -8.551800 -10.615600 -6.669500
C -8.421000 -9.100100 -11.474000
H -8.384100 -11.204800 -3.733000
O -8.218400 -8.640600 -12.723900
O -8.024100 -10.943000 -4.377800
C -7.917900 -9.464000 -9.152000
C -7.561700 -8.914600 -10.397700
H -7.492300 -8.104600 -12.748000
O -7.387800 -9.924400 -6.805700
C -7.011600 -9.358500 -8.008900
H -6.740500 -8.396900 -10.535000
O -5.933600 -8.831100 -8.029600
28
Fragment
O -12.124600 -17.543000 -3.145500
H -11.317700 -17.977200 -0.640100
C -11.046500 -17.015600 -3.166200
O -10.670300 -16.449700 -4.369300
H -10.565800 -18.269500 1.572900
C -10.496500 -17.459500 -0.777300
C -10.140300 -16.910100 -2.023100
O -10.034100 -15.431100 -6.797200
O -9.839700 -17.733500 1.548900
H -9.674000 -15.169300 -7.442000
C -9.637200 -17.274000 0.298900
C -9.506300 -15.758500 -4.505600
C -9.205700 -15.229600 -5.749000
C -9.011300 -16.175800 -2.159900
C -8.650400 -15.591400 -3.427600
C -8.456000 -16.537600 0.161500
C -8.155400 -16.008700 -1.082000
C -8.024600 -14.493300 -5.886500
H -7.987700 -16.597900 1.854500
O -7.822000 -14.033700 -7.136400
O -7.627600 -16.336100 1.209700
C -7.521400 -14.857100 -3.564500
C -7.165200 -14.307700 -4.810200
H -7.095900 -13.497700 -7.160400
O -6.991400 -15.317500 -1.218200
C -6.615200 -14.751600 -2.421400
H -6.344000 -13.790000 -4.947500
O -5.537100 -14.224200 -2.442100
56
Fragment
O -12.521000 -12.149900 -8.733000
H -11.714100 -12.584100 -6.227600
C -11.443000 -11.622500 -8.753700
O -11.066800 -11.056600 -9.956900
H -10.962300 -12.876400 -4.014600
C -10.892900 -12.066400 -6.364900
C -10.536700 -11.517000 -7.610600
O -10.430500 -10.038000 -12.384800
O -10.236200 -12.340400 -4.038700
H -10.070500 -9.776200 -13.029600
C -10.033600 -11.880800 -5.288600
C -9.902800 -10.365400 -10.093100
C -9.602200 -9.836500 -11.336600
C -9.407700 -10.782700 -7.747500
C -9.046900 -10.198300 -9.015200
C -8.852400 -11.144500 -5.426100
C -8.551800 -10.615600 -6.669500
C -8.421000 -9.100100 -11.474000
H -8.384100 -11.204800 -3.733000
O -8.218400 -8.640600 -12.723900
O -8.024100 -10.943000 -4.377800
C -7.917900 -9.464000 -9.152000
C -7.561700 -8.914600 -10.397700
H -7.492300 -8.104600 -12.748000
O -7.387800 -9.924400 -6.805700
C -7.011600 -9.358500 -8.008900
H -6.740500 -8.396900 -10.535000
O -5.933600 -8.831100 -8.029600
O -12.124600 -17.543000 -3.145500
H -11.317700 -17.977200 -0.640100
C -11.046500 -17.015600 -3.166200
O -10.670300 -16.449700 -4.369300
H -10.565800 -18.269500 1.572900
C -10.496500 -17.459500 -0.777300
C -10.140300 -16.910100 -2.023100
O -10.034100 -15.431100 -6.797200
O -9.839700 -17.733500 1.548900
H -9.674000 -15.169300 -7.442000
C -9.637200 -17.274000 0.298900
C -9.506300 -15.758500 -4.505600
C -9.205700 -15.229600 -5.749000
C -9.011300 -16.175800 -2.159900
C -8.650400 -15.591400 -3.427600
C -8.456000 -16.537600 0.161500
C -8.155400 -16.008700 -1.082000
C -8.024600 -14.493300 -5.886500
H -7.987700 -16.597900 1.854500
O -7.822000 -14.033700 -7.136400
O -7.627600 -16.336100 1.209700
C -7.521400 -14.857100 -3.564500
C -7.165200 -14.307700 -4.810200
H -7.095900 -13.497700 -7.160400
O -6.991400 -15.317500 -1.218200
C -6.615200 -14.751600 -2.421400
H -6.344000 -13.790000 -4.947500
O -5.537100 -14.224200 -2.442100
