28
Fragment
O -12.521000 -12.149900 -8.733000
H -11.714100 -12.584100 -6.227600
C -11.443000 -11.622500 -8.753700
O -11.066800 -11.056600 -9.956900
H -10.962300 -12.876400 -4.014600
C -10.892900 -12.066400 -6.364900
C -10.536700 -11.517000 -7.610600
O -10.430500 -10.038000 -12.384800
O -10.236200 -12.340400 -4.038700
H -10.070500 -9.776200 -13.029600
C -10.033600 -11.880800 -5.288600
C -9.902800 -10.365400 -10.093100
C -9.602200 -9.836500 -11.336600
C -9.407700 -10.782700 -7.747500
C -9.046900 -10.198300 -9.015200
C -8.852400 -11.144500 -5.426100
C -8.551800 -10.615600 -6.669500
C -8.421000 -9.100100 -11.474000
H -8.384100 -11.204800 -3.733000
O -8.218400 -8.640600 -12.723900
O -8.024100 -10.943000 -4.377800
C -7.917900 -9.464000 -9.152000
C -7.561700 -8.914600 -10.397700
H -7.492300 -8.104600 -12.748000
O -7.387800 -9.924400 -6.805700
C -7.011600 -9.358500 -8.008900
H -6.740500 -8.396900 -10.535000
O -5.933600 -8.831100 -8.029600
28
Fragment
O -15.076300 -11.349600 -3.145500
H -14.269400 -11.783900 -0.640100
C -13.998200 -10.822200 -3.166200
O -13.622000 -10.256300 -4.369300
H -13.517500 -12.076100 1.572900
C -13.448200 -11.266100 -0.777300
C -13.092000 -10.716700 -2.023100
O -12.985800 -9.237700 -6.797200
O -12.791400 -11.540100 1.548900
H -12.625700 -8.975900 -7.442000
C -12.588900 -11.080600 0.298900
C -12.458000 -9.565100 -4.505600
C -12.157500 -9.036200 -5.749000
C -11.963000 -9.982400 -2.159900
C -11.602100 -9.398000 -3.427600
C -11.407700 -10.344200 0.161500
C -11.107100 -9.815300 -1.082000
C -10.976300 -8.299900 -5.886500
H -10.939400 -10.404500 1.854500
O -10.773700 -7.840300 -7.136400
O -10.579300 -10.142700 1.209700
C -10.473100 -8.663700 -3.564500
C -10.116900 -8.114300 -4.810200
H -10.047600 -7.304300 -7.160400
O -9.943100 -9.124100 -1.218200
C -9.566900 -8.558200 -2.421400
H -9.295700 -7.596600 -4.947500
O -8.488800 -8.030800 -2.442100
56
Fragment
O -12.521000 -12.149900 -8.733000
H -11.714100 -12.584100 -6.227600
C -11.443000 -11.622500 -8.753700
O -11.066800 -11.056600 -9.956900
H -10.962300 -12.876400 -4.014600
C -10.892900 -12.066400 -6.364900
C -10.536700 -11.517000 -7.610600
O -10.430500 -10.038000 -12.384800
O -10.236200 -12.340400 -4.038700
H -10.070500 -9.776200 -13.029600
C -10.033600 -11.880800 -5.288600
C -9.902800 -10.365400 -10.093100
C -9.602200 -9.836500 -11.336600
C -9.407700 -10.782700 -7.747500
C -9.046900 -10.198300 -9.015200
C -8.852400 -11.144500 -5.426100
C -8.551800 -10.615600 -6.669500
C -8.421000 -9.100100 -11.474000
H -8.384100 -11.204800 -3.733000
O -8.218400 -8.640600 -12.723900
O -8.024100 -10.943000 -4.377800
C -7.917900 -9.464000 -9.152000
C -7.561700 -8.914600 -10.397700
H -7.492300 -8.104600 -12.748000
O -7.387800 -9.924400 -6.805700
C -7.011600 -9.358500 -8.008900
H -6.740500 -8.396900 -10.535000
O -5.933600 -8.831100 -8.029600
O -15.076300 -11.349600 -3.145500
H -14.269400 -11.783900 -0.640100
C -13.998200 -10.822200 -3.166200
O -13.622000 -10.256300 -4.369300
H -13.517500 -12.076100 1.572900
C -13.448200 -11.266100 -0.777300
C -13.092000 -10.716700 -2.023100
O -12.985800 -9.237700 -6.797200
O -12.791400 -11.540100 1.548900
H -12.625700 -8.975900 -7.442000
C -12.588900 -11.080600 0.298900
C -12.458000 -9.565100 -4.505600
C -12.157500 -9.036200 -5.749000
C -11.963000 -9.982400 -2.159900
C -11.602100 -9.398000 -3.427600
C -11.407700 -10.344200 0.161500
C -11.107100 -9.815300 -1.082000
C -10.976300 -8.299900 -5.886500
H -10.939400 -10.404500 1.854500
O -10.773700 -7.840300 -7.136400
O -10.579300 -10.142700 1.209700
C -10.473100 -8.663700 -3.564500
C -10.116900 -8.114300 -4.810200
H -10.047600 -7.304300 -7.160400
O -9.943100 -9.124100 -1.218200
C -9.566900 -8.558200 -2.421400
H -9.295700 -7.596600 -4.947500
O -8.488800 -8.030800 -2.442100
