13
Fragment
O -12.217400 -16.723100 -12.698900
H -11.211100 -18.099400 -14.431300
C -11.094000 -16.522300 -13.197300
N -10.642300 -17.378200 -14.174300
H -10.417900 -14.869800 -12.204700
C -10.190000 -15.481500 -12.848700
H -9.686700 -18.761300 -15.929600
C -9.407100 -17.268600 -14.754900
N -9.068300 -18.172500 -15.659100
C -8.996900 -15.427900 -13.490700
N -8.558500 -16.298600 -14.424000
H -8.428000 -14.664400 -13.307600
H -8.151100 -18.053800 -16.096000
13
Fragment
H -11.097700 -18.727100 -8.781600
H -10.707100 -20.781300 -7.595400
H -10.594600 -17.380500 -10.404700
N -10.348600 -19.028400 -9.310100
N -10.006300 -20.963800 -8.102100
C -9.965600 -18.161100 -10.283000
C -9.614700 -20.142200 -9.061400
H -9.481200 -21.739900 -7.928400
C -8.877200 -18.401900 -11.010200
H -8.602200 -17.779900 -11.642800
N -8.512500 -20.425200 -9.755400
C -8.087700 -19.569300 -10.726200
O -7.027500 -19.815800 -11.335900
26
Fragment
O -12.217400 -16.723100 -12.698900
H -11.211100 -18.099400 -14.431300
C -11.094000 -16.522300 -13.197300
N -10.642300 -17.378200 -14.174300
H -10.417900 -14.869800 -12.204700
C -10.190000 -15.481500 -12.848700
H -9.686700 -18.761300 -15.929600
C -9.407100 -17.268600 -14.754900
N -9.068300 -18.172500 -15.659100
C -8.996900 -15.427900 -13.490700
N -8.558500 -16.298600 -14.424000
H -8.428000 -14.664400 -13.307600
H -8.151100 -18.053800 -16.096000
H -11.097700 -18.727100 -8.781600
H -10.707100 -20.781300 -7.595400
H -10.594600 -17.380500 -10.404700
N -10.348600 -19.028400 -9.310100
N -10.006300 -20.963800 -8.102100
C -9.965600 -18.161100 -10.283000
C -9.614700 -20.142200 -9.061400
H -9.481200 -21.739900 -7.928400
C -8.877200 -18.401900 -11.010200
H -8.602200 -17.779900 -11.642800
N -8.512500 -20.425200 -9.755400
C -8.087700 -19.569300 -10.726200
O -7.027500 -19.815800 -11.335900
