13
Fragment
O -12.217400 -16.723100 -12.698900
H -11.211100 -18.099400 -14.431300
C -11.094000 -16.522300 -13.197300
N -10.642300 -17.378200 -14.174300
H -10.417900 -14.869800 -12.204700
C -10.190000 -15.481500 -12.848700
H -9.686700 -18.761300 -15.929600
C -9.407100 -17.268600 -14.754900
N -9.068300 -18.172500 -15.659100
C -8.996900 -15.427900 -13.490700
N -8.558500 -16.298600 -14.424000
H -8.428000 -14.664400 -13.307600
H -8.151100 -18.053800 -16.096000
13
Fragment
H -6.728700 -16.182200 -15.118000
H -6.451900 -19.571600 -17.906500
N -6.321300 -17.937400 -16.790000
C -5.883000 -18.808100 -17.723300
N -5.811600 -16.063500 -15.555000
C -5.472800 -16.967400 -16.459200
H -5.193200 -15.474700 -15.284500
C -4.689800 -18.754500 -18.365300
H -4.462000 -19.366200 -19.009400
N -4.237500 -16.857800 -17.039800
C -3.785900 -17.713700 -18.016800
H -3.668700 -16.136600 -16.782800
O -2.662500 -17.512900 -18.515100
26
Fragment
O -12.217400 -16.723100 -12.698900
H -11.211100 -18.099400 -14.431300
C -11.094000 -16.522300 -13.197300
N -10.642300 -17.378200 -14.174300
H -10.417900 -14.869800 -12.204700
C -10.190000 -15.481500 -12.848700
H -9.686700 -18.761300 -15.929600
C -9.407100 -17.268600 -14.754900
N -9.068300 -18.172500 -15.659100
C -8.996900 -15.427900 -13.490700
N -8.558500 -16.298600 -14.424000
H -8.428000 -14.664400 -13.307600
H -8.151100 -18.053800 -16.096000
H -6.728700 -16.182200 -15.118000
H -6.451900 -19.571600 -17.906500
N -6.321300 -17.937400 -16.790000
C -5.883000 -18.808100 -17.723300
N -5.811600 -16.063500 -15.555000
C -5.472800 -16.967400 -16.459200
H -5.193200 -15.474700 -15.284500
C -4.689800 -18.754500 -18.365300
H -4.462000 -19.366200 -19.009400
N -4.237500 -16.857800 -17.039800
C -3.785900 -17.713700 -18.016800
H -3.668700 -16.136600 -16.782800
O -2.662500 -17.512900 -18.515100
