13
Fragment
O -12.217400 -16.723100 -12.698900
H -11.211100 -18.099400 -14.431300
C -11.094000 -16.522300 -13.197300
N -10.642300 -17.378200 -14.174300
H -10.417900 -14.869800 -12.204700
C -10.190000 -15.481500 -12.848700
H -9.686700 -18.761300 -15.929600
C -9.407100 -17.268600 -14.754900
N -9.068300 -18.172500 -15.659100
C -8.996900 -15.427900 -13.490700
N -8.558500 -16.298600 -14.424000
H -8.428000 -14.664400 -13.307600
H -8.151100 -18.053800 -16.096000
13
Fragment
O -17.467400 -14.420200 -9.473500
C -16.407200 -14.666700 -10.083200
N -15.982400 -13.810800 -11.053900
H -15.892700 -16.456100 -9.166500
C -15.617700 -15.834200 -9.799100
H -15.013700 -12.496100 -12.881000
C -14.880200 -14.093800 -11.747900
C -14.529300 -16.074900 -10.526400
N -14.488600 -13.272200 -12.707200
N -14.146300 -15.207600 -11.499300
H -13.900300 -16.855500 -10.404700
H -13.787800 -13.454700 -13.214000
H -13.397200 -15.508900 -12.027800
26
Fragment
O -12.217400 -16.723100 -12.698900
H -11.211100 -18.099400 -14.431300
C -11.094000 -16.522300 -13.197300
N -10.642300 -17.378200 -14.174300
H -10.417900 -14.869800 -12.204700
C -10.190000 -15.481500 -12.848700
H -9.686700 -18.761300 -15.929600
C -9.407100 -17.268600 -14.754900
N -9.068300 -18.172500 -15.659100
C -8.996900 -15.427900 -13.490700
N -8.558500 -16.298600 -14.424000
H -8.428000 -14.664400 -13.307600
H -8.151100 -18.053800 -16.096000
O -17.467400 -14.420200 -9.473500
C -16.407200 -14.666700 -10.083200
N -15.982400 -13.810800 -11.053900
H -15.892700 -16.456100 -9.166500
C -15.617700 -15.834200 -9.799100
H -15.013700 -12.496100 -12.881000
C -14.880200 -14.093800 -11.747900
C -14.529300 -16.074900 -10.526400
N -14.488600 -13.272200 -12.707200
N -14.146300 -15.207600 -11.499300
H -13.900300 -16.855500 -10.404700
H -13.787800 -13.454700 -13.214000
H -13.397200 -15.508900 -12.027800
