19
Fragment
F -11.502600 -20.514200 -27.153700
H -11.467000 -18.841100 -22.835900
F -11.373700 -22.614300 -26.800300
H -10.976100 -18.564400 -21.419500
N -10.894800 -18.992000 -22.184600
C -10.685500 -21.478900 -26.801700
N -10.652200 -20.393700 -24.609800
C -10.060800 -21.223900 -25.465400
C -9.922300 -19.853600 -22.353400
N -9.797500 -20.514200 -23.538100
F -9.758400 -21.613200 -27.740400
O -9.708800 -18.926700 -19.796500
N -8.937600 -21.854400 -25.063300
C -8.881600 -20.256800 -21.479200
N -8.828700 -19.735500 -20.121300
C -8.791700 -21.403500 -23.831400
N -7.928600 -21.136000 -21.753900
O -7.922300 -20.094700 -19.385900
N -7.830300 -21.721300 -22.925700
19
Fragment
F -6.217200 -20.514200 -27.153700
H -6.181600 -18.841100 -22.835900
F -6.088300 -22.614300 -26.800300
H -5.690700 -18.564400 -21.419500
N -5.609400 -18.992000 -22.184600
C -5.400100 -21.478900 -26.801700
N -5.366800 -20.393700 -24.609800
C -4.775400 -21.223900 -25.465400
C -4.636900 -19.853600 -22.353400
N -4.512100 -20.514200 -23.538100
F -4.473000 -21.613200 -27.740400
O -4.423400 -18.926700 -19.796500
N -3.652200 -21.854400 -25.063300
C -3.596200 -20.256800 -21.479200
N -3.543300 -19.735500 -20.121300
C -3.506300 -21.403500 -23.831400
N -2.643200 -21.136000 -21.753900
O -2.636900 -20.094700 -19.385900
N -2.544900 -21.721300 -22.925700
38
Fragment
F -11.502600 -20.514200 -27.153700
H -11.467000 -18.841100 -22.835900
F -11.373700 -22.614300 -26.800300
H -10.976100 -18.564400 -21.419500
N -10.894800 -18.992000 -22.184600
C -10.685500 -21.478900 -26.801700
N -10.652200 -20.393700 -24.609800
C -10.060800 -21.223900 -25.465400
C -9.922300 -19.853600 -22.353400
N -9.797500 -20.514200 -23.538100
F -9.758400 -21.613200 -27.740400
O -9.708800 -18.926700 -19.796500
N -8.937600 -21.854400 -25.063300
C -8.881600 -20.256800 -21.479200
N -8.828700 -19.735500 -20.121300
C -8.791700 -21.403500 -23.831400
N -7.928600 -21.136000 -21.753900
O -7.922300 -20.094700 -19.385900
N -7.830300 -21.721300 -22.925700
F -6.217200 -20.514200 -27.153700
H -6.181600 -18.841100 -22.835900
F -6.088300 -22.614300 -26.800300
H -5.690700 -18.564400 -21.419500
N -5.609400 -18.992000 -22.184600
C -5.400100 -21.478900 -26.801700
N -5.366800 -20.393700 -24.609800
C -4.775400 -21.223900 -25.465400
C -4.636900 -19.853600 -22.353400
N -4.512100 -20.514200 -23.538100
F -4.473000 -21.613200 -27.740400
O -4.423400 -18.926700 -19.796500
N -3.652200 -21.854400 -25.063300
C -3.596200 -20.256800 -21.479200
N -3.543300 -19.735500 -20.121300
C -3.506300 -21.403500 -23.831400
N -2.643200 -21.136000 -21.753900
O -2.636900 -20.094700 -19.385900
N -2.544900 -21.721300 -22.925700
