19
Fragment
F -11.502600 -20.514200 -27.153700
H -11.467000 -18.841100 -22.835900
F -11.373700 -22.614300 -26.800300
H -10.976100 -18.564400 -21.419500
N -10.894800 -18.992000 -22.184600
C -10.685500 -21.478900 -26.801700
N -10.652200 -20.393700 -24.609800
C -10.060800 -21.223900 -25.465400
C -9.922300 -19.853600 -22.353400
N -9.797500 -20.514200 -23.538100
F -9.758400 -21.613200 -27.740400
O -9.708800 -18.926700 -19.796500
N -8.937600 -21.854400 -25.063300
C -8.881600 -20.256800 -21.479200
N -8.828700 -19.735500 -20.121300
C -8.791700 -21.403500 -23.831400
N -7.928600 -21.136000 -21.753900
O -7.922300 -20.094700 -19.385900
N -7.830300 -21.721300 -22.925700
19
Fragment
F -14.145300 -23.445800 -30.078300
H -14.109700 -25.118900 -34.396100
F -14.016400 -21.345700 -30.431700
H -13.618800 -25.395600 -35.812500
N -13.537500 -24.968000 -35.047400
C -13.328200 -22.481100 -30.430300
N -13.294900 -23.566300 -32.622200
C -12.703500 -22.736100 -31.766600
C -12.565000 -24.106400 -34.878600
N -12.440200 -23.445800 -33.693900
F -12.401100 -22.346800 -29.491600
O -12.351500 -25.033300 -37.435500
N -11.580300 -22.105600 -32.168700
C -11.524300 -23.703200 -35.752800
N -11.471400 -24.224500 -37.110700
C -11.434400 -22.556500 -33.400600
N -10.571300 -22.824000 -35.478100
O -10.565000 -23.865300 -37.846100
N -10.473000 -22.238700 -34.306300
38
Fragment
F -11.502600 -20.514200 -27.153700
H -11.467000 -18.841100 -22.835900
F -11.373700 -22.614300 -26.800300
H -10.976100 -18.564400 -21.419500
N -10.894800 -18.992000 -22.184600
C -10.685500 -21.478900 -26.801700
N -10.652200 -20.393700 -24.609800
C -10.060800 -21.223900 -25.465400
C -9.922300 -19.853600 -22.353400
N -9.797500 -20.514200 -23.538100
F -9.758400 -21.613200 -27.740400
O -9.708800 -18.926700 -19.796500
N -8.937600 -21.854400 -25.063300
C -8.881600 -20.256800 -21.479200
N -8.828700 -19.735500 -20.121300
C -8.791700 -21.403500 -23.831400
N -7.928600 -21.136000 -21.753900
O -7.922300 -20.094700 -19.385900
N -7.830300 -21.721300 -22.925700
F -14.145300 -23.445800 -30.078300
H -14.109700 -25.118900 -34.396100
F -14.016400 -21.345700 -30.431700
H -13.618800 -25.395600 -35.812500
N -13.537500 -24.968000 -35.047400
C -13.328200 -22.481100 -30.430300
N -13.294900 -23.566300 -32.622200
C -12.703500 -22.736100 -31.766600
C -12.565000 -24.106400 -34.878600
N -12.440200 -23.445800 -33.693900
F -12.401100 -22.346800 -29.491600
O -12.351500 -25.033300 -37.435500
N -11.580300 -22.105600 -32.168700
C -11.524300 -23.703200 -35.752800
N -11.471400 -24.224500 -37.110700
C -11.434400 -22.556500 -33.400600
N -10.571300 -22.824000 -35.478100
O -10.565000 -23.865300 -37.846100
N -10.473000 -22.238700 -34.306300
