19
Fragment
F -11.502600 -20.514200 -27.153700
H -11.467000 -18.841100 -22.835900
F -11.373700 -22.614300 -26.800300
H -10.976100 -18.564400 -21.419500
N -10.894800 -18.992000 -22.184600
C -10.685500 -21.478900 -26.801700
N -10.652200 -20.393700 -24.609800
C -10.060800 -21.223900 -25.465400
C -9.922300 -19.853600 -22.353400
N -9.797500 -20.514200 -23.538100
F -9.758400 -21.613200 -27.740400
O -9.708800 -18.926700 -19.796500
N -8.937600 -21.854400 -25.063300
C -8.881600 -20.256800 -21.479200
N -8.828700 -19.735500 -20.121300
C -8.791700 -21.403500 -23.831400
N -7.928600 -21.136000 -21.753900
O -7.922300 -20.094700 -19.385900
N -7.830300 -21.721300 -22.925700
19
Fragment
F -16.788000 -20.514200 -27.153700
H -16.752400 -18.841100 -22.835900
F -16.659100 -22.614300 -26.800300
H -16.261500 -18.564400 -21.419500
N -16.180200 -18.992000 -22.184600
C -15.970900 -21.478900 -26.801700
N -15.937600 -20.393700 -24.609800
C -15.346200 -21.223900 -25.465400
C -15.207700 -19.853600 -22.353400
N -15.082900 -20.514200 -23.538100
F -15.043800 -21.613200 -27.740400
O -14.994200 -18.926700 -19.796500
N -14.223000 -21.854400 -25.063300
C -14.167000 -20.256800 -21.479200
N -14.114100 -19.735500 -20.121300
C -14.077100 -21.403500 -23.831400
N -13.214000 -21.136000 -21.753900
O -13.207700 -20.094700 -19.385900
N -13.115700 -21.721300 -22.925700
38
Fragment
F -11.502600 -20.514200 -27.153700
H -11.467000 -18.841100 -22.835900
F -11.373700 -22.614300 -26.800300
H -10.976100 -18.564400 -21.419500
N -10.894800 -18.992000 -22.184600
C -10.685500 -21.478900 -26.801700
N -10.652200 -20.393700 -24.609800
C -10.060800 -21.223900 -25.465400
C -9.922300 -19.853600 -22.353400
N -9.797500 -20.514200 -23.538100
F -9.758400 -21.613200 -27.740400
O -9.708800 -18.926700 -19.796500
N -8.937600 -21.854400 -25.063300
C -8.881600 -20.256800 -21.479200
N -8.828700 -19.735500 -20.121300
C -8.791700 -21.403500 -23.831400
N -7.928600 -21.136000 -21.753900
O -7.922300 -20.094700 -19.385900
N -7.830300 -21.721300 -22.925700
F -16.788000 -20.514200 -27.153700
H -16.752400 -18.841100 -22.835900
F -16.659100 -22.614300 -26.800300
H -16.261500 -18.564400 -21.419500
N -16.180200 -18.992000 -22.184600
C -15.970900 -21.478900 -26.801700
N -15.937600 -20.393700 -24.609800
C -15.346200 -21.223900 -25.465400
C -15.207700 -19.853600 -22.353400
N -15.082900 -20.514200 -23.538100
F -15.043800 -21.613200 -27.740400
O -14.994200 -18.926700 -19.796500
N -14.223000 -21.854400 -25.063300
C -14.167000 -20.256800 -21.479200
N -14.114100 -19.735500 -20.121300
C -14.077100 -21.403500 -23.831400
N -13.214000 -21.136000 -21.753900
O -13.207700 -20.094700 -19.385900
N -13.115700 -21.721300 -22.925700
