19
Fragment
F -11.502600 -20.514200 -27.153700
H -11.467000 -18.841100 -22.835900
F -11.373700 -22.614300 -26.800300
H -10.976100 -18.564400 -21.419500
N -10.894800 -18.992000 -22.184600
C -10.685500 -21.478900 -26.801700
N -10.652200 -20.393700 -24.609800
C -10.060800 -21.223900 -25.465400
C -9.922300 -19.853600 -22.353400
N -9.797500 -20.514200 -23.538100
F -9.758400 -21.613200 -27.740400
O -9.708800 -18.926700 -19.796500
N -8.937600 -21.854400 -25.063300
C -8.881600 -20.256800 -21.479200
N -8.828700 -19.735500 -20.121300
C -8.791700 -21.403500 -23.831400
N -7.928600 -21.136000 -21.753900
O -7.922300 -20.094700 -19.385900
N -7.830300 -21.721300 -22.925700
19
Fragment
N -13.311300 -28.001300 -27.152300
O -13.219300 -26.374700 -30.692100
N -13.213000 -27.416000 -28.324100
C -12.349900 -27.683500 -26.246600
N -12.312900 -26.015500 -29.956700
C -12.260000 -26.536800 -28.598800
N -12.204000 -28.134400 -25.014700
O -11.432800 -25.206700 -30.281500
F -11.383200 -27.893200 -22.337600
N -11.344100 -26.794200 -26.539900
C -11.219300 -26.133600 -27.724600
C -11.080800 -27.503900 -24.612600
N -10.489400 -26.673700 -25.468200
C -10.456100 -27.758900 -23.276300
N -10.246800 -25.272000 -27.893400
H -10.165500 -24.844400 -28.658500
F -9.767900 -28.894300 -23.277700
H -9.674600 -25.121100 -27.242100
F -9.639000 -26.794200 -22.924300
38
Fragment
F -11.502600 -20.514200 -27.153700
H -11.467000 -18.841100 -22.835900
F -11.373700 -22.614300 -26.800300
H -10.976100 -18.564400 -21.419500
N -10.894800 -18.992000 -22.184600
C -10.685500 -21.478900 -26.801700
N -10.652200 -20.393700 -24.609800
C -10.060800 -21.223900 -25.465400
C -9.922300 -19.853600 -22.353400
N -9.797500 -20.514200 -23.538100
F -9.758400 -21.613200 -27.740400
O -9.708800 -18.926700 -19.796500
N -8.937600 -21.854400 -25.063300
C -8.881600 -20.256800 -21.479200
N -8.828700 -19.735500 -20.121300
C -8.791700 -21.403500 -23.831400
N -7.928600 -21.136000 -21.753900
O -7.922300 -20.094700 -19.385900
N -7.830300 -21.721300 -22.925700
N -13.311300 -28.001300 -27.152300
O -13.219300 -26.374700 -30.692100
N -13.213000 -27.416000 -28.324100
C -12.349900 -27.683500 -26.246600
N -12.312900 -26.015500 -29.956700
C -12.260000 -26.536800 -28.598800
N -12.204000 -28.134400 -25.014700
O -11.432800 -25.206700 -30.281500
F -11.383200 -27.893200 -22.337600
N -11.344100 -26.794200 -26.539900
C -11.219300 -26.133600 -27.724600
C -11.080800 -27.503900 -24.612600
N -10.489400 -26.673700 -25.468200
C -10.456100 -27.758900 -23.276300
N -10.246800 -25.272000 -27.893400
H -10.165500 -24.844400 -28.658500
F -9.767900 -28.894300 -23.277700
H -9.674600 -25.121100 -27.242100
F -9.639000 -26.794200 -22.924300
