19
Fragment
F -11.502600 -20.514200 -27.153700
H -11.467000 -18.841100 -22.835900
F -11.373700 -22.614300 -26.800300
H -10.976100 -18.564400 -21.419500
N -10.894800 -18.992000 -22.184600
C -10.685500 -21.478900 -26.801700
N -10.652200 -20.393700 -24.609800
C -10.060800 -21.223900 -25.465400
C -9.922300 -19.853600 -22.353400
N -9.797500 -20.514200 -23.538100
F -9.758400 -21.613200 -27.740400
O -9.708800 -18.926700 -19.796500
N -8.937600 -21.854400 -25.063300
C -8.881600 -20.256800 -21.479200
N -8.828700 -19.735500 -20.121300
C -8.791700 -21.403500 -23.831400
N -7.928600 -21.136000 -21.753900
O -7.922300 -20.094700 -19.385900
N -7.830300 -21.721300 -22.925700
19
Fragment
N -10.668600 -15.958700 -15.771700
O -10.576600 -17.585300 -12.231900
N -10.570300 -16.544000 -14.599900
C -9.707200 -16.276500 -16.677400
N -9.670200 -17.944500 -12.967300
C -9.617300 -17.423200 -14.325200
N -9.561300 -15.825600 -17.909300
O -8.790100 -18.753300 -12.642500
F -8.740500 -16.066800 -20.586400
N -8.701400 -17.165800 -16.384100
C -8.576600 -17.826400 -15.199400
C -8.438100 -16.456100 -18.311400
N -7.846700 -17.286300 -17.455800
C -7.813400 -16.201100 -19.647700
N -7.604100 -18.688000 -15.030600
H -7.522800 -19.115600 -14.265500
F -7.125200 -15.065700 -19.646300
H -7.031900 -18.838900 -15.681900
F -6.996300 -17.165800 -19.999700
38
Fragment
F -11.502600 -20.514200 -27.153700
H -11.467000 -18.841100 -22.835900
F -11.373700 -22.614300 -26.800300
H -10.976100 -18.564400 -21.419500
N -10.894800 -18.992000 -22.184600
C -10.685500 -21.478900 -26.801700
N -10.652200 -20.393700 -24.609800
C -10.060800 -21.223900 -25.465400
C -9.922300 -19.853600 -22.353400
N -9.797500 -20.514200 -23.538100
F -9.758400 -21.613200 -27.740400
O -9.708800 -18.926700 -19.796500
N -8.937600 -21.854400 -25.063300
C -8.881600 -20.256800 -21.479200
N -8.828700 -19.735500 -20.121300
C -8.791700 -21.403500 -23.831400
N -7.928600 -21.136000 -21.753900
O -7.922300 -20.094700 -19.385900
N -7.830300 -21.721300 -22.925700
N -10.668600 -15.958700 -15.771700
O -10.576600 -17.585300 -12.231900
N -10.570300 -16.544000 -14.599900
C -9.707200 -16.276500 -16.677400
N -9.670200 -17.944500 -12.967300
C -9.617300 -17.423200 -14.325200
N -9.561300 -15.825600 -17.909300
O -8.790100 -18.753300 -12.642500
F -8.740500 -16.066800 -20.586400
N -8.701400 -17.165800 -16.384100
C -8.576600 -17.826400 -15.199400
C -8.438100 -16.456100 -18.311400
N -7.846700 -17.286300 -17.455800
C -7.813400 -16.201100 -19.647700
N -7.604100 -18.688000 -15.030600
H -7.522800 -19.115600 -14.265500
F -7.125200 -15.065700 -19.646300
H -7.031900 -18.838900 -15.681900
F -6.996300 -17.165800 -19.999700
