22
Fragment
H -15.143500 -15.887900 -8.932000
H -14.484600 -15.435800 -10.280700
C -14.368500 -15.484100 -9.328900
H -14.252000 -14.599000 -8.976000
H -14.043100 -18.142600 -9.265600
C -13.239000 -17.727700 -9.053100
C -13.156900 -16.311400 -9.013700
H -12.178600 -19.405100 -8.789600
C -12.133400 -18.476600 -8.778400
N -12.036400 -15.665100 -8.727600
C -10.916700 -17.820500 -8.476300
C -10.916700 -16.406200 -8.476300
N -9.797000 -15.665100 -8.225000
C -9.699900 -18.476600 -8.174100
H -9.654800 -19.405100 -8.163000
C -8.676400 -16.311400 -7.938900
C -8.594400 -17.727700 -7.899500
H -7.790200 -18.142600 -7.687000
H -7.581300 -14.599000 -7.976500
C -7.464800 -15.484100 -7.623600
H -7.348700 -15.435800 -6.671800
H -6.689900 -15.887900 -8.020600
22
Fragment
H -16.514900 -17.188900 -5.541400
H -15.856000 -17.641000 -6.890200
C -15.739900 -17.592700 -5.938400
H -15.623400 -18.477800 -5.585500
H -15.414500 -14.934200 -5.875100
C -14.610300 -15.349100 -5.662600
C -14.528300 -16.765400 -5.623200
H -13.549900 -13.671700 -5.399000
C -13.504800 -14.600200 -5.387900
N -13.407700 -17.411700 -5.337100
C -12.288000 -16.670600 -5.085800
C -12.288000 -15.256300 -5.085800
N -11.168400 -17.411700 -4.834500
C -11.071300 -14.600200 -4.783600
H -11.026200 -13.671700 -4.772500
C -10.047800 -16.765400 -4.548400
C -9.965800 -15.349100 -4.509000
H -9.161600 -14.934200 -4.296500
H -8.952700 -18.477800 -4.586000
C -8.836200 -17.592700 -4.233100
H -8.720100 -17.641000 -3.281300
H -8.061200 -17.188900 -4.630100
44
Fragment
H -15.143500 -15.887900 -8.932000
H -14.484600 -15.435800 -10.280700
C -14.368500 -15.484100 -9.328900
H -14.252000 -14.599000 -8.976000
H -14.043100 -18.142600 -9.265600
C -13.239000 -17.727700 -9.053100
C -13.156900 -16.311400 -9.013700
H -12.178600 -19.405100 -8.789600
C -12.133400 -18.476600 -8.778400
N -12.036400 -15.665100 -8.727600
C -10.916700 -17.820500 -8.476300
C -10.916700 -16.406200 -8.476300
N -9.797000 -15.665100 -8.225000
C -9.699900 -18.476600 -8.174100
H -9.654800 -19.405100 -8.163000
C -8.676400 -16.311400 -7.938900
C -8.594400 -17.727700 -7.899500
H -7.790200 -18.142600 -7.687000
H -7.581300 -14.599000 -7.976500
C -7.464800 -15.484100 -7.623600
H -7.348700 -15.435800 -6.671800
H -6.689900 -15.887900 -8.020600
H -16.514900 -17.188900 -5.541400
H -15.856000 -17.641000 -6.890200
C -15.739900 -17.592700 -5.938400
H -15.623400 -18.477800 -5.585500
H -15.414500 -14.934200 -5.875100
C -14.610300 -15.349100 -5.662600
C -14.528300 -16.765400 -5.623200
H -13.549900 -13.671700 -5.399000
C -13.504800 -14.600200 -5.387900
N -13.407700 -17.411700 -5.337100
C -12.288000 -16.670600 -5.085800
C -12.288000 -15.256300 -5.085800
N -11.168400 -17.411700 -4.834500
C -11.071300 -14.600200 -4.783600
H -11.026200 -13.671700 -4.772500
C -10.047800 -16.765400 -4.548400
C -9.965800 -15.349100 -4.509000
H -9.161600 -14.934200 -4.296500
H -8.952700 -18.477800 -4.586000
C -8.836200 -17.592700 -4.233100
H -8.720100 -17.641000 -3.281300
H -8.061200 -17.188900 -4.630100
