22
Fragment
H -15.143500 -15.887900 -8.932000
H -14.484600 -15.435800 -10.280700
C -14.368500 -15.484100 -9.328900
H -14.252000 -14.599000 -8.976000
H -14.043100 -18.142600 -9.265600
C -13.239000 -17.727700 -9.053100
C -13.156900 -16.311400 -9.013700
H -12.178600 -19.405100 -8.789600
C -12.133400 -18.476600 -8.778400
N -12.036400 -15.665100 -8.727600
C -10.916700 -17.820500 -8.476300
C -10.916700 -16.406200 -8.476300
N -9.797000 -15.665100 -8.225000
C -9.699900 -18.476600 -8.174100
H -9.654800 -19.405100 -8.163000
C -8.676400 -16.311400 -7.938900
C -8.594400 -17.727700 -7.899500
H -7.790200 -18.142600 -7.687000
H -7.581300 -14.599000 -7.976500
C -7.464800 -15.484100 -7.623600
H -7.348700 -15.435800 -6.671800
H -6.689900 -15.887900 -8.020600
8
Fragment
H -11.921000 -23.311400 -6.869200
H -11.661900 -24.588200 -7.651700
N -11.644600 -23.717500 -7.590300
C -10.916700 -23.010900 -8.476300
O -10.916700 -21.757700 -8.476300
N -10.188800 -23.717500 -9.362300
H -10.171500 -24.588200 -9.300800
H -9.912300 -23.311400 -10.083400
30
Fragment
H -15.143500 -15.887900 -8.932000
H -14.484600 -15.435800 -10.280700
C -14.368500 -15.484100 -9.328900
H -14.252000 -14.599000 -8.976000
H -14.043100 -18.142600 -9.265600
C -13.239000 -17.727700 -9.053100
C -13.156900 -16.311400 -9.013700
H -12.178600 -19.405100 -8.789600
C -12.133400 -18.476600 -8.778400
N -12.036400 -15.665100 -8.727600
C -10.916700 -17.820500 -8.476300
C -10.916700 -16.406200 -8.476300
N -9.797000 -15.665100 -8.225000
C -9.699900 -18.476600 -8.174100
H -9.654800 -19.405100 -8.163000
C -8.676400 -16.311400 -7.938900
C -8.594400 -17.727700 -7.899500
H -7.790200 -18.142600 -7.687000
H -7.581300 -14.599000 -7.976500
C -7.464800 -15.484100 -7.623600
H -7.348700 -15.435800 -6.671800
H -6.689900 -15.887900 -8.020600
H -11.921000 -23.311400 -6.869200
H -11.661900 -24.588200 -7.651700
N -11.644600 -23.717500 -7.590300
C -10.916700 -23.010900 -8.476300
O -10.916700 -21.757700 -8.476300
N -10.188800 -23.717500 -9.362300
H -10.171500 -24.588200 -9.300800
H -9.912300 -23.311400 -10.083400
