22
Fragment
H -15.143500 -15.887900 -8.932000
H -14.484600 -15.435800 -10.280700
C -14.368500 -15.484100 -9.328900
H -14.252000 -14.599000 -8.976000
H -14.043100 -18.142600 -9.265600
C -13.239000 -17.727700 -9.053100
C -13.156900 -16.311400 -9.013700
H -12.178600 -19.405100 -8.789600
C -12.133400 -18.476600 -8.778400
N -12.036400 -15.665100 -8.727600
C -10.916700 -17.820500 -8.476300
C -10.916700 -16.406200 -8.476300
N -9.797000 -15.665100 -8.225000
C -9.699900 -18.476600 -8.174100
H -9.654800 -19.405100 -8.163000
C -8.676400 -16.311400 -7.938900
C -8.594400 -17.727700 -7.899500
H -7.790200 -18.142600 -7.687000
H -7.581300 -14.599000 -7.976500
C -7.464800 -15.484100 -7.623600
H -7.348700 -15.435800 -6.671800
H -6.689900 -15.887900 -8.020600
22
Fragment
H -20.944700 -11.676100 -12.322500
H -20.285800 -12.128200 -13.671200
C -20.169700 -12.079900 -12.719400
H -20.053200 -12.965000 -12.366500
H -19.844300 -9.421400 -12.656100
C -19.040100 -9.836300 -12.443600
C -18.958100 -11.252600 -12.404200
H -17.979700 -8.158900 -12.180100
C -17.934600 -9.087400 -12.168900
N -17.837600 -11.898900 -12.118100
C -16.717900 -11.157800 -11.866800
C -16.717900 -9.743500 -11.866800
N -15.598200 -11.898900 -11.615500
C -15.501100 -9.087400 -11.564600
H -15.456000 -8.158900 -11.553500
C -14.477600 -11.252600 -11.329400
C -14.395600 -9.836300 -11.290000
H -13.591400 -9.421400 -11.077500
H -13.382500 -12.965000 -11.367000
C -13.266000 -12.079900 -11.014100
H -13.149900 -12.128200 -10.062400
H -12.491100 -11.676100 -11.411100
44
Fragment
H -15.143500 -15.887900 -8.932000
H -14.484600 -15.435800 -10.280700
C -14.368500 -15.484100 -9.328900
H -14.252000 -14.599000 -8.976000
H -14.043100 -18.142600 -9.265600
C -13.239000 -17.727700 -9.053100
C -13.156900 -16.311400 -9.013700
H -12.178600 -19.405100 -8.789600
C -12.133400 -18.476600 -8.778400
N -12.036400 -15.665100 -8.727600
C -10.916700 -17.820500 -8.476300
C -10.916700 -16.406200 -8.476300
N -9.797000 -15.665100 -8.225000
C -9.699900 -18.476600 -8.174100
H -9.654800 -19.405100 -8.163000
C -8.676400 -16.311400 -7.938900
C -8.594400 -17.727700 -7.899500
H -7.790200 -18.142600 -7.687000
H -7.581300 -14.599000 -7.976500
C -7.464800 -15.484100 -7.623600
H -7.348700 -15.435800 -6.671800
H -6.689900 -15.887900 -8.020600
H -20.944700 -11.676100 -12.322500
H -20.285800 -12.128200 -13.671200
C -20.169700 -12.079900 -12.719400
H -20.053200 -12.965000 -12.366500
H -19.844300 -9.421400 -12.656100
C -19.040100 -9.836300 -12.443600
C -18.958100 -11.252600 -12.404200
H -17.979700 -8.158900 -12.180100
C -17.934600 -9.087400 -12.168900
N -17.837600 -11.898900 -12.118100
C -16.717900 -11.157800 -11.866800
C -16.717900 -9.743500 -11.866800
N -15.598200 -11.898900 -11.615500
C -15.501100 -9.087400 -11.564600
H -15.456000 -8.158900 -11.553500
C -14.477600 -11.252600 -11.329400
C -14.395600 -9.836300 -11.290000
H -13.591400 -9.421400 -11.077500
H -13.382500 -12.965000 -11.367000
C -13.266000 -12.079900 -11.014100
H -13.149900 -12.128200 -10.062400
H -12.491100 -11.676100 -11.411100
