22
Fragment
H -15.143500 -15.887900 -8.932000
H -14.484600 -15.435800 -10.280700
C -14.368500 -15.484100 -9.328900
H -14.252000 -14.599000 -8.976000
H -14.043100 -18.142600 -9.265600
C -13.239000 -17.727700 -9.053100
C -13.156900 -16.311400 -9.013700
H -12.178600 -19.405100 -8.789600
C -12.133400 -18.476600 -8.778400
N -12.036400 -15.665100 -8.727600
C -10.916700 -17.820500 -8.476300
C -10.916700 -16.406200 -8.476300
N -9.797000 -15.665100 -8.225000
C -9.699900 -18.476600 -8.174100
H -9.654800 -19.405100 -8.163000
C -8.676400 -16.311400 -7.938900
C -8.594400 -17.727700 -7.899500
H -7.790200 -18.142600 -7.687000
H -7.581300 -14.599000 -7.976500
C -7.464800 -15.484100 -7.623600
H -7.348700 -15.435800 -6.671800
H -6.689900 -15.887900 -8.020600
22
Fragment
H -22.316000 -21.400700 -8.932000
H -21.657200 -20.948600 -10.280700
C -21.541100 -20.996900 -9.328900
H -21.424600 -20.111800 -8.976000
H -21.215700 -23.655400 -9.265600
C -20.411500 -23.240500 -9.053100
C -20.329500 -21.824200 -9.013700
H -19.351100 -24.917900 -8.789600
C -19.306000 -23.989400 -8.778400
N -19.208900 -21.177900 -8.727600
C -18.089200 -23.333300 -8.476300
C -18.089200 -21.919000 -8.476300
N -16.969500 -21.177900 -8.225000
C -16.872500 -23.989400 -8.174100
H -16.827300 -24.917900 -8.163000
C -15.849000 -21.824200 -7.938900
C -15.766900 -23.240500 -7.899500
H -14.962800 -23.655400 -7.687000
H -14.753900 -20.111800 -7.976500
C -14.637400 -20.996900 -7.623600
H -14.521300 -20.948600 -6.671800
H -13.862400 -21.400700 -8.020600
44
Fragment
H -15.143500 -15.887900 -8.932000
H -14.484600 -15.435800 -10.280700
C -14.368500 -15.484100 -9.328900
H -14.252000 -14.599000 -8.976000
H -14.043100 -18.142600 -9.265600
C -13.239000 -17.727700 -9.053100
C -13.156900 -16.311400 -9.013700
H -12.178600 -19.405100 -8.789600
C -12.133400 -18.476600 -8.778400
N -12.036400 -15.665100 -8.727600
C -10.916700 -17.820500 -8.476300
C -10.916700 -16.406200 -8.476300
N -9.797000 -15.665100 -8.225000
C -9.699900 -18.476600 -8.174100
H -9.654800 -19.405100 -8.163000
C -8.676400 -16.311400 -7.938900
C -8.594400 -17.727700 -7.899500
H -7.790200 -18.142600 -7.687000
H -7.581300 -14.599000 -7.976500
C -7.464800 -15.484100 -7.623600
H -7.348700 -15.435800 -6.671800
H -6.689900 -15.887900 -8.020600
H -22.316000 -21.400700 -8.932000
H -21.657200 -20.948600 -10.280700
C -21.541100 -20.996900 -9.328900
H -21.424600 -20.111800 -8.976000
H -21.215700 -23.655400 -9.265600
C -20.411500 -23.240500 -9.053100
C -20.329500 -21.824200 -9.013700
H -19.351100 -24.917900 -8.789600
C -19.306000 -23.989400 -8.778400
N -19.208900 -21.177900 -8.727600
C -18.089200 -23.333300 -8.476300
C -18.089200 -21.919000 -8.476300
N -16.969500 -21.177900 -8.225000
C -16.872500 -23.989400 -8.174100
H -16.827300 -24.917900 -8.163000
C -15.849000 -21.824200 -7.938900
C -15.766900 -23.240500 -7.899500
H -14.962800 -23.655400 -7.687000
H -14.753900 -20.111800 -7.976500
C -14.637400 -20.996900 -7.623600
H -14.521300 -20.948600 -6.671800
H -13.862400 -21.400700 -8.020600
