18
Fragment
H -11.387300 -23.218700 -10.587100
H -11.387300 -20.998900 -10.587100
C -10.527300 -22.876700 -10.297600
C -10.527300 -21.340900 -10.297600
H -10.337400 -23.218700 -9.410200
H -10.337400 -20.998900 -9.410200
H -9.893200 -24.901900 -12.260600
H -9.893200 -19.315700 -12.260600
N -9.464400 -23.264500 -11.245000
N -9.464400 -20.953100 -11.245000
H -9.403600 -25.186300 -10.799400
H -9.403600 -19.031300 -10.799400
C -9.266800 -24.645400 -11.580300
C -9.266800 -19.572200 -11.580300
C -8.988400 -22.108800 -11.846500
H -8.372100 -24.770700 -11.904300
H -8.372100 -19.446900 -11.904300
O -8.118700 -22.108800 -12.532900
28
Fragment
H -12.220100 -15.878500 -7.263400
H -12.220100 -13.599900 -7.263400
H -11.770200 -16.647900 -8.546800
H -11.770200 -12.830500 -8.546800
C -11.471300 -16.030400 -7.861200
C -11.471300 -13.448000 -7.861200
N -11.136500 -14.739200 -8.517500
H -10.668200 -15.916900 -5.282300
H -10.668200 -13.561500 -5.282300
N -10.452100 -16.649300 -7.132800
N -10.452100 -12.829100 -7.132800
N -10.424700 -14.739200 -9.634500
O -10.312100 -18.333600 -8.585800
O -10.312100 -11.144800 -8.585800
O -10.123300 -15.811800 -10.017000
O -10.123300 -13.666600 -10.017000
C -9.936600 -16.043600 -5.906400
C -9.936600 -13.434800 -5.906400
N -9.934400 -17.803500 -7.560400
N -9.934400 -11.674900 -7.560400
H -9.297400 -16.647900 -5.497600
H -9.297400 -12.830500 -5.497600
N -9.280200 -14.739200 -6.158400
O -9.167200 -18.400400 -6.971600
O -9.167200 -11.078000 -6.971600
N -8.129500 -14.739200 -6.760800
O -7.688900 -15.786000 -7.048100
O -7.688900 -13.692400 -7.048100
46
Fragment
H -11.387300 -23.218700 -10.587100
H -11.387300 -20.998900 -10.587100
C -10.527300 -22.876700 -10.297600
C -10.527300 -21.340900 -10.297600
H -10.337400 -23.218700 -9.410200
H -10.337400 -20.998900 -9.410200
H -9.893200 -24.901900 -12.260600
H -9.893200 -19.315700 -12.260600
N -9.464400 -23.264500 -11.245000
N -9.464400 -20.953100 -11.245000
H -9.403600 -25.186300 -10.799400
H -9.403600 -19.031300 -10.799400
C -9.266800 -24.645400 -11.580300
C -9.266800 -19.572200 -11.580300
C -8.988400 -22.108800 -11.846500
H -8.372100 -24.770700 -11.904300
H -8.372100 -19.446900 -11.904300
O -8.118700 -22.108800 -12.532900
H -12.220100 -15.878500 -7.263400
H -12.220100 -13.599900 -7.263400
H -11.770200 -16.647900 -8.546800
H -11.770200 -12.830500 -8.546800
C -11.471300 -16.030400 -7.861200
C -11.471300 -13.448000 -7.861200
N -11.136500 -14.739200 -8.517500
H -10.668200 -15.916900 -5.282300
H -10.668200 -13.561500 -5.282300
N -10.452100 -16.649300 -7.132800
N -10.452100 -12.829100 -7.132800
N -10.424700 -14.739200 -9.634500
O -10.312100 -18.333600 -8.585800
O -10.312100 -11.144800 -8.585800
O -10.123300 -15.811800 -10.017000
O -10.123300 -13.666600 -10.017000
C -9.936600 -16.043600 -5.906400
C -9.936600 -13.434800 -5.906400
N -9.934400 -17.803500 -7.560400
N -9.934400 -11.674900 -7.560400
H -9.297400 -16.647900 -5.497600
H -9.297400 -12.830500 -5.497600
N -9.280200 -14.739200 -6.158400
O -9.167200 -18.400400 -6.971600
O -9.167200 -11.078000 -6.971600
N -8.129500 -14.739200 -6.760800
O -7.688900 -15.786000 -7.048100
O -7.688900 -13.692400 -7.048100
