18
Fragment
H -11.387300 -23.218700 -10.587100
H -11.387300 -20.998900 -10.587100
C -10.527300 -22.876700 -10.297600
C -10.527300 -21.340900 -10.297600
H -10.337400 -23.218700 -9.410200
H -10.337400 -20.998900 -9.410200
H -9.893200 -24.901900 -12.260600
H -9.893200 -19.315700 -12.260600
N -9.464400 -23.264500 -11.245000
N -9.464400 -20.953100 -11.245000
H -9.403600 -25.186300 -10.799400
H -9.403600 -19.031300 -10.799400
C -9.266800 -24.645400 -11.580300
C -9.266800 -19.572200 -11.580300
C -8.988400 -22.108800 -11.846500
H -8.372100 -24.770700 -11.904300
H -8.372100 -19.446900 -11.904300
O -8.118700 -22.108800 -12.532900
28
Fragment
H -12.220100 -30.617700 -7.263400
H -12.220100 -28.339100 -7.263400
H -11.770200 -31.387100 -8.546800
H -11.770200 -27.569700 -8.546800
C -11.471300 -30.769600 -7.861200
C -11.471300 -28.187200 -7.861200
N -11.136500 -29.478400 -8.517500
H -10.668200 -30.656100 -5.282300
H -10.668200 -28.300700 -5.282300
N -10.452100 -31.388500 -7.132800
N -10.452100 -27.568300 -7.132800
N -10.424700 -29.478400 -9.634500
O -10.312100 -33.072800 -8.585800
O -10.312100 -25.884000 -8.585800
O -10.123300 -30.551000 -10.017000
O -10.123300 -28.405800 -10.017000
C -9.936600 -30.782800 -5.906400
C -9.936600 -28.174000 -5.906400
N -9.934400 -32.542700 -7.560400
N -9.934400 -26.414100 -7.560400
H -9.297400 -31.387100 -5.497600
H -9.297400 -27.569700 -5.497600
N -9.280200 -29.478400 -6.158400
O -9.167200 -33.139600 -6.971600
O -9.167200 -25.817200 -6.971600
N -8.129500 -29.478400 -6.760800
O -7.688900 -30.525200 -7.048100
O -7.688900 -28.431600 -7.048100
46
Fragment
H -11.387300 -23.218700 -10.587100
H -11.387300 -20.998900 -10.587100
C -10.527300 -22.876700 -10.297600
C -10.527300 -21.340900 -10.297600
H -10.337400 -23.218700 -9.410200
H -10.337400 -20.998900 -9.410200
H -9.893200 -24.901900 -12.260600
H -9.893200 -19.315700 -12.260600
N -9.464400 -23.264500 -11.245000
N -9.464400 -20.953100 -11.245000
H -9.403600 -25.186300 -10.799400
H -9.403600 -19.031300 -10.799400
C -9.266800 -24.645400 -11.580300
C -9.266800 -19.572200 -11.580300
C -8.988400 -22.108800 -11.846500
H -8.372100 -24.770700 -11.904300
H -8.372100 -19.446900 -11.904300
O -8.118700 -22.108800 -12.532900
H -12.220100 -30.617700 -7.263400
H -12.220100 -28.339100 -7.263400
H -11.770200 -31.387100 -8.546800
H -11.770200 -27.569700 -8.546800
C -11.471300 -30.769600 -7.861200
C -11.471300 -28.187200 -7.861200
N -11.136500 -29.478400 -8.517500
H -10.668200 -30.656100 -5.282300
H -10.668200 -28.300700 -5.282300
N -10.452100 -31.388500 -7.132800
N -10.452100 -27.568300 -7.132800
N -10.424700 -29.478400 -9.634500
O -10.312100 -33.072800 -8.585800
O -10.312100 -25.884000 -8.585800
O -10.123300 -30.551000 -10.017000
O -10.123300 -28.405800 -10.017000
C -9.936600 -30.782800 -5.906400
C -9.936600 -28.174000 -5.906400
N -9.934400 -32.542700 -7.560400
N -9.934400 -26.414100 -7.560400
H -9.297400 -31.387100 -5.497600
H -9.297400 -27.569700 -5.497600
N -9.280200 -29.478400 -6.158400
O -9.167200 -33.139600 -6.971600
O -9.167200 -25.817200 -6.971600
N -8.129500 -29.478400 -6.760800
O -7.688900 -30.525200 -7.048100
O -7.688900 -28.431600 -7.048100
