18
Fragment
H -11.387300 -23.218700 -10.587100
H -11.387300 -20.998900 -10.587100
C -10.527300 -22.876700 -10.297600
C -10.527300 -21.340900 -10.297600
H -10.337400 -23.218700 -9.410200
H -10.337400 -20.998900 -9.410200
H -9.893200 -24.901900 -12.260600
H -9.893200 -19.315700 -12.260600
N -9.464400 -23.264500 -11.245000
N -9.464400 -20.953100 -11.245000
H -9.403600 -25.186300 -10.799400
H -9.403600 -19.031300 -10.799400
C -9.266800 -24.645400 -11.580300
C -9.266800 -19.572200 -11.580300
C -8.988400 -22.108800 -11.846500
H -8.372100 -24.770700 -11.904300
H -8.372100 -19.446900 -11.904300
O -8.118700 -22.108800 -12.532900
18
Fragment
H -7.771700 -30.588300 -10.587100
H -7.771700 -28.368500 -10.587100
C -6.911700 -30.246300 -10.297600
C -6.911700 -28.710500 -10.297600
H -6.721800 -30.588300 -9.410200
H -6.721800 -28.368500 -9.410200
H -6.277600 -32.271500 -12.260600
H -6.277600 -26.685300 -12.260600
N -5.848800 -30.634100 -11.245000
N -5.848800 -28.322700 -11.245000
H -5.788000 -32.555900 -10.799400
H -5.788000 -26.400900 -10.799400
C -5.651200 -32.015000 -11.580300
C -5.651200 -26.941800 -11.580300
C -5.372800 -29.478400 -11.846500
H -4.756500 -32.140300 -11.904300
H -4.756500 -26.816500 -11.904300
O -4.503100 -29.478400 -12.532900
36
Fragment
H -11.387300 -23.218700 -10.587100
H -11.387300 -20.998900 -10.587100
C -10.527300 -22.876700 -10.297600
C -10.527300 -21.340900 -10.297600
H -10.337400 -23.218700 -9.410200
H -10.337400 -20.998900 -9.410200
H -9.893200 -24.901900 -12.260600
H -9.893200 -19.315700 -12.260600
N -9.464400 -23.264500 -11.245000
N -9.464400 -20.953100 -11.245000
H -9.403600 -25.186300 -10.799400
H -9.403600 -19.031300 -10.799400
C -9.266800 -24.645400 -11.580300
C -9.266800 -19.572200 -11.580300
C -8.988400 -22.108800 -11.846500
H -8.372100 -24.770700 -11.904300
H -8.372100 -19.446900 -11.904300
O -8.118700 -22.108800 -12.532900
H -7.771700 -30.588300 -10.587100
H -7.771700 -28.368500 -10.587100
C -6.911700 -30.246300 -10.297600
C -6.911700 -28.710500 -10.297600
H -6.721800 -30.588300 -9.410200
H -6.721800 -28.368500 -9.410200
H -6.277600 -32.271500 -12.260600
H -6.277600 -26.685300 -12.260600
N -5.848800 -30.634100 -11.245000
N -5.848800 -28.322700 -11.245000
H -5.788000 -32.555900 -10.799400
H -5.788000 -26.400900 -10.799400
C -5.651200 -32.015000 -11.580300
C -5.651200 -26.941800 -11.580300
C -5.372800 -29.478400 -11.846500
H -4.756500 -32.140300 -11.904300
H -4.756500 -26.816500 -11.904300
O -4.503100 -29.478400 -12.532900
