18
Fragment
H -11.387300 -23.218700 -10.587100
H -11.387300 -20.998900 -10.587100
C -10.527300 -22.876700 -10.297600
C -10.527300 -21.340900 -10.297600
H -10.337400 -23.218700 -9.410200
H -10.337400 -20.998900 -9.410200
H -9.893200 -24.901900 -12.260600
H -9.893200 -19.315700 -12.260600
N -9.464400 -23.264500 -11.245000
N -9.464400 -20.953100 -11.245000
H -9.403600 -25.186300 -10.799400
H -9.403600 -19.031300 -10.799400
C -9.266800 -24.645400 -11.580300
C -9.266800 -19.572200 -11.580300
C -8.988400 -22.108800 -11.846500
H -8.372100 -24.770700 -11.904300
H -8.372100 -19.446900 -11.904300
O -8.118700 -22.108800 -12.532900
28
Fragment
H -7.728600 -23.248100 -14.764500
H -7.728600 -20.969500 -14.764500
H -7.278700 -24.017500 -16.047900
H -7.278700 -20.200100 -16.047900
C -6.979800 -23.400000 -15.362300
C -6.979800 -20.817600 -15.362300
N -6.645000 -22.108800 -16.018700
H -6.176700 -23.286500 -12.783400
H -6.176700 -20.931100 -12.783400
N -5.960700 -24.018900 -14.634000
N -5.960700 -20.198700 -14.634000
N -5.933200 -22.108800 -17.135600
O -5.820700 -25.703200 -16.086900
O -5.820700 -18.514400 -16.086900
O -5.631900 -23.181400 -17.518200
O -5.631900 -21.036200 -17.518200
C -5.445100 -23.413200 -13.407500
C -5.445100 -20.804400 -13.407500
N -5.442900 -25.173100 -15.061500
N -5.442900 -19.044500 -15.061500
H -4.805900 -24.017500 -12.998700
H -4.805900 -20.200100 -12.998700
N -4.788700 -22.108800 -13.659600
O -4.675700 -25.770000 -14.472700
O -4.675700 -18.447600 -14.472700
N -3.638100 -22.108800 -14.261900
O -3.197400 -23.155600 -14.549200
O -3.197400 -21.062000 -14.549200
46
Fragment
H -11.387300 -23.218700 -10.587100
H -11.387300 -20.998900 -10.587100
C -10.527300 -22.876700 -10.297600
C -10.527300 -21.340900 -10.297600
H -10.337400 -23.218700 -9.410200
H -10.337400 -20.998900 -9.410200
H -9.893200 -24.901900 -12.260600
H -9.893200 -19.315700 -12.260600
N -9.464400 -23.264500 -11.245000
N -9.464400 -20.953100 -11.245000
H -9.403600 -25.186300 -10.799400
H -9.403600 -19.031300 -10.799400
C -9.266800 -24.645400 -11.580300
C -9.266800 -19.572200 -11.580300
C -8.988400 -22.108800 -11.846500
H -8.372100 -24.770700 -11.904300
H -8.372100 -19.446900 -11.904300
O -8.118700 -22.108800 -12.532900
H -7.728600 -23.248100 -14.764500
H -7.728600 -20.969500 -14.764500
H -7.278700 -24.017500 -16.047900
H -7.278700 -20.200100 -16.047900
C -6.979800 -23.400000 -15.362300
C -6.979800 -20.817600 -15.362300
N -6.645000 -22.108800 -16.018700
H -6.176700 -23.286500 -12.783400
H -6.176700 -20.931100 -12.783400
N -5.960700 -24.018900 -14.634000
N -5.960700 -20.198700 -14.634000
N -5.933200 -22.108800 -17.135600
O -5.820700 -25.703200 -16.086900
O -5.820700 -18.514400 -16.086900
O -5.631900 -23.181400 -17.518200
O -5.631900 -21.036200 -17.518200
C -5.445100 -23.413200 -13.407500
C -5.445100 -20.804400 -13.407500
N -5.442900 -25.173100 -15.061500
N -5.442900 -19.044500 -15.061500
H -4.805900 -24.017500 -12.998700
H -4.805900 -20.200100 -12.998700
N -4.788700 -22.108800 -13.659600
O -4.675700 -25.770000 -14.472700
O -4.675700 -18.447600 -14.472700
N -3.638100 -22.108800 -14.261900
O -3.197400 -23.155600 -14.549200
O -3.197400 -21.062000 -14.549200
