17
Fragment
H -13.127200 -27.522500 -40.302700
O -12.410600 -27.311400 -40.869700
O -11.735200 -26.297100 -39.014800
C -11.528000 -26.610600 -40.170900
H -10.839300 -27.215400 -42.640200
C -10.308200 -26.263300 -40.917900
C -10.155000 -26.690000 -42.242400
H -10.061700 -25.292600 -38.550500
N -9.367000 -25.027200 -39.039100
C -9.282500 -25.497800 -40.310200
C -9.041400 -26.370000 -42.983600
H -8.960700 -26.657900 -43.885300
H -8.650300 -24.629600 -38.713500
C -8.142200 -25.201200 -41.088100
C -8.035400 -25.616500 -42.386300
H -7.433100 -24.701800 -40.700500
H -7.262300 -25.386800 -42.888600
17
Fragment
H -15.501700 -26.957200 -32.312400
H -15.330900 -27.642200 -34.500500
C -14.728600 -26.727500 -32.814700
C -14.621800 -27.142800 -34.112900
H -14.113700 -27.714400 -36.487500
H -13.803300 -25.686100 -31.315700
C -13.722600 -25.974000 -32.217400
C -13.481500 -26.846200 -34.890800
N -13.397000 -27.316800 -36.161900
H -12.702300 -27.051400 -36.650500
C -12.609000 -25.654000 -32.958600
C -12.455800 -26.080700 -34.283100
H -11.924700 -25.128600 -32.560800
C -11.236000 -25.733400 -35.030100
O -11.028800 -26.046900 -36.186200
O -10.353400 -25.032600 -34.331300
H -9.636800 -24.821500 -34.898300
34
Fragment
H -13.127200 -27.522500 -40.302700
O -12.410600 -27.311400 -40.869700
O -11.735200 -26.297100 -39.014800
C -11.528000 -26.610600 -40.170900
H -10.839300 -27.215400 -42.640200
C -10.308200 -26.263300 -40.917900
C -10.155000 -26.690000 -42.242400
H -10.061700 -25.292600 -38.550500
N -9.367000 -25.027200 -39.039100
C -9.282500 -25.497800 -40.310200
C -9.041400 -26.370000 -42.983600
H -8.960700 -26.657900 -43.885300
H -8.650300 -24.629600 -38.713500
C -8.142200 -25.201200 -41.088100
C -8.035400 -25.616500 -42.386300
H -7.433100 -24.701800 -40.700500
H -7.262300 -25.386800 -42.888600
H -15.501700 -26.957200 -32.312400
H -15.330900 -27.642200 -34.500500
C -14.728600 -26.727500 -32.814700
C -14.621800 -27.142800 -34.112900
H -14.113700 -27.714400 -36.487500
H -13.803300 -25.686100 -31.315700
C -13.722600 -25.974000 -32.217400
C -13.481500 -26.846200 -34.890800
N -13.397000 -27.316800 -36.161900
H -12.702300 -27.051400 -36.650500
C -12.609000 -25.654000 -32.958600
C -12.455800 -26.080700 -34.283100
H -11.924700 -25.128600 -32.560800
C -11.236000 -25.733400 -35.030100
O -11.028800 -26.046900 -36.186200
O -10.353400 -25.032600 -34.331300
H -9.636800 -24.821500 -34.898300
