17
Fragment
H -13.127200 -27.522500 -40.302700
O -12.410600 -27.311400 -40.869700
O -11.735200 -26.297100 -39.014800
C -11.528000 -26.610600 -40.170900
H -10.839300 -27.215400 -42.640200
C -10.308200 -26.263300 -40.917900
C -10.155000 -26.690000 -42.242400
H -10.061700 -25.292600 -38.550500
N -9.367000 -25.027200 -39.039100
C -9.282500 -25.497800 -40.310200
C -9.041400 -26.370000 -42.983600
H -8.960700 -26.657900 -43.885300
H -8.650300 -24.629600 -38.713500
C -8.142200 -25.201200 -41.088100
C -8.035400 -25.616500 -42.386300
H -7.433100 -24.701800 -40.700500
H -7.262300 -25.386800 -42.888600
17
Fragment
H -9.333200 -27.522500 -47.431800
O -8.616600 -27.311400 -46.864800
O -7.941200 -26.297100 -48.719700
C -7.734000 -26.610600 -47.563600
H -7.045300 -27.215400 -45.094300
C -6.514200 -26.263300 -46.816600
C -6.361000 -26.690000 -45.492100
H -6.267700 -25.292600 -49.184000
N -5.573000 -25.027200 -48.695400
C -5.488500 -25.497800 -47.424300
C -5.247400 -26.370000 -44.750900
H -5.166700 -26.657900 -43.849200
H -4.856300 -24.629600 -49.021000
C -4.348200 -25.201200 -46.646400
C -4.241400 -25.616500 -45.348200
H -3.639100 -24.701800 -47.034000
H -3.468300 -25.386800 -44.845900
34
Fragment
H -13.127200 -27.522500 -40.302700
O -12.410600 -27.311400 -40.869700
O -11.735200 -26.297100 -39.014800
C -11.528000 -26.610600 -40.170900
H -10.839300 -27.215400 -42.640200
C -10.308200 -26.263300 -40.917900
C -10.155000 -26.690000 -42.242400
H -10.061700 -25.292600 -38.550500
N -9.367000 -25.027200 -39.039100
C -9.282500 -25.497800 -40.310200
C -9.041400 -26.370000 -42.983600
H -8.960700 -26.657900 -43.885300
H -8.650300 -24.629600 -38.713500
C -8.142200 -25.201200 -41.088100
C -8.035400 -25.616500 -42.386300
H -7.433100 -24.701800 -40.700500
H -7.262300 -25.386800 -42.888600
H -9.333200 -27.522500 -47.431800
O -8.616600 -27.311400 -46.864800
O -7.941200 -26.297100 -48.719700
C -7.734000 -26.610600 -47.563600
H -7.045300 -27.215400 -45.094300
C -6.514200 -26.263300 -46.816600
C -6.361000 -26.690000 -45.492100
H -6.267700 -25.292600 -49.184000
N -5.573000 -25.027200 -48.695400
C -5.488500 -25.497800 -47.424300
C -5.247400 -26.370000 -44.750900
H -5.166700 -26.657900 -43.849200
H -4.856300 -24.629600 -49.021000
C -4.348200 -25.201200 -46.646400
C -4.241400 -25.616500 -45.348200
H -3.639100 -24.701800 -47.034000
H -3.468300 -25.386800 -44.845900
