17
Fragment
H -13.127200 -27.522500 -40.302700
O -12.410600 -27.311400 -40.869700
O -11.735200 -26.297100 -39.014800
C -11.528000 -26.610600 -40.170900
H -10.839300 -27.215400 -42.640200
C -10.308200 -26.263300 -40.917900
C -10.155000 -26.690000 -42.242400
H -10.061700 -25.292600 -38.550500
N -9.367000 -25.027200 -39.039100
C -9.282500 -25.497800 -40.310200
C -9.041400 -26.370000 -42.983600
H -8.960700 -26.657900 -43.885300
H -8.650300 -24.629600 -38.713500
C -8.142200 -25.201200 -41.088100
C -8.035400 -25.616500 -42.386300
H -7.433100 -24.701800 -40.700500
H -7.262300 -25.386800 -42.888600
28
Fragment
H -19.574400 -29.290500 -38.613000
H -18.984400 -30.707400 -38.159500
H -18.910400 -30.739700 -40.635400
C -18.845900 -29.737500 -38.133400
H -18.833500 -29.434300 -37.201700
H -18.340700 -29.469700 -41.425000
C -18.104100 -30.322900 -41.004800
H -17.706500 -30.917700 -41.674600
C -17.545900 -29.403700 -38.782200
H -17.247500 -27.662100 -36.810900
N -17.138900 -30.085900 -39.927200
C -16.596700 -28.518600 -38.407200
N -16.461800 -27.791500 -37.213200
H -16.139700 -26.936200 -37.372400
N -15.949000 -29.454100 -40.338300
C -15.536100 -28.563900 -39.372000
H -15.479500 -32.018800 -40.614300
C -15.098400 -30.122400 -41.266800
C -14.987300 -31.506400 -41.244700
H -14.479300 -28.419000 -42.201000
O -14.434000 -27.984700 -39.330100
C -14.384600 -29.363900 -42.182000
C -14.147000 -32.131200 -42.156700
H -14.074200 -33.078400 -42.159900
C -13.530700 -30.001500 -43.069100
C -13.413700 -31.380200 -43.062600
H -13.022300 -29.488000 -43.685800
H -12.832100 -31.811500 -43.677700
45
Fragment
H -13.127200 -27.522500 -40.302700
O -12.410600 -27.311400 -40.869700
O -11.735200 -26.297100 -39.014800
C -11.528000 -26.610600 -40.170900
H -10.839300 -27.215400 -42.640200
C -10.308200 -26.263300 -40.917900
C -10.155000 -26.690000 -42.242400
H -10.061700 -25.292600 -38.550500
N -9.367000 -25.027200 -39.039100
C -9.282500 -25.497800 -40.310200
C -9.041400 -26.370000 -42.983600
H -8.960700 -26.657900 -43.885300
H -8.650300 -24.629600 -38.713500
C -8.142200 -25.201200 -41.088100
C -8.035400 -25.616500 -42.386300
H -7.433100 -24.701800 -40.700500
H -7.262300 -25.386800 -42.888600
H -19.574400 -29.290500 -38.613000
H -18.984400 -30.707400 -38.159500
H -18.910400 -30.739700 -40.635400
C -18.845900 -29.737500 -38.133400
H -18.833500 -29.434300 -37.201700
H -18.340700 -29.469700 -41.425000
C -18.104100 -30.322900 -41.004800
H -17.706500 -30.917700 -41.674600
C -17.545900 -29.403700 -38.782200
H -17.247500 -27.662100 -36.810900
N -17.138900 -30.085900 -39.927200
C -16.596700 -28.518600 -38.407200
N -16.461800 -27.791500 -37.213200
H -16.139700 -26.936200 -37.372400
N -15.949000 -29.454100 -40.338300
C -15.536100 -28.563900 -39.372000
H -15.479500 -32.018800 -40.614300
C -15.098400 -30.122400 -41.266800
C -14.987300 -31.506400 -41.244700
H -14.479300 -28.419000 -42.201000
O -14.434000 -27.984700 -39.330100
C -14.384600 -29.363900 -42.182000
C -14.147000 -32.131200 -42.156700
H -14.074200 -33.078400 -42.159900
C -13.530700 -30.001500 -43.069100
C -13.413700 -31.380200 -43.062600
H -13.022300 -29.488000 -43.685800
H -12.832100 -31.811500 -43.677700
