15
Fragment
H -27.190000 -23.846400 -25.377100
H -26.454600 -25.161100 -25.562600
N -26.448400 -24.280000 -25.561900
N -25.553700 -22.289700 -26.283700
C -25.455900 -23.631900 -26.179200
H -25.332900 -19.967200 -26.871500
N -24.556500 -20.350100 -27.001300
C -24.532800 -21.692900 -26.920000
N -24.425300 -24.364400 -26.616700
H -23.964500 -20.002000 -27.525900
N -23.486000 -22.335100 -27.452600
C -23.464000 -23.665500 -27.242900
N -22.422400 -24.360500 -27.707600
H -22.352500 -25.214000 -27.474200
H -21.716300 -23.912300 -27.959300
15
Fragment
O -22.349400 -20.711800 -23.781700
N -21.252900 -20.983500 -24.209500
H -21.247800 -20.723900 -21.618100
O -21.023800 -21.154100 -25.393600
C -20.386400 -20.909600 -21.917000
C -20.123700 -21.078100 -23.263500
O -19.603000 -20.869800 -19.696700
C -19.334900 -21.023800 -21.025500
H -19.015200 -21.283100 -19.271400
C -18.865000 -21.335500 -23.756000
H -18.718800 -21.448400 -24.667400
C -18.047700 -21.270500 -21.499700
C -17.832300 -21.420100 -22.854200
H -17.336500 -21.334700 -20.904800
H -16.970300 -21.581400 -23.162400
30
Fragment
H -27.190000 -23.846400 -25.377100
H -26.454600 -25.161100 -25.562600
N -26.448400 -24.280000 -25.561900
N -25.553700 -22.289700 -26.283700
C -25.455900 -23.631900 -26.179200
H -25.332900 -19.967200 -26.871500
N -24.556500 -20.350100 -27.001300
C -24.532800 -21.692900 -26.920000
N -24.425300 -24.364400 -26.616700
H -23.964500 -20.002000 -27.525900
N -23.486000 -22.335100 -27.452600
C -23.464000 -23.665500 -27.242900
N -22.422400 -24.360500 -27.707600
H -22.352500 -25.214000 -27.474200
H -21.716300 -23.912300 -27.959300
O -22.349400 -20.711800 -23.781700
N -21.252900 -20.983500 -24.209500
H -21.247800 -20.723900 -21.618100
O -21.023800 -21.154100 -25.393600
C -20.386400 -20.909600 -21.917000
C -20.123700 -21.078100 -23.263500
O -19.603000 -20.869800 -19.696700
C -19.334900 -21.023800 -21.025500
H -19.015200 -21.283100 -19.271400
C -18.865000 -21.335500 -23.756000
H -18.718800 -21.448400 -24.667400
C -18.047700 -21.270500 -21.499700
C -17.832300 -21.420100 -22.854200
H -17.336500 -21.334700 -20.904800
H -16.970300 -21.581400 -23.162400
