15
Fragment
H -27.190000 -23.846400 -25.377100
H -26.454600 -25.161100 -25.562600
N -26.448400 -24.280000 -25.561900
N -25.553700 -22.289700 -26.283700
C -25.455900 -23.631900 -26.179200
H -25.332900 -19.967200 -26.871500
N -24.556500 -20.350100 -27.001300
C -24.532800 -21.692900 -26.920000
N -24.425300 -24.364400 -26.616700
H -23.964500 -20.002000 -27.525900
N -23.486000 -22.335100 -27.452600
C -23.464000 -23.665500 -27.242900
N -22.422400 -24.360500 -27.707600
H -22.352500 -25.214000 -27.474200
H -21.716300 -23.912300 -27.959300
15
Fragment
H -24.063800 -20.713600 -32.340700
H -23.711600 -21.101000 -30.093800
C -23.194000 -20.773100 -32.016300
C -22.985800 -21.006100 -30.667100
H -22.274900 -20.469500 -33.788600
C -22.136500 -20.627800 -32.883300
H -22.102700 -21.542600 -28.421100
C -21.694600 -21.098100 -30.170500
O -21.431600 -21.316000 -28.854100
C -20.861500 -20.725100 -32.359200
C -20.615400 -20.950200 -31.024600
O -19.924400 -20.338900 -34.445600
H -19.744400 -21.001600 -30.703700
N -19.711000 -20.576800 -33.264200
O -18.587900 -20.674100 -32.791100
30
Fragment
H -27.190000 -23.846400 -25.377100
H -26.454600 -25.161100 -25.562600
N -26.448400 -24.280000 -25.561900
N -25.553700 -22.289700 -26.283700
C -25.455900 -23.631900 -26.179200
H -25.332900 -19.967200 -26.871500
N -24.556500 -20.350100 -27.001300
C -24.532800 -21.692900 -26.920000
N -24.425300 -24.364400 -26.616700
H -23.964500 -20.002000 -27.525900
N -23.486000 -22.335100 -27.452600
C -23.464000 -23.665500 -27.242900
N -22.422400 -24.360500 -27.707600
H -22.352500 -25.214000 -27.474200
H -21.716300 -23.912300 -27.959300
H -24.063800 -20.713600 -32.340700
H -23.711600 -21.101000 -30.093800
C -23.194000 -20.773100 -32.016300
C -22.985800 -21.006100 -30.667100
H -22.274900 -20.469500 -33.788600
C -22.136500 -20.627800 -32.883300
H -22.102700 -21.542600 -28.421100
C -21.694600 -21.098100 -30.170500
O -21.431600 -21.316000 -28.854100
C -20.861500 -20.725100 -32.359200
C -20.615400 -20.950200 -31.024600
O -19.924400 -20.338900 -34.445600
H -19.744400 -21.001600 -30.703700
N -19.711000 -20.576800 -33.264200
O -18.587900 -20.674100 -32.791100
