30
Fragment
O -20.263800 -4.788000 -20.464500
O -19.894500 -3.676300 -22.292600
N -19.534900 -4.288000 -21.303700
H -18.118100 -9.510900 -15.272000
C -18.095800 -4.429700 -21.075500
N -17.711900 -9.972900 -17.110900
N -17.634500 -9.361200 -15.954800
N -17.614700 -5.306400 -20.189900
N -17.239200 -3.664000 -21.729300
N -16.653000 -9.586400 -17.802400
N -16.573900 -8.582700 -15.809600
C -16.316700 -5.079400 -20.292800
N -16.070400 -4.103300 -21.194900
C -16.004400 -8.761800 -16.984700
N -15.605900 -6.586200 -18.865600
N -15.231100 -5.684400 -19.657900
C -14.832600 -3.508800 -21.538900
N -14.766500 -8.167300 -17.328700
C -14.520200 -7.191200 -18.230800
N -14.263100 -3.687900 -22.714000
N -14.183900 -2.684200 -20.721200
N -13.597700 -8.606600 -16.794200
N -13.222300 -6.964200 -18.333600
N -13.202400 -2.909400 -22.568800
N -13.125100 -2.297700 -21.412700
C -12.741100 -7.840900 -17.448100
H -12.718800 -2.759700 -23.251500
N -11.302000 -7.982600 -17.219900
O -10.942400 -8.594300 -16.231000
O -10.573200 -7.482600 -18.059100
30
Fragment
O -25.403300 -10.550300 -26.885100
O -25.034000 -11.662000 -28.713200
N -24.674400 -11.050300 -27.724300
H -23.257600 -5.827300 -21.692600
C -23.235300 -10.908600 -27.496100
N -22.851400 -5.365300 -23.531500
N -22.774000 -5.977000 -22.375400
N -22.754200 -10.031800 -26.610500
N -22.378700 -11.674200 -28.149900
N -21.792500 -5.751800 -24.223000
N -21.713400 -6.755600 -22.230200
C -21.456200 -10.258800 -26.713400
N -21.209900 -11.235000 -27.615500
C -21.143900 -6.576400 -23.405200
N -20.745300 -8.752000 -25.286200
N -20.370600 -9.653900 -26.078500
C -19.972100 -11.829500 -27.959500
N -19.906000 -7.170900 -23.749300
C -19.659700 -8.147100 -24.651400
N -19.402600 -11.650300 -29.134600
N -19.323400 -12.654100 -27.141800
N -18.737200 -6.731700 -23.214800
N -18.361800 -8.374100 -24.754200
N -18.341900 -12.428900 -28.989400
N -18.264500 -13.040600 -27.833300
C -17.880600 -7.497300 -23.868700
H -17.858300 -12.578600 -29.672100
N -16.441500 -7.355600 -23.640500
O -16.081900 -6.743900 -22.651600
O -15.712700 -7.855600 -24.479700
60
Fragment
O -20.263800 -4.788000 -20.464500
O -19.894500 -3.676300 -22.292600
N -19.534900 -4.288000 -21.303700
H -18.118100 -9.510900 -15.272000
C -18.095800 -4.429700 -21.075500
N -17.711900 -9.972900 -17.110900
N -17.634500 -9.361200 -15.954800
N -17.614700 -5.306400 -20.189900
N -17.239200 -3.664000 -21.729300
N -16.653000 -9.586400 -17.802400
N -16.573900 -8.582700 -15.809600
C -16.316700 -5.079400 -20.292800
N -16.070400 -4.103300 -21.194900
C -16.004400 -8.761800 -16.984700
N -15.605900 -6.586200 -18.865600
N -15.231100 -5.684400 -19.657900
C -14.832600 -3.508800 -21.538900
N -14.766500 -8.167300 -17.328700
C -14.520200 -7.191200 -18.230800
N -14.263100 -3.687900 -22.714000
N -14.183900 -2.684200 -20.721200
N -13.597700 -8.606600 -16.794200
N -13.222300 -6.964200 -18.333600
N -13.202400 -2.909400 -22.568800
N -13.125100 -2.297700 -21.412700
C -12.741100 -7.840900 -17.448100
H -12.718800 -2.759700 -23.251500
N -11.302000 -7.982600 -17.219900
O -10.942400 -8.594300 -16.231000
O -10.573200 -7.482600 -18.059100
O -25.403300 -10.550300 -26.885100
O -25.034000 -11.662000 -28.713200
N -24.674400 -11.050300 -27.724300
H -23.257600 -5.827300 -21.692600
C -23.235300 -10.908600 -27.496100
N -22.851400 -5.365300 -23.531500
N -22.774000 -5.977000 -22.375400
N -22.754200 -10.031800 -26.610500
N -22.378700 -11.674200 -28.149900
N -21.792500 -5.751800 -24.223000
N -21.713400 -6.755600 -22.230200
C -21.456200 -10.258800 -26.713400
N -21.209900 -11.235000 -27.615500
C -21.143900 -6.576400 -23.405200
N -20.745300 -8.752000 -25.286200
N -20.370600 -9.653900 -26.078500
C -19.972100 -11.829500 -27.959500
N -19.906000 -7.170900 -23.749300
C -19.659700 -8.147100 -24.651400
N -19.402600 -11.650300 -29.134600
N -19.323400 -12.654100 -27.141800
N -18.737200 -6.731700 -23.214800
N -18.361800 -8.374100 -24.754200
N -18.341900 -12.428900 -28.989400
N -18.264500 -13.040600 -27.833300
C -17.880600 -7.497300 -23.868700
H -17.858300 -12.578600 -29.672100
N -16.441500 -7.355600 -23.640500
O -16.081900 -6.743900 -22.651600
O -15.712700 -7.855600 -24.479700
