19
Fragment
H -16.240100 -12.714700 -17.395100
N -15.382800 -12.717300 -17.593200
O -15.275900 -10.504300 -17.188000
H -15.153400 -9.510600 -20.743700
H -14.933400 -13.511000 -17.816800
C -14.744100 -11.572600 -17.501100
H -14.541700 -10.886500 -20.603100
N -14.536700 -9.995300 -20.390900
C -13.753200 -9.544300 -19.429800
O -13.745700 -8.396400 -19.008000
C -13.286200 -11.626100 -17.851300
H -12.878300 -12.491800 -17.893500
H -12.847100 -9.752600 -16.947700
C -12.782200 -10.586500 -18.862300
C -12.428700 -10.473700 -17.395100
C -11.764800 -11.053400 -19.780000
C -11.076700 -10.743200 -16.968200
N -10.949700 -11.403800 -20.498300
N -10.010600 -10.969900 -16.632000
19
Fragment
N -13.374600 -7.784900 -15.320700
N -12.435500 -8.218700 -11.454400
C -12.308500 -7.558100 -14.984500
C -11.620300 -7.868300 -12.172700
C -10.956500 -7.288700 -14.557700
C -10.603000 -7.401400 -13.090400
H -10.538100 -6.567600 -15.005000
H -10.506900 -9.306700 -14.059200
C -10.099000 -8.441000 -14.101400
O -9.639500 -5.211400 -12.944700
C -9.631900 -6.359300 -12.522900
N -8.848500 -6.810300 -11.561800
H -8.843500 -7.701500 -11.349600
C -8.641100 -8.387500 -14.451600
H -8.451800 -10.325900 -14.135900
H -8.231800 -6.325500 -11.209000
O -8.109300 -7.319200 -14.764700
N -8.002400 -9.532200 -14.359500
H -7.145000 -9.529700 -14.557700
38
Fragment
H -16.240100 -12.714700 -17.395100
N -15.382800 -12.717300 -17.593200
O -15.275900 -10.504300 -17.188000
H -15.153400 -9.510600 -20.743700
H -14.933400 -13.511000 -17.816800
C -14.744100 -11.572600 -17.501100
H -14.541700 -10.886500 -20.603100
N -14.536700 -9.995300 -20.390900
C -13.753200 -9.544300 -19.429800
O -13.745700 -8.396400 -19.008000
C -13.286200 -11.626100 -17.851300
H -12.878300 -12.491800 -17.893500
H -12.847100 -9.752600 -16.947700
C -12.782200 -10.586500 -18.862300
C -12.428700 -10.473700 -17.395100
C -11.764800 -11.053400 -19.780000
C -11.076700 -10.743200 -16.968200
N -10.949700 -11.403800 -20.498300
N -10.010600 -10.969900 -16.632000
N -13.374600 -7.784900 -15.320700
N -12.435500 -8.218700 -11.454400
C -12.308500 -7.558100 -14.984500
C -11.620300 -7.868300 -12.172700
C -10.956500 -7.288700 -14.557700
C -10.603000 -7.401400 -13.090400
H -10.538100 -6.567600 -15.005000
H -10.506900 -9.306700 -14.059200
C -10.099000 -8.441000 -14.101400
O -9.639500 -5.211400 -12.944700
C -9.631900 -6.359300 -12.522900
N -8.848500 -6.810300 -11.561800
H -8.843500 -7.701500 -11.349600
C -8.641100 -8.387500 -14.451600
H -8.451800 -10.325900 -14.135900
H -8.231800 -6.325500 -11.209000
O -8.109300 -7.319200 -14.764700
N -8.002400 -9.532200 -14.359500
H -7.145000 -9.529700 -14.557700
