19
Fragment
H -16.240100 -12.714700 -17.395100
N -15.382800 -12.717300 -17.593200
O -15.275900 -10.504300 -17.188000
H -15.153400 -9.510600 -20.743700
H -14.933400 -13.511000 -17.816800
C -14.744100 -11.572600 -17.501100
H -14.541700 -10.886500 -20.603100
N -14.536700 -9.995300 -20.390900
C -13.753200 -9.544300 -19.429800
O -13.745700 -8.396400 -19.008000
C -13.286200 -11.626100 -17.851300
H -12.878300 -12.491800 -17.893500
H -12.847100 -9.752600 -16.947700
C -12.782200 -10.586500 -18.862300
C -12.428700 -10.473700 -17.395100
C -11.764800 -11.053400 -19.780000
C -11.076700 -10.743200 -16.968200
N -10.949700 -11.403800 -20.498300
N -10.010600 -10.969900 -16.632000
19
Fragment
H -16.240100 -6.344600 -17.395100
N -15.382800 -6.347200 -17.593200
O -15.275900 -4.134200 -17.188000
H -15.153400 -3.140500 -20.743700
H -14.933400 -7.140900 -17.816800
C -14.744100 -5.202500 -17.501100
H -14.541700 -4.516400 -20.603100
N -14.536700 -3.625200 -20.390900
C -13.753200 -3.174200 -19.429800
O -13.745700 -2.026300 -19.008000
C -13.286200 -5.256000 -17.851300
H -12.878300 -6.121700 -17.893500
H -12.847100 -3.382500 -16.947700
C -12.782200 -4.216400 -18.862300
C -12.428700 -4.103600 -17.395100
C -11.764800 -4.683300 -19.780000
C -11.076700 -4.373100 -16.968200
N -10.949700 -5.033700 -20.498300
N -10.010600 -4.599800 -16.632000
38
Fragment
H -16.240100 -12.714700 -17.395100
N -15.382800 -12.717300 -17.593200
O -15.275900 -10.504300 -17.188000
H -15.153400 -9.510600 -20.743700
H -14.933400 -13.511000 -17.816800
C -14.744100 -11.572600 -17.501100
H -14.541700 -10.886500 -20.603100
N -14.536700 -9.995300 -20.390900
C -13.753200 -9.544300 -19.429800
O -13.745700 -8.396400 -19.008000
C -13.286200 -11.626100 -17.851300
H -12.878300 -12.491800 -17.893500
H -12.847100 -9.752600 -16.947700
C -12.782200 -10.586500 -18.862300
C -12.428700 -10.473700 -17.395100
C -11.764800 -11.053400 -19.780000
C -11.076700 -10.743200 -16.968200
N -10.949700 -11.403800 -20.498300
N -10.010600 -10.969900 -16.632000
H -16.240100 -6.344600 -17.395100
N -15.382800 -6.347200 -17.593200
O -15.275900 -4.134200 -17.188000
H -15.153400 -3.140500 -20.743700
H -14.933400 -7.140900 -17.816800
C -14.744100 -5.202500 -17.501100
H -14.541700 -4.516400 -20.603100
N -14.536700 -3.625200 -20.390900
C -13.753200 -3.174200 -19.429800
O -13.745700 -2.026300 -19.008000
C -13.286200 -5.256000 -17.851300
H -12.878300 -6.121700 -17.893500
H -12.847100 -3.382500 -16.947700
C -12.782200 -4.216400 -18.862300
C -12.428700 -4.103600 -17.395100
C -11.764800 -4.683300 -19.780000
C -11.076700 -4.373100 -16.968200
N -10.949700 -5.033700 -20.498300
N -10.010600 -4.599800 -16.632000
