19
Fragment
H -16.240100 -12.714700 -17.395100
N -15.382800 -12.717300 -17.593200
O -15.275900 -10.504300 -17.188000
H -15.153400 -9.510600 -20.743700
H -14.933400 -13.511000 -17.816800
C -14.744100 -11.572600 -17.501100
H -14.541700 -10.886500 -20.603100
N -14.536700 -9.995300 -20.390900
C -13.753200 -9.544300 -19.429800
O -13.745700 -8.396400 -19.008000
C -13.286200 -11.626100 -17.851300
H -12.878300 -12.491800 -17.893500
H -12.847100 -9.752600 -16.947700
C -12.782200 -10.586500 -18.862300
C -12.428700 -10.473700 -17.395100
C -11.764800 -11.053400 -19.780000
C -11.076700 -10.743200 -16.968200
N -10.949700 -11.403800 -20.498300
N -10.010600 -10.969900 -16.632000
19
Fragment
H -16.240100 -19.084800 -17.395100
N -15.382800 -19.087400 -17.593200
O -15.275900 -16.874400 -17.188000
H -15.153400 -15.880700 -20.743700
H -14.933400 -19.881100 -17.816800
C -14.744100 -17.942700 -17.501100
H -14.541700 -17.256600 -20.603100
N -14.536700 -16.365400 -20.390900
C -13.753200 -15.914400 -19.429800
O -13.745700 -14.766500 -19.008000
C -13.286200 -17.996200 -17.851300
H -12.878300 -18.861900 -17.893500
H -12.847100 -16.122700 -16.947700
C -12.782200 -16.956600 -18.862300
C -12.428700 -16.843800 -17.395100
C -11.764800 -17.423500 -19.780000
C -11.076700 -17.113300 -16.968200
N -10.949700 -17.773900 -20.498300
N -10.010600 -17.340000 -16.632000
38
Fragment
H -16.240100 -12.714700 -17.395100
N -15.382800 -12.717300 -17.593200
O -15.275900 -10.504300 -17.188000
H -15.153400 -9.510600 -20.743700
H -14.933400 -13.511000 -17.816800
C -14.744100 -11.572600 -17.501100
H -14.541700 -10.886500 -20.603100
N -14.536700 -9.995300 -20.390900
C -13.753200 -9.544300 -19.429800
O -13.745700 -8.396400 -19.008000
C -13.286200 -11.626100 -17.851300
H -12.878300 -12.491800 -17.893500
H -12.847100 -9.752600 -16.947700
C -12.782200 -10.586500 -18.862300
C -12.428700 -10.473700 -17.395100
C -11.764800 -11.053400 -19.780000
C -11.076700 -10.743200 -16.968200
N -10.949700 -11.403800 -20.498300
N -10.010600 -10.969900 -16.632000
H -16.240100 -19.084800 -17.395100
N -15.382800 -19.087400 -17.593200
O -15.275900 -16.874400 -17.188000
H -15.153400 -15.880700 -20.743700
H -14.933400 -19.881100 -17.816800
C -14.744100 -17.942700 -17.501100
H -14.541700 -17.256600 -20.603100
N -14.536700 -16.365400 -20.390900
C -13.753200 -15.914400 -19.429800
O -13.745700 -14.766500 -19.008000
C -13.286200 -17.996200 -17.851300
H -12.878300 -18.861900 -17.893500
H -12.847100 -16.122700 -16.947700
C -12.782200 -16.956600 -18.862300
C -12.428700 -16.843800 -17.395100
C -11.764800 -17.423500 -19.780000
C -11.076700 -17.113300 -16.968200
N -10.949700 -17.773900 -20.498300
N -10.010600 -17.340000 -16.632000
