33
Fragment
H -28.716500 -9.004400 -32.539200
N -28.413700 -8.692200 -34.472100
H -28.165700 -7.548600 -28.930700
C -28.092900 -8.933300 -33.225600
H -27.895500 -8.916800 -29.654100
H -27.729000 -5.085700 -30.020100
O -27.703600 -8.187000 -37.436500
C -27.472000 -8.125000 -29.287800
H -27.349100 -7.187900 -31.108700
C -27.206700 -8.683000 -35.152600
O -27.159500 -5.170900 -29.436300
C -26.918400 -8.478800 -36.526800
H -26.865400 -8.227600 -27.527800
N -26.741400 -9.069400 -33.038600
C -26.712500 -7.391100 -30.391700
H -26.653200 -9.966300 -31.249900
O -26.577400 -8.498800 -28.246100
C -26.167000 -8.909000 -34.276900
C -26.147700 -6.074100 -29.885900
C -26.053000 -9.436700 -31.798000
H -25.642100 -5.653000 -30.598700
C -25.582000 -8.233700 -30.993800
N -25.562000 -8.609400 -36.781000
H -25.536300 -6.253100 -29.154600
H -25.307400 -8.538600 -37.599600
H -25.286300 -9.989800 -32.015400
H -25.045500 -7.666400 -31.569500
H -25.010600 -8.545200 -30.274500
N -24.841300 -8.990200 -34.551300
C -24.594600 -8.841100 -35.844900
N -23.332900 -8.883300 -36.310700
H -23.181400 -8.785800 -37.151500
H -22.678000 -9.008200 -35.767300
12
Fragment
H -37.173800 -8.811900 -33.862100
O -36.416000 -8.891200 -33.559000
O -35.857800 -8.873200 -35.726100
C -35.551200 -8.895100 -34.541400
C -34.139900 -8.924100 -34.058700
H -33.982000 -8.942700 -33.142400
H -33.268900 -8.942700 -35.792700
C -33.111000 -8.924100 -34.876500
C -31.699700 -8.895100 -34.393700
O -31.393100 -8.873200 -33.209000
O -30.834900 -8.891200 -35.376100
H -30.077100 -8.811900 -35.073000
45
Fragment
H -28.716500 -9.004400 -32.539200
N -28.413700 -8.692200 -34.472100
H -28.165700 -7.548600 -28.930700
C -28.092900 -8.933300 -33.225600
H -27.895500 -8.916800 -29.654100
H -27.729000 -5.085700 -30.020100
O -27.703600 -8.187000 -37.436500
C -27.472000 -8.125000 -29.287800
H -27.349100 -7.187900 -31.108700
C -27.206700 -8.683000 -35.152600
O -27.159500 -5.170900 -29.436300
C -26.918400 -8.478800 -36.526800
H -26.865400 -8.227600 -27.527800
N -26.741400 -9.069400 -33.038600
C -26.712500 -7.391100 -30.391700
H -26.653200 -9.966300 -31.249900
O -26.577400 -8.498800 -28.246100
C -26.167000 -8.909000 -34.276900
C -26.147700 -6.074100 -29.885900
C -26.053000 -9.436700 -31.798000
H -25.642100 -5.653000 -30.598700
C -25.582000 -8.233700 -30.993800
N -25.562000 -8.609400 -36.781000
H -25.536300 -6.253100 -29.154600
H -25.307400 -8.538600 -37.599600
H -25.286300 -9.989800 -32.015400
H -25.045500 -7.666400 -31.569500
H -25.010600 -8.545200 -30.274500
N -24.841300 -8.990200 -34.551300
C -24.594600 -8.841100 -35.844900
N -23.332900 -8.883300 -36.310700
H -23.181400 -8.785800 -37.151500
H -22.678000 -9.008200 -35.767300
H -37.173800 -8.811900 -33.862100
O -36.416000 -8.891200 -33.559000
O -35.857800 -8.873200 -35.726100
C -35.551200 -8.895100 -34.541400
C -34.139900 -8.924100 -34.058700
H -33.982000 -8.942700 -33.142400
H -33.268900 -8.942700 -35.792700
C -33.111000 -8.924100 -34.876500
C -31.699700 -8.895100 -34.393700
O -31.393100 -8.873200 -33.209000
O -30.834900 -8.891200 -35.376100
H -30.077100 -8.811900 -35.073000
