33
Fragment
H -28.716500 -9.004400 -32.539200
N -28.413700 -8.692200 -34.472100
H -28.165700 -7.548600 -28.930700
C -28.092900 -8.933300 -33.225600
H -27.895500 -8.916800 -29.654100
H -27.729000 -5.085700 -30.020100
O -27.703600 -8.187000 -37.436500
C -27.472000 -8.125000 -29.287800
H -27.349100 -7.187900 -31.108700
C -27.206700 -8.683000 -35.152600
O -27.159500 -5.170900 -29.436300
C -26.918400 -8.478800 -36.526800
H -26.865400 -8.227600 -27.527800
N -26.741400 -9.069400 -33.038600
C -26.712500 -7.391100 -30.391700
H -26.653200 -9.966300 -31.249900
O -26.577400 -8.498800 -28.246100
C -26.167000 -8.909000 -34.276900
C -26.147700 -6.074100 -29.885900
C -26.053000 -9.436700 -31.798000
H -25.642100 -5.653000 -30.598700
C -25.582000 -8.233700 -30.993800
N -25.562000 -8.609400 -36.781000
H -25.536300 -6.253100 -29.154600
H -25.307400 -8.538600 -37.599600
H -25.286300 -9.989800 -32.015400
H -25.045500 -7.666400 -31.569500
H -25.010600 -8.545200 -30.274500
N -24.841300 -8.990200 -34.551300
C -24.594600 -8.841100 -35.844900
N -23.332900 -8.883300 -36.310700
H -23.181400 -8.785800 -37.151500
H -22.678000 -9.008200 -35.767300
33
Fragment
H -28.716500 -15.592400 -32.539200
N -28.413700 -15.280200 -34.472100
H -28.165700 -14.136600 -28.930700
C -28.092900 -15.521300 -33.225600
H -27.895500 -15.504800 -29.654100
H -27.729000 -11.673700 -30.020100
O -27.703600 -14.775000 -37.436500
C -27.472000 -14.713000 -29.287800
H -27.349100 -13.775900 -31.108700
C -27.206700 -15.271000 -35.152600
O -27.159500 -11.758900 -29.436300
C -26.918400 -15.066800 -36.526800
H -26.865400 -14.815600 -27.527800
N -26.741400 -15.657400 -33.038600
C -26.712500 -13.979100 -30.391700
H -26.653200 -16.554300 -31.249900
O -26.577400 -15.086800 -28.246100
C -26.167000 -15.497000 -34.276900
C -26.147700 -12.662100 -29.885900
C -26.053000 -16.024700 -31.798000
H -25.642100 -12.241000 -30.598700
C -25.582000 -14.821700 -30.993800
N -25.562000 -15.197400 -36.781000
H -25.536300 -12.841100 -29.154600
H -25.307400 -15.126600 -37.599600
H -25.286300 -16.577800 -32.015400
H -25.045500 -14.254400 -31.569500
H -25.010600 -15.133200 -30.274500
N -24.841300 -15.578200 -34.551300
C -24.594600 -15.429100 -35.844900
N -23.332900 -15.471300 -36.310700
H -23.181400 -15.373800 -37.151500
H -22.678000 -15.596200 -35.767300
66
Fragment
H -28.716500 -9.004400 -32.539200
N -28.413700 -8.692200 -34.472100
H -28.165700 -7.548600 -28.930700
C -28.092900 -8.933300 -33.225600
H -27.895500 -8.916800 -29.654100
H -27.729000 -5.085700 -30.020100
O -27.703600 -8.187000 -37.436500
C -27.472000 -8.125000 -29.287800
H -27.349100 -7.187900 -31.108700
C -27.206700 -8.683000 -35.152600
O -27.159500 -5.170900 -29.436300
C -26.918400 -8.478800 -36.526800
H -26.865400 -8.227600 -27.527800
N -26.741400 -9.069400 -33.038600
C -26.712500 -7.391100 -30.391700
H -26.653200 -9.966300 -31.249900
O -26.577400 -8.498800 -28.246100
C -26.167000 -8.909000 -34.276900
C -26.147700 -6.074100 -29.885900
C -26.053000 -9.436700 -31.798000
H -25.642100 -5.653000 -30.598700
C -25.582000 -8.233700 -30.993800
N -25.562000 -8.609400 -36.781000
H -25.536300 -6.253100 -29.154600
H -25.307400 -8.538600 -37.599600
H -25.286300 -9.989800 -32.015400
H -25.045500 -7.666400 -31.569500
H -25.010600 -8.545200 -30.274500
N -24.841300 -8.990200 -34.551300
C -24.594600 -8.841100 -35.844900
N -23.332900 -8.883300 -36.310700
H -23.181400 -8.785800 -37.151500
H -22.678000 -9.008200 -35.767300
H -28.716500 -15.592400 -32.539200
N -28.413700 -15.280200 -34.472100
H -28.165700 -14.136600 -28.930700
C -28.092900 -15.521300 -33.225600
H -27.895500 -15.504800 -29.654100
H -27.729000 -11.673700 -30.020100
O -27.703600 -14.775000 -37.436500
C -27.472000 -14.713000 -29.287800
H -27.349100 -13.775900 -31.108700
C -27.206700 -15.271000 -35.152600
O -27.159500 -11.758900 -29.436300
C -26.918400 -15.066800 -36.526800
H -26.865400 -14.815600 -27.527800
N -26.741400 -15.657400 -33.038600
C -26.712500 -13.979100 -30.391700
H -26.653200 -16.554300 -31.249900
O -26.577400 -15.086800 -28.246100
C -26.167000 -15.497000 -34.276900
C -26.147700 -12.662100 -29.885900
C -26.053000 -16.024700 -31.798000
H -25.642100 -12.241000 -30.598700
C -25.582000 -14.821700 -30.993800
N -25.562000 -15.197400 -36.781000
H -25.536300 -12.841100 -29.154600
H -25.307400 -15.126600 -37.599600
H -25.286300 -16.577800 -32.015400
H -25.045500 -14.254400 -31.569500
H -25.010600 -15.133200 -30.274500
N -24.841300 -15.578200 -34.551300
C -24.594600 -15.429100 -35.844900
N -23.332900 -15.471300 -36.310700
H -23.181400 -15.373800 -37.151500
H -22.678000 -15.596200 -35.767300
