33
Fragment
H -28.716500 -9.004400 -32.539200
N -28.413700 -8.692200 -34.472100
H -28.165700 -7.548600 -28.930700
C -28.092900 -8.933300 -33.225600
H -27.895500 -8.916800 -29.654100
H -27.729000 -5.085700 -30.020100
O -27.703600 -8.187000 -37.436500
C -27.472000 -8.125000 -29.287800
H -27.349100 -7.187900 -31.108700
C -27.206700 -8.683000 -35.152600
O -27.159500 -5.170900 -29.436300
C -26.918400 -8.478800 -36.526800
H -26.865400 -8.227600 -27.527800
N -26.741400 -9.069400 -33.038600
C -26.712500 -7.391100 -30.391700
H -26.653200 -9.966300 -31.249900
O -26.577400 -8.498800 -28.246100
C -26.167000 -8.909000 -34.276900
C -26.147700 -6.074100 -29.885900
C -26.053000 -9.436700 -31.798000
H -25.642100 -5.653000 -30.598700
C -25.582000 -8.233700 -30.993800
N -25.562000 -8.609400 -36.781000
H -25.536300 -6.253100 -29.154600
H -25.307400 -8.538600 -37.599600
H -25.286300 -9.989800 -32.015400
H -25.045500 -7.666400 -31.569500
H -25.010600 -8.545200 -30.274500
N -24.841300 -8.990200 -34.551300
C -24.594600 -8.841100 -35.844900
N -23.332900 -8.883300 -36.310700
H -23.181400 -8.785800 -37.151500
H -22.678000 -9.008200 -35.767300
33
Fragment
H -31.321900 -4.171600 -22.691300
N -31.019100 -4.483800 -24.624200
H -30.771100 -5.627400 -19.082800
C -30.698300 -4.242700 -23.377700
H -30.500900 -4.259200 -19.806200
H -30.334400 -8.090300 -20.172200
O -30.309000 -4.989000 -27.588600
C -30.077400 -5.051000 -19.439900
H -29.954500 -5.988100 -21.260800
C -29.812200 -4.493000 -25.304700
O -29.765000 -8.005100 -19.588400
C -29.523800 -4.697200 -26.678900
H -29.470800 -4.948400 -17.679900
N -29.346800 -4.106600 -23.190800
C -29.317900 -5.784900 -20.543900
H -29.258600 -3.209700 -21.402000
O -29.182900 -4.677200 -18.398200
C -28.772400 -4.267000 -24.429000
C -28.753100 -7.101900 -20.038100
C -28.658400 -3.739300 -21.950100
H -28.247500 -7.523000 -20.750900
C -28.187500 -4.942300 -21.146000
N -28.167400 -4.566600 -26.933200
H -28.141700 -6.922900 -19.306800
H -27.912800 -4.637400 -27.751700
H -27.891700 -3.186200 -22.167600
H -27.650900 -5.509600 -21.721700
H -27.616100 -4.630800 -20.426700
N -27.446800 -4.185800 -24.703400
C -27.200000 -4.334900 -25.997000
N -25.938300 -4.292700 -26.462800
H -25.786800 -4.390200 -27.303600
H -25.283400 -4.167800 -25.919400
66
Fragment
H -28.716500 -9.004400 -32.539200
N -28.413700 -8.692200 -34.472100
H -28.165700 -7.548600 -28.930700
C -28.092900 -8.933300 -33.225600
H -27.895500 -8.916800 -29.654100
H -27.729000 -5.085700 -30.020100
O -27.703600 -8.187000 -37.436500
C -27.472000 -8.125000 -29.287800
H -27.349100 -7.187900 -31.108700
C -27.206700 -8.683000 -35.152600
O -27.159500 -5.170900 -29.436300
C -26.918400 -8.478800 -36.526800
H -26.865400 -8.227600 -27.527800
N -26.741400 -9.069400 -33.038600
C -26.712500 -7.391100 -30.391700
H -26.653200 -9.966300 -31.249900
O -26.577400 -8.498800 -28.246100
C -26.167000 -8.909000 -34.276900
C -26.147700 -6.074100 -29.885900
C -26.053000 -9.436700 -31.798000
H -25.642100 -5.653000 -30.598700
C -25.582000 -8.233700 -30.993800
N -25.562000 -8.609400 -36.781000
H -25.536300 -6.253100 -29.154600
H -25.307400 -8.538600 -37.599600
H -25.286300 -9.989800 -32.015400
H -25.045500 -7.666400 -31.569500
H -25.010600 -8.545200 -30.274500
N -24.841300 -8.990200 -34.551300
C -24.594600 -8.841100 -35.844900
N -23.332900 -8.883300 -36.310700
H -23.181400 -8.785800 -37.151500
H -22.678000 -9.008200 -35.767300
H -31.321900 -4.171600 -22.691300
N -31.019100 -4.483800 -24.624200
H -30.771100 -5.627400 -19.082800
C -30.698300 -4.242700 -23.377700
H -30.500900 -4.259200 -19.806200
H -30.334400 -8.090300 -20.172200
O -30.309000 -4.989000 -27.588600
C -30.077400 -5.051000 -19.439900
H -29.954500 -5.988100 -21.260800
C -29.812200 -4.493000 -25.304700
O -29.765000 -8.005100 -19.588400
C -29.523800 -4.697200 -26.678900
H -29.470800 -4.948400 -17.679900
N -29.346800 -4.106600 -23.190800
C -29.317900 -5.784900 -20.543900
H -29.258600 -3.209700 -21.402000
O -29.182900 -4.677200 -18.398200
C -28.772400 -4.267000 -24.429000
C -28.753100 -7.101900 -20.038100
C -28.658400 -3.739300 -21.950100
H -28.247500 -7.523000 -20.750900
C -28.187500 -4.942300 -21.146000
N -28.167400 -4.566600 -26.933200
H -28.141700 -6.922900 -19.306800
H -27.912800 -4.637400 -27.751700
H -27.891700 -3.186200 -22.167600
H -27.650900 -5.509600 -21.721700
H -27.616100 -4.630800 -20.426700
N -27.446800 -4.185800 -24.703400
C -27.200000 -4.334900 -25.997000
N -25.938300 -4.292700 -26.462800
H -25.786800 -4.390200 -27.303600
H -25.283400 -4.167800 -25.919400
