33
Fragment
H -28.716500 -9.004400 -32.539200
N -28.413700 -8.692200 -34.472100
H -28.165700 -7.548600 -28.930700
C -28.092900 -8.933300 -33.225600
H -27.895500 -8.916800 -29.654100
H -27.729000 -5.085700 -30.020100
O -27.703600 -8.187000 -37.436500
C -27.472000 -8.125000 -29.287800
H -27.349100 -7.187900 -31.108700
C -27.206700 -8.683000 -35.152600
O -27.159500 -5.170900 -29.436300
C -26.918400 -8.478800 -36.526800
H -26.865400 -8.227600 -27.527800
N -26.741400 -9.069400 -33.038600
C -26.712500 -7.391100 -30.391700
H -26.653200 -9.966300 -31.249900
O -26.577400 -8.498800 -28.246100
C -26.167000 -8.909000 -34.276900
C -26.147700 -6.074100 -29.885900
C -26.053000 -9.436700 -31.798000
H -25.642100 -5.653000 -30.598700
C -25.582000 -8.233700 -30.993800
N -25.562000 -8.609400 -36.781000
H -25.536300 -6.253100 -29.154600
H -25.307400 -8.538600 -37.599600
H -25.286300 -9.989800 -32.015400
H -25.045500 -7.666400 -31.569500
H -25.010600 -8.545200 -30.274500
N -24.841300 -8.990200 -34.551300
C -24.594600 -8.841100 -35.844900
N -23.332900 -8.883300 -36.310700
H -23.181400 -8.785800 -37.151500
H -22.678000 -9.008200 -35.767300
33
Fragment
H -23.200700 -9.008200 -33.167800
H -22.697300 -8.785800 -31.783600
N -22.545800 -8.883300 -32.624400
C -21.284100 -8.841100 -33.090200
N -21.037400 -8.990200 -34.383900
H -20.868100 -8.545200 -38.660600
H -20.833200 -7.666400 -37.365600
H -20.592400 -9.989800 -36.919700
H -20.571300 -8.538600 -31.335500
H -20.342400 -6.253100 -39.780500
N -20.316700 -8.609400 -32.154100
C -20.296600 -8.233700 -37.941300
H -20.236600 -5.653000 -38.336400
C -19.825700 -9.436700 -37.137100
C -19.731000 -6.074100 -39.049200
C -19.711700 -8.909000 -34.658200
O -19.301200 -8.498800 -40.689100
H -19.225500 -9.966300 -37.685300
C -19.166200 -7.391100 -38.543400
N -19.137300 -9.069400 -35.896500
H -19.013300 -8.227600 -41.407400
C -18.960300 -8.478800 -32.408400
O -18.719100 -5.170900 -39.498800
C -18.672000 -8.683000 -33.782500
H -18.529600 -7.187900 -37.826500
C -18.406700 -8.125000 -39.647400
O -18.175100 -8.187000 -31.498600
H -18.149700 -5.085700 -38.915100
H -17.983200 -8.916800 -39.281000
C -17.785800 -8.933300 -35.709600
H -17.713000 -7.548600 -40.004400
N -17.465000 -8.692200 -34.463000
H -17.162200 -9.004400 -36.396000
66
Fragment
H -28.716500 -9.004400 -32.539200
N -28.413700 -8.692200 -34.472100
H -28.165700 -7.548600 -28.930700
C -28.092900 -8.933300 -33.225600
H -27.895500 -8.916800 -29.654100
H -27.729000 -5.085700 -30.020100
O -27.703600 -8.187000 -37.436500
C -27.472000 -8.125000 -29.287800
H -27.349100 -7.187900 -31.108700
C -27.206700 -8.683000 -35.152600
O -27.159500 -5.170900 -29.436300
C -26.918400 -8.478800 -36.526800
H -26.865400 -8.227600 -27.527800
N -26.741400 -9.069400 -33.038600
C -26.712500 -7.391100 -30.391700
H -26.653200 -9.966300 -31.249900
O -26.577400 -8.498800 -28.246100
C -26.167000 -8.909000 -34.276900
C -26.147700 -6.074100 -29.885900
C -26.053000 -9.436700 -31.798000
H -25.642100 -5.653000 -30.598700
C -25.582000 -8.233700 -30.993800
N -25.562000 -8.609400 -36.781000
H -25.536300 -6.253100 -29.154600
H -25.307400 -8.538600 -37.599600
H -25.286300 -9.989800 -32.015400
H -25.045500 -7.666400 -31.569500
H -25.010600 -8.545200 -30.274500
N -24.841300 -8.990200 -34.551300
C -24.594600 -8.841100 -35.844900
N -23.332900 -8.883300 -36.310700
H -23.181400 -8.785800 -37.151500
H -22.678000 -9.008200 -35.767300
H -23.200700 -9.008200 -33.167800
H -22.697300 -8.785800 -31.783600
N -22.545800 -8.883300 -32.624400
C -21.284100 -8.841100 -33.090200
N -21.037400 -8.990200 -34.383900
H -20.868100 -8.545200 -38.660600
H -20.833200 -7.666400 -37.365600
H -20.592400 -9.989800 -36.919700
H -20.571300 -8.538600 -31.335500
H -20.342400 -6.253100 -39.780500
N -20.316700 -8.609400 -32.154100
C -20.296600 -8.233700 -37.941300
H -20.236600 -5.653000 -38.336400
C -19.825700 -9.436700 -37.137100
C -19.731000 -6.074100 -39.049200
C -19.711700 -8.909000 -34.658200
O -19.301200 -8.498800 -40.689100
H -19.225500 -9.966300 -37.685300
C -19.166200 -7.391100 -38.543400
N -19.137300 -9.069400 -35.896500
H -19.013300 -8.227600 -41.407400
C -18.960300 -8.478800 -32.408400
O -18.719100 -5.170900 -39.498800
C -18.672000 -8.683000 -33.782500
H -18.529600 -7.187900 -37.826500
C -18.406700 -8.125000 -39.647400
O -18.175100 -8.187000 -31.498600
H -18.149700 -5.085700 -38.915100
H -17.983200 -8.916800 -39.281000
C -17.785800 -8.933300 -35.709600
H -17.713000 -7.548600 -40.004400
N -17.465000 -8.692200 -34.463000
H -17.162200 -9.004400 -36.396000
