26
Fragment
H -37.614000 -5.679800 -26.534300
H -36.836400 -5.301600 -28.676900
C -36.730900 -5.886700 -26.740400
C -36.285500 -5.668700 -28.023700
N -35.950300 -6.382200 -25.779300
C -34.985600 -6.021500 -28.290000
C -34.690900 -6.647500 -26.131300
H -34.659600 -5.910500 -29.154000
N -34.169300 -6.519000 -27.352500
N -34.127600 -7.096900 -23.846800
C -33.774400 -7.131600 -25.074300
H -33.260400 -7.381600 -22.188300
N -33.089600 -7.573900 -22.998900
N -32.504900 -7.573900 -25.447200
H -32.334100 -7.381600 -26.257800
C -31.820100 -7.131600 -23.371800
N -31.466900 -7.096900 -24.599300
N -31.425200 -6.519000 -21.093600
H -30.934900 -5.910500 -19.292100
C -30.903600 -6.647500 -22.314800
C -30.609000 -6.021500 -20.156100
N -29.644200 -6.382200 -22.666800
C -29.309000 -5.668700 -20.422400
C -28.863700 -5.886700 -21.705600
H -28.758200 -5.301600 -19.769200
H -27.980500 -5.679800 -21.911700
26
Fragment
H -48.661300 -3.635700 -33.455200
H -47.883700 -4.013900 -35.597800
C -47.778200 -3.428800 -33.661300
C -47.332800 -3.646800 -34.944600
N -46.997600 -2.933300 -32.700100
C -46.032900 -3.294000 -35.210900
C -45.738200 -2.668000 -33.052100
H -45.706900 -3.405000 -36.074900
N -45.216600 -2.796500 -34.273400
N -45.174900 -2.218600 -30.767700
C -44.821700 -2.183900 -31.995200
H -44.307700 -1.933900 -29.109200
N -44.136900 -1.741600 -29.919700
N -43.552200 -1.741600 -32.368100
H -43.381400 -1.933900 -33.178600
C -42.867400 -2.183900 -30.292600
N -42.514200 -2.218600 -31.520100
N -42.472500 -2.796500 -28.014400
H -41.982200 -3.405000 -26.212900
C -41.950900 -2.668000 -29.235700
C -41.656300 -3.294000 -27.076900
N -40.691500 -2.933300 -29.587700
C -40.356300 -3.646800 -27.343200
C -39.911000 -3.428800 -28.626500
H -39.805500 -4.013900 -26.690000
H -39.027800 -3.635700 -28.832600
52
Fragment
H -37.614000 -5.679800 -26.534300
H -36.836400 -5.301600 -28.676900
C -36.730900 -5.886700 -26.740400
C -36.285500 -5.668700 -28.023700
N -35.950300 -6.382200 -25.779300
C -34.985600 -6.021500 -28.290000
C -34.690900 -6.647500 -26.131300
H -34.659600 -5.910500 -29.154000
N -34.169300 -6.519000 -27.352500
N -34.127600 -7.096900 -23.846800
C -33.774400 -7.131600 -25.074300
H -33.260400 -7.381600 -22.188300
N -33.089600 -7.573900 -22.998900
N -32.504900 -7.573900 -25.447200
H -32.334100 -7.381600 -26.257800
C -31.820100 -7.131600 -23.371800
N -31.466900 -7.096900 -24.599300
N -31.425200 -6.519000 -21.093600
H -30.934900 -5.910500 -19.292100
C -30.903600 -6.647500 -22.314800
C -30.609000 -6.021500 -20.156100
N -29.644200 -6.382200 -22.666800
C -29.309000 -5.668700 -20.422400
C -28.863700 -5.886700 -21.705600
H -28.758200 -5.301600 -19.769200
H -27.980500 -5.679800 -21.911700
H -48.661300 -3.635700 -33.455200
H -47.883700 -4.013900 -35.597800
C -47.778200 -3.428800 -33.661300
C -47.332800 -3.646800 -34.944600
N -46.997600 -2.933300 -32.700100
C -46.032900 -3.294000 -35.210900
C -45.738200 -2.668000 -33.052100
H -45.706900 -3.405000 -36.074900
N -45.216600 -2.796500 -34.273400
N -45.174900 -2.218600 -30.767700
C -44.821700 -2.183900 -31.995200
H -44.307700 -1.933900 -29.109200
N -44.136900 -1.741600 -29.919700
N -43.552200 -1.741600 -32.368100
H -43.381400 -1.933900 -33.178600
C -42.867400 -2.183900 -30.292600
N -42.514200 -2.218600 -31.520100
N -42.472500 -2.796500 -28.014400
H -41.982200 -3.405000 -26.212900
C -41.950900 -2.668000 -29.235700
C -41.656300 -3.294000 -27.076900
N -40.691500 -2.933300 -29.587700
C -40.356300 -3.646800 -27.343200
C -39.911000 -3.428800 -28.626500
H -39.805500 -4.013900 -26.690000
H -39.027800 -3.635700 -28.832600
