26
Fragment
H -37.614000 -5.679800 -26.534300
H -36.836400 -5.301600 -28.676900
C -36.730900 -5.886700 -26.740400
C -36.285500 -5.668700 -28.023700
N -35.950300 -6.382200 -25.779300
C -34.985600 -6.021500 -28.290000
C -34.690900 -6.647500 -26.131300
H -34.659600 -5.910500 -29.154000
N -34.169300 -6.519000 -27.352500
N -34.127600 -7.096900 -23.846800
C -33.774400 -7.131600 -25.074300
H -33.260400 -7.381600 -22.188300
N -33.089600 -7.573900 -22.998900
N -32.504900 -7.573900 -25.447200
H -32.334100 -7.381600 -26.257800
C -31.820100 -7.131600 -23.371800
N -31.466900 -7.096900 -24.599300
N -31.425200 -6.519000 -21.093600
H -30.934900 -5.910500 -19.292100
C -30.903600 -6.647500 -22.314800
C -30.609000 -6.021500 -20.156100
N -29.644200 -6.382200 -22.666800
C -29.309000 -5.668700 -20.422400
C -28.863700 -5.886700 -21.705600
H -28.758200 -5.301600 -19.769200
H -27.980500 -5.679800 -21.911700
26
Fragment
H -26.566700 -7.361900 -19.613500
H -25.789100 -7.740100 -21.756000
C -25.683600 -7.155000 -19.819600
C -25.238200 -7.373000 -21.102800
N -24.903100 -6.659500 -18.858400
C -23.938300 -7.020200 -21.369100
C -23.643600 -6.394200 -19.210400
H -23.612300 -7.131200 -22.233100
N -23.122100 -6.522700 -20.431600
N -23.080300 -5.944800 -16.926000
C -22.727100 -5.910100 -18.153400
H -22.213200 -5.660100 -15.267400
N -22.042300 -5.467800 -16.078000
N -21.457700 -5.467800 -18.526300
H -21.286800 -5.660100 -19.336900
C -20.772800 -5.910100 -16.450900
N -20.419600 -5.944800 -17.678400
N -20.377900 -6.522700 -14.172700
H -19.887600 -7.131200 -12.371200
C -19.856300 -6.394200 -15.393900
C -19.561700 -7.020200 -13.235200
N -18.596900 -6.659500 -15.745900
C -18.261800 -7.373000 -13.501500
C -17.816400 -7.155000 -14.784800
H -17.710900 -7.740100 -12.848300
H -16.933200 -7.361900 -14.990900
52
Fragment
H -37.614000 -5.679800 -26.534300
H -36.836400 -5.301600 -28.676900
C -36.730900 -5.886700 -26.740400
C -36.285500 -5.668700 -28.023700
N -35.950300 -6.382200 -25.779300
C -34.985600 -6.021500 -28.290000
C -34.690900 -6.647500 -26.131300
H -34.659600 -5.910500 -29.154000
N -34.169300 -6.519000 -27.352500
N -34.127600 -7.096900 -23.846800
C -33.774400 -7.131600 -25.074300
H -33.260400 -7.381600 -22.188300
N -33.089600 -7.573900 -22.998900
N -32.504900 -7.573900 -25.447200
H -32.334100 -7.381600 -26.257800
C -31.820100 -7.131600 -23.371800
N -31.466900 -7.096900 -24.599300
N -31.425200 -6.519000 -21.093600
H -30.934900 -5.910500 -19.292100
C -30.903600 -6.647500 -22.314800
C -30.609000 -6.021500 -20.156100
N -29.644200 -6.382200 -22.666800
C -29.309000 -5.668700 -20.422400
C -28.863700 -5.886700 -21.705600
H -28.758200 -5.301600 -19.769200
H -27.980500 -5.679800 -21.911700
H -26.566700 -7.361900 -19.613500
H -25.789100 -7.740100 -21.756000
C -25.683600 -7.155000 -19.819600
C -25.238200 -7.373000 -21.102800
N -24.903100 -6.659500 -18.858400
C -23.938300 -7.020200 -21.369100
C -23.643600 -6.394200 -19.210400
H -23.612300 -7.131200 -22.233100
N -23.122100 -6.522700 -20.431600
N -23.080300 -5.944800 -16.926000
C -22.727100 -5.910100 -18.153400
H -22.213200 -5.660100 -15.267400
N -22.042300 -5.467800 -16.078000
N -21.457700 -5.467800 -18.526300
H -21.286800 -5.660100 -19.336900
C -20.772800 -5.910100 -16.450900
N -20.419600 -5.944800 -17.678400
N -20.377900 -6.522700 -14.172700
H -19.887600 -7.131200 -12.371200
C -19.856300 -6.394200 -15.393900
C -19.561700 -7.020200 -13.235200
N -18.596900 -6.659500 -15.745900
C -18.261800 -7.373000 -13.501500
C -17.816400 -7.155000 -14.784800
H -17.710900 -7.740100 -12.848300
H -16.933200 -7.361900 -14.990900
