26
Fragment
H -37.614000 -5.679800 -26.534300
H -36.836400 -5.301600 -28.676900
C -36.730900 -5.886700 -26.740400
C -36.285500 -5.668700 -28.023700
N -35.950300 -6.382200 -25.779300
C -34.985600 -6.021500 -28.290000
C -34.690900 -6.647500 -26.131300
H -34.659600 -5.910500 -29.154000
N -34.169300 -6.519000 -27.352500
N -34.127600 -7.096900 -23.846800
C -33.774400 -7.131600 -25.074300
H -33.260400 -7.381600 -22.188300
N -33.089600 -7.573900 -22.998900
N -32.504900 -7.573900 -25.447200
H -32.334100 -7.381600 -26.257800
C -31.820100 -7.131600 -23.371800
N -31.466900 -7.096900 -24.599300
N -31.425200 -6.519000 -21.093600
H -30.934900 -5.910500 -19.292100
C -30.903600 -6.647500 -22.314800
C -30.609000 -6.021500 -20.156100
N -29.644200 -6.382200 -22.666800
C -29.309000 -5.668700 -20.422400
C -28.863700 -5.886700 -21.705600
H -28.758200 -5.301600 -19.769200
H -27.980500 -5.679800 -21.911700
3
Fragment
H -37.544000 -7.102100 -31.195100
O -37.149200 -7.718500 -30.704300
H -36.340400 -7.825000 -30.977800
29
Fragment
H -37.614000 -5.679800 -26.534300
H -36.836400 -5.301600 -28.676900
C -36.730900 -5.886700 -26.740400
C -36.285500 -5.668700 -28.023700
N -35.950300 -6.382200 -25.779300
C -34.985600 -6.021500 -28.290000
C -34.690900 -6.647500 -26.131300
H -34.659600 -5.910500 -29.154000
N -34.169300 -6.519000 -27.352500
N -34.127600 -7.096900 -23.846800
C -33.774400 -7.131600 -25.074300
H -33.260400 -7.381600 -22.188300
N -33.089600 -7.573900 -22.998900
N -32.504900 -7.573900 -25.447200
H -32.334100 -7.381600 -26.257800
C -31.820100 -7.131600 -23.371800
N -31.466900 -7.096900 -24.599300
N -31.425200 -6.519000 -21.093600
H -30.934900 -5.910500 -19.292100
C -30.903600 -6.647500 -22.314800
C -30.609000 -6.021500 -20.156100
N -29.644200 -6.382200 -22.666800
C -29.309000 -5.668700 -20.422400
C -28.863700 -5.886700 -21.705600
H -28.758200 -5.301600 -19.769200
H -27.980500 -5.679800 -21.911700
H -37.544000 -7.102100 -31.195100
O -37.149200 -7.718500 -30.704300
H -36.340400 -7.825000 -30.977800
