26
Fragment
H -37.614000 -5.679800 -26.534300
H -36.836400 -5.301600 -28.676900
C -36.730900 -5.886700 -26.740400
C -36.285500 -5.668700 -28.023700
N -35.950300 -6.382200 -25.779300
C -34.985600 -6.021500 -28.290000
C -34.690900 -6.647500 -26.131300
H -34.659600 -5.910500 -29.154000
N -34.169300 -6.519000 -27.352500
N -34.127600 -7.096900 -23.846800
C -33.774400 -7.131600 -25.074300
H -33.260400 -7.381600 -22.188300
N -33.089600 -7.573900 -22.998900
N -32.504900 -7.573900 -25.447200
H -32.334100 -7.381600 -26.257800
C -31.820100 -7.131600 -23.371800
N -31.466900 -7.096900 -24.599300
N -31.425200 -6.519000 -21.093600
H -30.934900 -5.910500 -19.292100
C -30.903600 -6.647500 -22.314800
C -30.609000 -6.021500 -20.156100
N -29.644200 -6.382200 -22.666800
C -29.309000 -5.668700 -20.422400
C -28.863700 -5.886700 -21.705600
H -28.758200 -5.301600 -19.769200
H -27.980500 -5.679800 -21.911700
26
Fragment
H -36.924800 -5.498800 -33.455200
H -36.147200 -5.877000 -35.597800
C -36.041700 -5.291900 -33.661300
C -35.596300 -5.509900 -34.944600
N -35.261100 -4.796400 -32.700100
C -34.296400 -5.157100 -35.210900
C -34.001700 -4.531100 -33.052100
H -33.970400 -5.268100 -36.074900
N -33.480100 -4.659600 -34.273400
N -33.438400 -4.081700 -30.767700
C -33.085200 -4.047000 -31.995200
H -32.571200 -3.797000 -29.109200
N -32.400400 -3.604700 -29.919700
N -31.815700 -3.604700 -32.368100
H -31.644900 -3.797000 -33.178600
C -31.130900 -4.047000 -30.292600
N -30.777700 -4.081700 -31.520100
N -30.736000 -4.659600 -28.014400
H -30.245700 -5.268100 -26.212900
C -30.214400 -4.531100 -29.235700
C -29.919800 -5.157100 -27.076900
N -28.955000 -4.796400 -29.587700
C -28.619800 -5.509900 -27.343200
C -28.174500 -5.291900 -28.626500
H -28.069000 -5.877000 -26.690000
H -27.291300 -5.498800 -28.832600
52
Fragment
H -37.614000 -5.679800 -26.534300
H -36.836400 -5.301600 -28.676900
C -36.730900 -5.886700 -26.740400
C -36.285500 -5.668700 -28.023700
N -35.950300 -6.382200 -25.779300
C -34.985600 -6.021500 -28.290000
C -34.690900 -6.647500 -26.131300
H -34.659600 -5.910500 -29.154000
N -34.169300 -6.519000 -27.352500
N -34.127600 -7.096900 -23.846800
C -33.774400 -7.131600 -25.074300
H -33.260400 -7.381600 -22.188300
N -33.089600 -7.573900 -22.998900
N -32.504900 -7.573900 -25.447200
H -32.334100 -7.381600 -26.257800
C -31.820100 -7.131600 -23.371800
N -31.466900 -7.096900 -24.599300
N -31.425200 -6.519000 -21.093600
H -30.934900 -5.910500 -19.292100
C -30.903600 -6.647500 -22.314800
C -30.609000 -6.021500 -20.156100
N -29.644200 -6.382200 -22.666800
C -29.309000 -5.668700 -20.422400
C -28.863700 -5.886700 -21.705600
H -28.758200 -5.301600 -19.769200
H -27.980500 -5.679800 -21.911700
H -36.924800 -5.498800 -33.455200
H -36.147200 -5.877000 -35.597800
C -36.041700 -5.291900 -33.661300
C -35.596300 -5.509900 -34.944600
N -35.261100 -4.796400 -32.700100
C -34.296400 -5.157100 -35.210900
C -34.001700 -4.531100 -33.052100
H -33.970400 -5.268100 -36.074900
N -33.480100 -4.659600 -34.273400
N -33.438400 -4.081700 -30.767700
C -33.085200 -4.047000 -31.995200
H -32.571200 -3.797000 -29.109200
N -32.400400 -3.604700 -29.919700
N -31.815700 -3.604700 -32.368100
H -31.644900 -3.797000 -33.178600
C -31.130900 -4.047000 -30.292600
N -30.777700 -4.081700 -31.520100
N -30.736000 -4.659600 -28.014400
H -30.245700 -5.268100 -26.212900
C -30.214400 -4.531100 -29.235700
C -29.919800 -5.157100 -27.076900
N -28.955000 -4.796400 -29.587700
C -28.619800 -5.509900 -27.343200
C -28.174500 -5.291900 -28.626500
H -28.069000 -5.877000 -26.690000
H -27.291300 -5.498800 -28.832600
