18
Fragment
H -12.818700 -21.941700 -29.675600
H -12.708400 -21.702700 -31.896000
N -12.572300 -21.213500 -29.290300
N -12.559400 -20.974500 -27.965400
H -12.553700 -21.363900 -34.169500
C -12.394600 -20.888800 -32.218900
C -12.312300 -20.684900 -33.580500
C -12.138900 -20.129700 -29.881100
N -12.137500 -19.790900 -27.723200
H -12.041500 -19.816200 -35.828400
C -12.019300 -19.903300 -31.325300
C -11.867400 -19.460500 -34.076000
N -11.858100 -19.234200 -28.923300
O -11.764200 -19.179300 -35.391600
C -11.535000 -18.701400 -31.811600
C -11.444000 -18.484900 -33.164000
H -11.269900 -18.035000 -31.218900
Br -10.754200 -16.856100 -33.826900
18
Fragment
Br -10.736900 -9.827100 -30.398100
H -10.221200 -11.006000 -33.006100
C -10.047100 -11.455900 -31.061000
C -9.956100 -11.672400 -32.413400
O -9.726900 -12.150300 -28.833400
N -9.633000 -12.205200 -35.301700
C -9.623700 -12.431500 -30.149000
C -9.471800 -12.874300 -32.899700
H -9.449600 -12.787200 -28.396600
N -9.353600 -12.761900 -36.501800
C -9.352200 -13.100700 -34.343900
C -9.178800 -13.655900 -30.644500
C -9.096500 -13.859800 -32.006100
H -8.937400 -14.334900 -30.055500
N -8.931700 -13.945500 -36.259600
N -8.918800 -14.184500 -34.934700
H -8.782700 -14.673700 -32.329000
H -8.672400 -14.912700 -34.549400
36
Fragment
H -12.818700 -21.941700 -29.675600
H -12.708400 -21.702700 -31.896000
N -12.572300 -21.213500 -29.290300
N -12.559400 -20.974500 -27.965400
H -12.553700 -21.363900 -34.169500
C -12.394600 -20.888800 -32.218900
C -12.312300 -20.684900 -33.580500
C -12.138900 -20.129700 -29.881100
N -12.137500 -19.790900 -27.723200
H -12.041500 -19.816200 -35.828400
C -12.019300 -19.903300 -31.325300
C -11.867400 -19.460500 -34.076000
N -11.858100 -19.234200 -28.923300
O -11.764200 -19.179300 -35.391600
C -11.535000 -18.701400 -31.811600
C -11.444000 -18.484900 -33.164000
H -11.269900 -18.035000 -31.218900
Br -10.754200 -16.856100 -33.826900
Br -10.736900 -9.827100 -30.398100
H -10.221200 -11.006000 -33.006100
C -10.047100 -11.455900 -31.061000
C -9.956100 -11.672400 -32.413400
O -9.726900 -12.150300 -28.833400
N -9.633000 -12.205200 -35.301700
C -9.623700 -12.431500 -30.149000
C -9.471800 -12.874300 -32.899700
H -9.449600 -12.787200 -28.396600
N -9.353600 -12.761900 -36.501800
C -9.352200 -13.100700 -34.343900
C -9.178800 -13.655900 -30.644500
C -9.096500 -13.859800 -32.006100
H -8.937400 -14.334900 -30.055500
N -8.931700 -13.945500 -36.259600
N -8.918800 -14.184500 -34.934700
H -8.782700 -14.673700 -32.329000
H -8.672400 -14.912700 -34.549400
