18
Fragment
H -12.818700 -21.941700 -29.675600
H -12.708400 -21.702700 -31.896000
N -12.572300 -21.213500 -29.290300
N -12.559400 -20.974500 -27.965400
H -12.553700 -21.363900 -34.169500
C -12.394600 -20.888800 -32.218900
C -12.312300 -20.684900 -33.580500
C -12.138900 -20.129700 -29.881100
N -12.137500 -19.790900 -27.723200
H -12.041500 -19.816200 -35.828400
C -12.019300 -19.903300 -31.325300
C -11.867400 -19.460500 -34.076000
N -11.858100 -19.234200 -28.923300
O -11.764200 -19.179300 -35.391600
C -11.535000 -18.701400 -31.811600
C -11.444000 -18.484900 -33.164000
H -11.269900 -18.035000 -31.218900
Br -10.754200 -16.856100 -33.826900
18
Fragment
Br -14.318700 -25.317900 -24.651900
H -13.803000 -24.139000 -22.043900
C -13.628900 -23.689100 -23.989000
C -13.538000 -23.472600 -22.636600
O -13.308700 -22.994700 -26.216600
N -13.214900 -22.939800 -19.748300
C -13.205600 -22.713500 -24.901000
C -13.053700 -22.270700 -22.150300
H -13.031500 -22.357800 -26.653400
N -12.935500 -22.383100 -18.548200
C -12.934100 -22.044300 -20.706100
C -12.760700 -21.489100 -24.405500
C -12.678300 -21.285200 -23.043900
H -12.519300 -20.810100 -24.994500
N -12.513600 -21.199500 -18.790400
N -12.500700 -20.960500 -20.115300
H -12.364500 -20.471300 -22.721000
H -12.254200 -20.232300 -20.500600
36
Fragment
H -12.818700 -21.941700 -29.675600
H -12.708400 -21.702700 -31.896000
N -12.572300 -21.213500 -29.290300
N -12.559400 -20.974500 -27.965400
H -12.553700 -21.363900 -34.169500
C -12.394600 -20.888800 -32.218900
C -12.312300 -20.684900 -33.580500
C -12.138900 -20.129700 -29.881100
N -12.137500 -19.790900 -27.723200
H -12.041500 -19.816200 -35.828400
C -12.019300 -19.903300 -31.325300
C -11.867400 -19.460500 -34.076000
N -11.858100 -19.234200 -28.923300
O -11.764200 -19.179300 -35.391600
C -11.535000 -18.701400 -31.811600
C -11.444000 -18.484900 -33.164000
H -11.269900 -18.035000 -31.218900
Br -10.754200 -16.856100 -33.826900
Br -14.318700 -25.317900 -24.651900
H -13.803000 -24.139000 -22.043900
C -13.628900 -23.689100 -23.989000
C -13.538000 -23.472600 -22.636600
O -13.308700 -22.994700 -26.216600
N -13.214900 -22.939800 -19.748300
C -13.205600 -22.713500 -24.901000
C -13.053700 -22.270700 -22.150300
H -13.031500 -22.357800 -26.653400
N -12.935500 -22.383100 -18.548200
C -12.934100 -22.044300 -20.706100
C -12.760700 -21.489100 -24.405500
C -12.678300 -21.285200 -23.043900
H -12.519300 -20.810100 -24.994500
N -12.513600 -21.199500 -18.790400
N -12.500700 -20.960500 -20.115300
H -12.364500 -20.471300 -22.721000
H -12.254200 -20.232300 -20.500600
