18
Fragment
H -12.818700 -21.941700 -29.675600
H -12.708400 -21.702700 -31.896000
N -12.572300 -21.213500 -29.290300
N -12.559400 -20.974500 -27.965400
H -12.553700 -21.363900 -34.169500
C -12.394600 -20.888800 -32.218900
C -12.312300 -20.684900 -33.580500
C -12.138900 -20.129700 -29.881100
N -12.137500 -19.790900 -27.723200
H -12.041500 -19.816200 -35.828400
C -12.019300 -19.903300 -31.325300
C -11.867400 -19.460500 -34.076000
N -11.858100 -19.234200 -28.923300
O -11.764200 -19.179300 -35.391600
C -11.535000 -18.701400 -31.811600
C -11.444000 -18.484900 -33.164000
H -11.269900 -18.035000 -31.218900
Br -10.754200 -16.856100 -33.826900
18
Fragment
Br -10.736900 -25.317900 -21.223100
H -10.221200 -24.139000 -23.831100
C -10.047100 -23.689100 -21.886000
C -9.956100 -23.472600 -23.238400
O -9.726900 -22.994700 -19.658400
N -9.633000 -22.939800 -26.126700
C -9.623700 -22.713500 -20.974100
C -9.471800 -22.270700 -23.724700
H -9.449600 -22.357800 -19.221600
N -9.353600 -22.383100 -27.326800
C -9.352200 -22.044300 -25.168900
C -9.178800 -21.489100 -21.469500
C -9.096500 -21.285200 -22.831100
H -8.937400 -20.810100 -20.880500
N -8.931700 -21.199500 -27.084600
N -8.918800 -20.960500 -25.759700
H -8.782700 -20.471300 -23.154000
H -8.672400 -20.232300 -25.374400
36
Fragment
H -12.818700 -21.941700 -29.675600
H -12.708400 -21.702700 -31.896000
N -12.572300 -21.213500 -29.290300
N -12.559400 -20.974500 -27.965400
H -12.553700 -21.363900 -34.169500
C -12.394600 -20.888800 -32.218900
C -12.312300 -20.684900 -33.580500
C -12.138900 -20.129700 -29.881100
N -12.137500 -19.790900 -27.723200
H -12.041500 -19.816200 -35.828400
C -12.019300 -19.903300 -31.325300
C -11.867400 -19.460500 -34.076000
N -11.858100 -19.234200 -28.923300
O -11.764200 -19.179300 -35.391600
C -11.535000 -18.701400 -31.811600
C -11.444000 -18.484900 -33.164000
H -11.269900 -18.035000 -31.218900
Br -10.754200 -16.856100 -33.826900
Br -10.736900 -25.317900 -21.223100
H -10.221200 -24.139000 -23.831100
C -10.047100 -23.689100 -21.886000
C -9.956100 -23.472600 -23.238400
O -9.726900 -22.994700 -19.658400
N -9.633000 -22.939800 -26.126700
C -9.623700 -22.713500 -20.974100
C -9.471800 -22.270700 -23.724700
H -9.449600 -22.357800 -19.221600
N -9.353600 -22.383100 -27.326800
C -9.352200 -22.044300 -25.168900
C -9.178800 -21.489100 -21.469500
C -9.096500 -21.285200 -22.831100
H -8.937400 -20.810100 -20.880500
N -8.931700 -21.199500 -27.084600
N -8.918800 -20.960500 -25.759700
H -8.782700 -20.471300 -23.154000
H -8.672400 -20.232300 -25.374400
