30
Fragment
C -11.314600 -17.655100 -72.147200
C -11.265100 -18.591200 -71.160100
C -11.174900 -16.433600 -71.569800
H -11.070700 -16.966100 -68.626100
C -11.027800 -17.127500 -69.542500
C -11.019000 -15.961100 -70.268900
C -10.989400 -18.499700 -69.817900
C -10.981300 -18.238800 -73.290500
H -10.931700 -15.085000 -69.969800
C -10.906600 -19.778300 -71.726500
H -10.867400 -14.801500 -72.514700
C -10.832700 -15.713000 -72.699800
C -10.715200 -19.538200 -73.072100
C -10.501500 -19.558800 -69.015500
C -10.474200 -17.314500 -74.252400
C -10.454200 -15.913800 -74.019800
H -10.434300 -19.529300 -68.089600
H -10.229500 -15.255300 -74.637000
C -10.224300 -20.855200 -71.199500
C -10.131900 -20.649500 -69.808400
C -9.817800 -20.172100 -74.053000
C -9.779400 -18.025200 -75.159300
H -9.762400 -21.361200 -69.338300
H -9.498500 -17.549800 -75.909400
C -9.431200 -19.342300 -75.138800
C -9.421600 -21.657400 -72.025600
C -9.409000 -21.337500 -73.374000
H -9.072000 -22.006900 -73.924800
H -8.935900 -19.700600 -75.838200
H -8.924100 -22.367200 -71.688500
30
Fragment
C -7.178200 -20.079600 -79.697800
C -7.074000 -19.134600 -80.690100
H -7.021500 -17.085200 -80.785500
C -7.004500 -19.817700 -78.319000
C -6.970500 -17.793900 -80.184900
C -6.910600 -21.449800 -79.903800
H -6.846300 -19.129700 -82.727400
C -6.821200 -19.692700 -81.990100
C -6.796800 -17.516300 -78.841300
H -6.737600 -16.630400 -78.563500
C -6.705800 -18.566600 -77.857500
C -6.637100 -21.027500 -77.677100
C -6.566900 -22.026600 -78.647100
C -6.543200 -21.029400 -82.188500
C -6.506300 -21.973400 -81.091300
H -6.373900 -21.332600 -83.050300
C -6.088600 -18.593200 -76.528100
H -5.934100 -17.785100 -76.094600
C -5.913400 -21.076700 -76.503900
C -5.871300 -23.263900 -81.005300
C -5.804000 -23.166400 -78.528800
C -5.727900 -19.756700 -75.890000
H -5.678400 -23.726500 -81.787300
C -5.542400 -23.828900 -79.796500
H -5.352400 -19.704500 -75.040600
C -5.282900 -22.339600 -76.270300
C -5.220800 -23.350500 -77.237900
H -5.137300 -24.665600 -79.788500
H -4.897100 -22.497100 -75.439400
H -4.794300 -24.151800 -77.039400
60
Fragment
C -11.314600 -17.655100 -72.147200
C -11.265100 -18.591200 -71.160100
C -11.174900 -16.433600 -71.569800
H -11.070700 -16.966100 -68.626100
C -11.027800 -17.127500 -69.542500
C -11.019000 -15.961100 -70.268900
C -10.989400 -18.499700 -69.817900
C -10.981300 -18.238800 -73.290500
H -10.931700 -15.085000 -69.969800
C -10.906600 -19.778300 -71.726500
H -10.867400 -14.801500 -72.514700
C -10.832700 -15.713000 -72.699800
C -10.715200 -19.538200 -73.072100
C -10.501500 -19.558800 -69.015500
C -10.474200 -17.314500 -74.252400
C -10.454200 -15.913800 -74.019800
H -10.434300 -19.529300 -68.089600
H -10.229500 -15.255300 -74.637000
C -10.224300 -20.855200 -71.199500
C -10.131900 -20.649500 -69.808400
C -9.817800 -20.172100 -74.053000
C -9.779400 -18.025200 -75.159300
H -9.762400 -21.361200 -69.338300
H -9.498500 -17.549800 -75.909400
C -9.431200 -19.342300 -75.138800
C -9.421600 -21.657400 -72.025600
C -9.409000 -21.337500 -73.374000
H -9.072000 -22.006900 -73.924800
H -8.935900 -19.700600 -75.838200
H -8.924100 -22.367200 -71.688500
C -7.178200 -20.079600 -79.697800
C -7.074000 -19.134600 -80.690100
H -7.021500 -17.085200 -80.785500
C -7.004500 -19.817700 -78.319000
C -6.970500 -17.793900 -80.184900
C -6.910600 -21.449800 -79.903800
H -6.846300 -19.129700 -82.727400
C -6.821200 -19.692700 -81.990100
C -6.796800 -17.516300 -78.841300
H -6.737600 -16.630400 -78.563500
C -6.705800 -18.566600 -77.857500
C -6.637100 -21.027500 -77.677100
C -6.566900 -22.026600 -78.647100
C -6.543200 -21.029400 -82.188500
C -6.506300 -21.973400 -81.091300
H -6.373900 -21.332600 -83.050300
C -6.088600 -18.593200 -76.528100
H -5.934100 -17.785100 -76.094600
C -5.913400 -21.076700 -76.503900
C -5.871300 -23.263900 -81.005300
C -5.804000 -23.166400 -78.528800
C -5.727900 -19.756700 -75.890000
H -5.678400 -23.726500 -81.787300
C -5.542400 -23.828900 -79.796500
H -5.352400 -19.704500 -75.040600
C -5.282900 -22.339600 -76.270300
C -5.220800 -23.350500 -77.237900
H -5.137300 -24.665600 -79.788500
H -4.897100 -22.497100 -75.439400
H -4.794300 -24.151800 -77.039400
