30
Fragment
C -11.314600 -17.655100 -72.147200
C -11.265100 -18.591200 -71.160100
C -11.174900 -16.433600 -71.569800
H -11.070700 -16.966100 -68.626100
C -11.027800 -17.127500 -69.542500
C -11.019000 -15.961100 -70.268900
C -10.989400 -18.499700 -69.817900
C -10.981300 -18.238800 -73.290500
H -10.931700 -15.085000 -69.969800
C -10.906600 -19.778300 -71.726500
H -10.867400 -14.801500 -72.514700
C -10.832700 -15.713000 -72.699800
C -10.715200 -19.538200 -73.072100
C -10.501500 -19.558800 -69.015500
C -10.474200 -17.314500 -74.252400
C -10.454200 -15.913800 -74.019800
H -10.434300 -19.529300 -68.089600
H -10.229500 -15.255300 -74.637000
C -10.224300 -20.855200 -71.199500
C -10.131900 -20.649500 -69.808400
C -9.817800 -20.172100 -74.053000
C -9.779400 -18.025200 -75.159300
H -9.762400 -21.361200 -69.338300
H -9.498500 -17.549800 -75.909400
C -9.431200 -19.342300 -75.138800
C -9.421600 -21.657400 -72.025600
C -9.409000 -21.337500 -73.374000
H -9.072000 -22.006900 -73.924800
H -8.935900 -19.700600 -75.838200
H -8.924100 -22.367200 -71.688500
30
Fragment
C -7.618700 -26.640200 -70.289800
C -7.569200 -25.704100 -71.276900
C -7.479000 -27.861700 -70.867200
H -7.374800 -27.329200 -73.810900
C -7.331900 -27.167800 -72.894500
C -7.323100 -28.334200 -72.168100
C -7.293500 -25.795600 -72.619100
C -7.285400 -26.056500 -69.146500
H -7.235800 -29.210300 -72.467200
C -7.210700 -24.517000 -70.710500
H -7.171500 -29.493800 -69.922300
C -7.136800 -28.582300 -69.737200
C -7.019300 -24.757100 -69.364900
C -6.805600 -24.736500 -73.421500
C -6.778300 -26.980800 -68.184600
C -6.758300 -28.381500 -68.417200
H -6.738400 -24.766000 -74.347400
H -6.533600 -29.040000 -67.800000
C -6.528400 -23.440100 -71.237500
C -6.436000 -23.645800 -72.628600
C -6.121900 -24.123200 -68.384000
C -6.083500 -26.270100 -67.277700
H -6.066500 -22.934100 -73.098700
H -5.802600 -26.745500 -66.527600
C -5.735300 -24.953000 -67.298200
C -5.725700 -22.637900 -70.411400
C -5.713100 -22.957800 -69.063000
H -5.376100 -22.288400 -68.512200
H -5.240000 -24.594700 -66.598800
H -5.228200 -21.928100 -70.748500
60
Fragment
C -11.314600 -17.655100 -72.147200
C -11.265100 -18.591200 -71.160100
C -11.174900 -16.433600 -71.569800
H -11.070700 -16.966100 -68.626100
C -11.027800 -17.127500 -69.542500
C -11.019000 -15.961100 -70.268900
C -10.989400 -18.499700 -69.817900
C -10.981300 -18.238800 -73.290500
H -10.931700 -15.085000 -69.969800
C -10.906600 -19.778300 -71.726500
H -10.867400 -14.801500 -72.514700
C -10.832700 -15.713000 -72.699800
C -10.715200 -19.538200 -73.072100
C -10.501500 -19.558800 -69.015500
C -10.474200 -17.314500 -74.252400
C -10.454200 -15.913800 -74.019800
H -10.434300 -19.529300 -68.089600
H -10.229500 -15.255300 -74.637000
C -10.224300 -20.855200 -71.199500
C -10.131900 -20.649500 -69.808400
C -9.817800 -20.172100 -74.053000
C -9.779400 -18.025200 -75.159300
H -9.762400 -21.361200 -69.338300
H -9.498500 -17.549800 -75.909400
C -9.431200 -19.342300 -75.138800
C -9.421600 -21.657400 -72.025600
C -9.409000 -21.337500 -73.374000
H -9.072000 -22.006900 -73.924800
H -8.935900 -19.700600 -75.838200
H -8.924100 -22.367200 -71.688500
C -7.618700 -26.640200 -70.289800
C -7.569200 -25.704100 -71.276900
C -7.479000 -27.861700 -70.867200
H -7.374800 -27.329200 -73.810900
C -7.331900 -27.167800 -72.894500
C -7.323100 -28.334200 -72.168100
C -7.293500 -25.795600 -72.619100
C -7.285400 -26.056500 -69.146500
H -7.235800 -29.210300 -72.467200
C -7.210700 -24.517000 -70.710500
H -7.171500 -29.493800 -69.922300
C -7.136800 -28.582300 -69.737200
C -7.019300 -24.757100 -69.364900
C -6.805600 -24.736500 -73.421500
C -6.778300 -26.980800 -68.184600
C -6.758300 -28.381500 -68.417200
H -6.738400 -24.766000 -74.347400
H -6.533600 -29.040000 -67.800000
C -6.528400 -23.440100 -71.237500
C -6.436000 -23.645800 -72.628600
C -6.121900 -24.123200 -68.384000
C -6.083500 -26.270100 -67.277700
H -6.066500 -22.934100 -73.098700
H -5.802600 -26.745500 -66.527600
C -5.735300 -24.953000 -67.298200
C -5.725700 -22.637900 -70.411400
C -5.713100 -22.957800 -69.063000
H -5.376100 -22.288400 -68.512200
H -5.240000 -24.594700 -66.598800
H -5.228200 -21.928100 -70.748500
