30
Fragment
C -11.314600 -17.655100 -72.147200
C -11.265100 -18.591200 -71.160100
C -11.174900 -16.433600 -71.569800
H -11.070700 -16.966100 -68.626100
C -11.027800 -17.127500 -69.542500
C -11.019000 -15.961100 -70.268900
C -10.989400 -18.499700 -69.817900
C -10.981300 -18.238800 -73.290500
H -10.931700 -15.085000 -69.969800
C -10.906600 -19.778300 -71.726500
H -10.867400 -14.801500 -72.514700
C -10.832700 -15.713000 -72.699800
C -10.715200 -19.538200 -73.072100
C -10.501500 -19.558800 -69.015500
C -10.474200 -17.314500 -74.252400
C -10.454200 -15.913800 -74.019800
H -10.434300 -19.529300 -68.089600
H -10.229500 -15.255300 -74.637000
C -10.224300 -20.855200 -71.199500
C -10.131900 -20.649500 -69.808400
C -9.817800 -20.172100 -74.053000
C -9.779400 -18.025200 -75.159300
H -9.762400 -21.361200 -69.338300
H -9.498500 -17.549800 -75.909400
C -9.431200 -19.342300 -75.138800
C -9.421600 -21.657400 -72.025600
C -9.409000 -21.337500 -73.374000
H -9.072000 -22.006900 -73.924800
H -8.935900 -19.700600 -75.838200
H -8.924100 -22.367200 -71.688500
30
Fragment
C -15.010500 -16.796800 -70.289800
C -14.961000 -15.860700 -71.276900
C -14.870800 -18.018300 -70.867200
H -14.766600 -17.485800 -73.810900
C -14.723700 -17.324400 -72.894500
C -14.714900 -18.490800 -72.168100
C -14.685300 -15.952200 -72.619100
C -14.677200 -16.213100 -69.146500
H -14.627600 -19.366900 -72.467200
C -14.602500 -14.673600 -70.710500
H -14.563300 -19.650400 -69.922300
C -14.528600 -18.738900 -69.737200
C -14.411100 -14.913700 -69.364900
C -14.197400 -14.893100 -73.421500
C -14.170100 -17.137400 -68.184600
C -14.150100 -18.538100 -68.417200
H -14.130200 -14.922600 -74.347400
H -13.925400 -19.196600 -67.800000
C -13.920200 -13.596700 -71.237500
C -13.827800 -13.802400 -72.628600
C -13.513700 -14.279800 -68.384000
C -13.475300 -16.426700 -67.277700
H -13.458300 -13.090700 -73.098700
H -13.194400 -16.902100 -66.527600
C -13.127100 -15.109600 -67.298200
C -13.117500 -12.794500 -70.411400
C -13.104900 -13.114400 -69.063000
H -12.767900 -12.445000 -68.512200
H -12.631800 -14.751300 -66.598800
H -12.620000 -12.084700 -70.748500
60
Fragment
C -11.314600 -17.655100 -72.147200
C -11.265100 -18.591200 -71.160100
C -11.174900 -16.433600 -71.569800
H -11.070700 -16.966100 -68.626100
C -11.027800 -17.127500 -69.542500
C -11.019000 -15.961100 -70.268900
C -10.989400 -18.499700 -69.817900
C -10.981300 -18.238800 -73.290500
H -10.931700 -15.085000 -69.969800
C -10.906600 -19.778300 -71.726500
H -10.867400 -14.801500 -72.514700
C -10.832700 -15.713000 -72.699800
C -10.715200 -19.538200 -73.072100
C -10.501500 -19.558800 -69.015500
C -10.474200 -17.314500 -74.252400
C -10.454200 -15.913800 -74.019800
H -10.434300 -19.529300 -68.089600
H -10.229500 -15.255300 -74.637000
C -10.224300 -20.855200 -71.199500
C -10.131900 -20.649500 -69.808400
C -9.817800 -20.172100 -74.053000
C -9.779400 -18.025200 -75.159300
H -9.762400 -21.361200 -69.338300
H -9.498500 -17.549800 -75.909400
C -9.431200 -19.342300 -75.138800
C -9.421600 -21.657400 -72.025600
C -9.409000 -21.337500 -73.374000
H -9.072000 -22.006900 -73.924800
H -8.935900 -19.700600 -75.838200
H -8.924100 -22.367200 -71.688500
C -15.010500 -16.796800 -70.289800
C -14.961000 -15.860700 -71.276900
C -14.870800 -18.018300 -70.867200
H -14.766600 -17.485800 -73.810900
C -14.723700 -17.324400 -72.894500
C -14.714900 -18.490800 -72.168100
C -14.685300 -15.952200 -72.619100
C -14.677200 -16.213100 -69.146500
H -14.627600 -19.366900 -72.467200
C -14.602500 -14.673600 -70.710500
H -14.563300 -19.650400 -69.922300
C -14.528600 -18.738900 -69.737200
C -14.411100 -14.913700 -69.364900
C -14.197400 -14.893100 -73.421500
C -14.170100 -17.137400 -68.184600
C -14.150100 -18.538100 -68.417200
H -14.130200 -14.922600 -74.347400
H -13.925400 -19.196600 -67.800000
C -13.920200 -13.596700 -71.237500
C -13.827800 -13.802400 -72.628600
C -13.513700 -14.279800 -68.384000
C -13.475300 -16.426700 -67.277700
H -13.458300 -13.090700 -73.098700
H -13.194400 -16.902100 -66.527600
C -13.127100 -15.109600 -67.298200
C -13.117500 -12.794500 -70.411400
C -13.104900 -13.114400 -69.063000
H -12.767900 -12.445000 -68.512200
H -12.631800 -14.751300 -66.598800
H -12.620000 -12.084700 -70.748500
