30
Fragment
C -11.314600 -17.655100 -72.147200
C -11.265100 -18.591200 -71.160100
C -11.174900 -16.433600 -71.569800
H -11.070700 -16.966100 -68.626100
C -11.027800 -17.127500 -69.542500
C -11.019000 -15.961100 -70.268900
C -10.989400 -18.499700 -69.817900
C -10.981300 -18.238800 -73.290500
H -10.931700 -15.085000 -69.969800
C -10.906600 -19.778300 -71.726500
H -10.867400 -14.801500 -72.514700
C -10.832700 -15.713000 -72.699800
C -10.715200 -19.538200 -73.072100
C -10.501500 -19.558800 -69.015500
C -10.474200 -17.314500 -74.252400
C -10.454200 -15.913800 -74.019800
H -10.434300 -19.529300 -68.089600
H -10.229500 -15.255300 -74.637000
C -10.224300 -20.855200 -71.199500
C -10.131900 -20.649500 -69.808400
C -9.817800 -20.172100 -74.053000
C -9.779400 -18.025200 -75.159300
H -9.762400 -21.361200 -69.338300
H -9.498500 -17.549800 -75.909400
C -9.431200 -19.342300 -75.138800
C -9.421600 -21.657400 -72.025600
C -9.409000 -21.337500 -73.374000
H -9.072000 -22.006900 -73.924800
H -8.935900 -19.700600 -75.838200
H -8.924100 -22.367200 -71.688500
30
Fragment
C -10.874100 -14.372300 -62.739200
C -10.769900 -15.317300 -61.746900
H -10.717400 -17.366700 -61.651500
C -10.700400 -14.634200 -64.118000
C -10.666400 -16.658000 -62.252100
C -10.606500 -13.002100 -62.533200
H -10.542200 -15.322200 -59.709600
C -10.517100 -14.759200 -60.446900
C -10.492700 -16.935600 -63.595700
H -10.433500 -17.821500 -63.873500
C -10.401700 -15.885300 -64.579500
C -10.333000 -13.424400 -64.759900
C -10.262800 -12.425300 -63.789900
C -10.239100 -13.422500 -60.248500
C -10.202200 -12.478500 -61.345700
H -10.069800 -13.119300 -59.386700
C -9.784500 -15.858700 -65.908900
H -9.630000 -16.666800 -66.342400
C -9.609300 -13.375200 -65.933100
C -9.567200 -11.188000 -61.431700
C -9.499900 -11.285500 -63.908200
C -9.423800 -14.695200 -66.547000
H -9.374300 -10.725400 -60.649700
C -9.238300 -10.623000 -62.640500
H -9.048300 -14.747400 -67.396400
C -8.978800 -12.112300 -66.166700
C -8.916700 -11.101400 -65.199100
H -8.833200 -9.786300 -62.648500
H -8.593000 -11.954800 -66.997600
H -8.490200 -10.300100 -65.397600
60
Fragment
C -11.314600 -17.655100 -72.147200
C -11.265100 -18.591200 -71.160100
C -11.174900 -16.433600 -71.569800
H -11.070700 -16.966100 -68.626100
C -11.027800 -17.127500 -69.542500
C -11.019000 -15.961100 -70.268900
C -10.989400 -18.499700 -69.817900
C -10.981300 -18.238800 -73.290500
H -10.931700 -15.085000 -69.969800
C -10.906600 -19.778300 -71.726500
H -10.867400 -14.801500 -72.514700
C -10.832700 -15.713000 -72.699800
C -10.715200 -19.538200 -73.072100
C -10.501500 -19.558800 -69.015500
C -10.474200 -17.314500 -74.252400
C -10.454200 -15.913800 -74.019800
H -10.434300 -19.529300 -68.089600
H -10.229500 -15.255300 -74.637000
C -10.224300 -20.855200 -71.199500
C -10.131900 -20.649500 -69.808400
C -9.817800 -20.172100 -74.053000
C -9.779400 -18.025200 -75.159300
H -9.762400 -21.361200 -69.338300
H -9.498500 -17.549800 -75.909400
C -9.431200 -19.342300 -75.138800
C -9.421600 -21.657400 -72.025600
C -9.409000 -21.337500 -73.374000
H -9.072000 -22.006900 -73.924800
H -8.935900 -19.700600 -75.838200
H -8.924100 -22.367200 -71.688500
C -10.874100 -14.372300 -62.739200
C -10.769900 -15.317300 -61.746900
H -10.717400 -17.366700 -61.651500
C -10.700400 -14.634200 -64.118000
C -10.666400 -16.658000 -62.252100
C -10.606500 -13.002100 -62.533200
H -10.542200 -15.322200 -59.709600
C -10.517100 -14.759200 -60.446900
C -10.492700 -16.935600 -63.595700
H -10.433500 -17.821500 -63.873500
C -10.401700 -15.885300 -64.579500
C -10.333000 -13.424400 -64.759900
C -10.262800 -12.425300 -63.789900
C -10.239100 -13.422500 -60.248500
C -10.202200 -12.478500 -61.345700
H -10.069800 -13.119300 -59.386700
C -9.784500 -15.858700 -65.908900
H -9.630000 -16.666800 -66.342400
C -9.609300 -13.375200 -65.933100
C -9.567200 -11.188000 -61.431700
C -9.499900 -11.285500 -63.908200
C -9.423800 -14.695200 -66.547000
H -9.374300 -10.725400 -60.649700
C -9.238300 -10.623000 -62.640500
H -9.048300 -14.747400 -67.396400
C -8.978800 -12.112300 -66.166700
C -8.916700 -11.101400 -65.199100
H -8.833200 -9.786300 -62.648500
H -8.593000 -11.954800 -66.997600
H -8.490200 -10.300100 -65.397600
