30
Fragment
C -11.314600 -17.655100 -72.147200
C -11.265100 -18.591200 -71.160100
C -11.174900 -16.433600 -71.569800
H -11.070700 -16.966100 -68.626100
C -11.027800 -17.127500 -69.542500
C -11.019000 -15.961100 -70.268900
C -10.989400 -18.499700 -69.817900
C -10.981300 -18.238800 -73.290500
H -10.931700 -15.085000 -69.969800
C -10.906600 -19.778300 -71.726500
H -10.867400 -14.801500 -72.514700
C -10.832700 -15.713000 -72.699800
C -10.715200 -19.538200 -73.072100
C -10.501500 -19.558800 -69.015500
C -10.474200 -17.314500 -74.252400
C -10.454200 -15.913800 -74.019800
H -10.434300 -19.529300 -68.089600
H -10.229500 -15.255300 -74.637000
C -10.224300 -20.855200 -71.199500
C -10.131900 -20.649500 -69.808400
C -9.817800 -20.172100 -74.053000
C -9.779400 -18.025200 -75.159300
H -9.762400 -21.361200 -69.338300
H -9.498500 -17.549800 -75.909400
C -9.431200 -19.342300 -75.138800
C -9.421600 -21.657400 -72.025600
C -9.409000 -21.337500 -73.374000
H -9.072000 -22.006900 -73.924800
H -8.935900 -19.700600 -75.838200
H -8.924100 -22.367200 -71.688500
30
Fragment
C -11.314600 -27.498500 -72.147200
C -11.265100 -28.434600 -71.160100
C -11.174900 -26.277000 -71.569800
H -11.070700 -26.809500 -68.626100
C -11.027800 -26.970900 -69.542500
C -11.019000 -25.804500 -70.268900
C -10.989400 -28.343100 -69.817900
C -10.981300 -28.082200 -73.290500
H -10.931700 -24.928400 -69.969800
C -10.906600 -29.621700 -71.726500
H -10.867400 -24.644900 -72.514700
C -10.832700 -25.556400 -72.699800
C -10.715200 -29.381600 -73.072100
C -10.501500 -29.402200 -69.015500
C -10.474200 -27.157900 -74.252400
C -10.454200 -25.757200 -74.019800
H -10.434300 -29.372700 -68.089600
H -10.229500 -25.098700 -74.637000
C -10.224300 -30.698600 -71.199500
C -10.131900 -30.492900 -69.808400
C -9.817800 -30.015500 -74.053000
C -9.779400 -27.868600 -75.159300
H -9.762400 -31.204600 -69.338300
H -9.498500 -27.393200 -75.909400
C -9.431200 -29.185700 -75.138800
C -9.421600 -31.500800 -72.025600
C -9.409000 -31.180900 -73.374000
H -9.072000 -31.850300 -73.924800
H -8.935900 -29.544000 -75.838200
H -8.924100 -32.210600 -71.688500
60
Fragment
C -11.314600 -17.655100 -72.147200
C -11.265100 -18.591200 -71.160100
C -11.174900 -16.433600 -71.569800
H -11.070700 -16.966100 -68.626100
C -11.027800 -17.127500 -69.542500
C -11.019000 -15.961100 -70.268900
C -10.989400 -18.499700 -69.817900
C -10.981300 -18.238800 -73.290500
H -10.931700 -15.085000 -69.969800
C -10.906600 -19.778300 -71.726500
H -10.867400 -14.801500 -72.514700
C -10.832700 -15.713000 -72.699800
C -10.715200 -19.538200 -73.072100
C -10.501500 -19.558800 -69.015500
C -10.474200 -17.314500 -74.252400
C -10.454200 -15.913800 -74.019800
H -10.434300 -19.529300 -68.089600
H -10.229500 -15.255300 -74.637000
C -10.224300 -20.855200 -71.199500
C -10.131900 -20.649500 -69.808400
C -9.817800 -20.172100 -74.053000
C -9.779400 -18.025200 -75.159300
H -9.762400 -21.361200 -69.338300
H -9.498500 -17.549800 -75.909400
C -9.431200 -19.342300 -75.138800
C -9.421600 -21.657400 -72.025600
C -9.409000 -21.337500 -73.374000
H -9.072000 -22.006900 -73.924800
H -8.935900 -19.700600 -75.838200
H -8.924100 -22.367200 -71.688500
C -11.314600 -27.498500 -72.147200
C -11.265100 -28.434600 -71.160100
C -11.174900 -26.277000 -71.569800
H -11.070700 -26.809500 -68.626100
C -11.027800 -26.970900 -69.542500
C -11.019000 -25.804500 -70.268900
C -10.989400 -28.343100 -69.817900
C -10.981300 -28.082200 -73.290500
H -10.931700 -24.928400 -69.969800
C -10.906600 -29.621700 -71.726500
H -10.867400 -24.644900 -72.514700
C -10.832700 -25.556400 -72.699800
C -10.715200 -29.381600 -73.072100
C -10.501500 -29.402200 -69.015500
C -10.474200 -27.157900 -74.252400
C -10.454200 -25.757200 -74.019800
H -10.434300 -29.372700 -68.089600
H -10.229500 -25.098700 -74.637000
C -10.224300 -30.698600 -71.199500
C -10.131900 -30.492900 -69.808400
C -9.817800 -30.015500 -74.053000
C -9.779400 -27.868600 -75.159300
H -9.762400 -31.204600 -69.338300
H -9.498500 -27.393200 -75.909400
C -9.431200 -29.185700 -75.138800
C -9.421600 -31.500800 -72.025600
C -9.409000 -31.180900 -73.374000
H -9.072000 -31.850300 -73.924800
H -8.935900 -29.544000 -75.838200
H -8.924100 -32.210600 -71.688500
