30
Fragment
C -11.314600 -17.655100 -72.147200
C -11.265100 -18.591200 -71.160100
C -11.174900 -16.433600 -71.569800
H -11.070700 -16.966100 -68.626100
C -11.027800 -17.127500 -69.542500
C -11.019000 -15.961100 -70.268900
C -10.989400 -18.499700 -69.817900
C -10.981300 -18.238800 -73.290500
H -10.931700 -15.085000 -69.969800
C -10.906600 -19.778300 -71.726500
H -10.867400 -14.801500 -72.514700
C -10.832700 -15.713000 -72.699800
C -10.715200 -19.538200 -73.072100
C -10.501500 -19.558800 -69.015500
C -10.474200 -17.314500 -74.252400
C -10.454200 -15.913800 -74.019800
H -10.434300 -19.529300 -68.089600
H -10.229500 -15.255300 -74.637000
C -10.224300 -20.855200 -71.199500
C -10.131900 -20.649500 -69.808400
C -9.817800 -20.172100 -74.053000
C -9.779400 -18.025200 -75.159300
H -9.762400 -21.361200 -69.338300
H -9.498500 -17.549800 -75.909400
C -9.431200 -19.342300 -75.138800
C -9.421600 -21.657400 -72.025600
C -9.409000 -21.337500 -73.374000
H -9.072000 -22.006900 -73.924800
H -8.935900 -19.700600 -75.838200
H -8.924100 -22.367200 -71.688500
30
Fragment
C -10.874100 -24.215700 -62.739200
C -10.769900 -25.160700 -61.746900
H -10.717400 -27.210100 -61.651500
C -10.700400 -24.477600 -64.118000
C -10.666400 -26.501400 -62.252100
C -10.606500 -22.845500 -62.533200
H -10.542200 -25.165600 -59.709600
C -10.517100 -24.602600 -60.446900
C -10.492700 -26.779000 -63.595700
H -10.433500 -27.664900 -63.873500
C -10.401700 -25.728700 -64.579500
C -10.333000 -23.267800 -64.759900
C -10.262800 -22.268700 -63.789900
C -10.239100 -23.265900 -60.248500
C -10.202200 -22.321900 -61.345700
H -10.069800 -22.962700 -59.386700
C -9.784500 -25.702100 -65.908900
H -9.630000 -26.510200 -66.342400
C -9.609300 -23.218600 -65.933100
C -9.567200 -21.031400 -61.431700
C -9.499900 -21.128900 -63.908200
C -9.423800 -24.538600 -66.547000
H -9.374300 -20.568800 -60.649700
C -9.238300 -20.466400 -62.640500
H -9.048300 -24.590800 -67.396400
C -8.978800 -21.955700 -66.166700
C -8.916700 -20.944800 -65.199100
H -8.833200 -19.629700 -62.648500
H -8.593000 -21.798200 -66.997600
H -8.490200 -20.143500 -65.397600
60
Fragment
C -11.314600 -17.655100 -72.147200
C -11.265100 -18.591200 -71.160100
C -11.174900 -16.433600 -71.569800
H -11.070700 -16.966100 -68.626100
C -11.027800 -17.127500 -69.542500
C -11.019000 -15.961100 -70.268900
C -10.989400 -18.499700 -69.817900
C -10.981300 -18.238800 -73.290500
H -10.931700 -15.085000 -69.969800
C -10.906600 -19.778300 -71.726500
H -10.867400 -14.801500 -72.514700
C -10.832700 -15.713000 -72.699800
C -10.715200 -19.538200 -73.072100
C -10.501500 -19.558800 -69.015500
C -10.474200 -17.314500 -74.252400
C -10.454200 -15.913800 -74.019800
H -10.434300 -19.529300 -68.089600
H -10.229500 -15.255300 -74.637000
C -10.224300 -20.855200 -71.199500
C -10.131900 -20.649500 -69.808400
C -9.817800 -20.172100 -74.053000
C -9.779400 -18.025200 -75.159300
H -9.762400 -21.361200 -69.338300
H -9.498500 -17.549800 -75.909400
C -9.431200 -19.342300 -75.138800
C -9.421600 -21.657400 -72.025600
C -9.409000 -21.337500 -73.374000
H -9.072000 -22.006900 -73.924800
H -8.935900 -19.700600 -75.838200
H -8.924100 -22.367200 -71.688500
C -10.874100 -24.215700 -62.739200
C -10.769900 -25.160700 -61.746900
H -10.717400 -27.210100 -61.651500
C -10.700400 -24.477600 -64.118000
C -10.666400 -26.501400 -62.252100
C -10.606500 -22.845500 -62.533200
H -10.542200 -25.165600 -59.709600
C -10.517100 -24.602600 -60.446900
C -10.492700 -26.779000 -63.595700
H -10.433500 -27.664900 -63.873500
C -10.401700 -25.728700 -64.579500
C -10.333000 -23.267800 -64.759900
C -10.262800 -22.268700 -63.789900
C -10.239100 -23.265900 -60.248500
C -10.202200 -22.321900 -61.345700
H -10.069800 -22.962700 -59.386700
C -9.784500 -25.702100 -65.908900
H -9.630000 -26.510200 -66.342400
C -9.609300 -23.218600 -65.933100
C -9.567200 -21.031400 -61.431700
C -9.499900 -21.128900 -63.908200
C -9.423800 -24.538600 -66.547000
H -9.374300 -20.568800 -60.649700
C -9.238300 -20.466400 -62.640500
H -9.048300 -24.590800 -67.396400
C -8.978800 -21.955700 -66.166700
C -8.916700 -20.944800 -65.199100
H -8.833200 -19.629700 -62.648500
H -8.593000 -21.798200 -66.997600
H -8.490200 -20.143500 -65.397600
