30
Fragment
C -11.314600 -17.655100 -72.147200
C -11.265100 -18.591200 -71.160100
C -11.174900 -16.433600 -71.569800
H -11.070700 -16.966100 -68.626100
C -11.027800 -17.127500 -69.542500
C -11.019000 -15.961100 -70.268900
C -10.989400 -18.499700 -69.817900
C -10.981300 -18.238800 -73.290500
H -10.931700 -15.085000 -69.969800
C -10.906600 -19.778300 -71.726500
H -10.867400 -14.801500 -72.514700
C -10.832700 -15.713000 -72.699800
C -10.715200 -19.538200 -73.072100
C -10.501500 -19.558800 -69.015500
C -10.474200 -17.314500 -74.252400
C -10.454200 -15.913800 -74.019800
H -10.434300 -19.529300 -68.089600
H -10.229500 -15.255300 -74.637000
C -10.224300 -20.855200 -71.199500
C -10.131900 -20.649500 -69.808400
C -9.817800 -20.172100 -74.053000
C -9.779400 -18.025200 -75.159300
H -9.762400 -21.361200 -69.338300
H -9.498500 -17.549800 -75.909400
C -9.431200 -19.342300 -75.138800
C -9.421600 -21.657400 -72.025600
C -9.409000 -21.337500 -73.374000
H -9.072000 -22.006900 -73.924800
H -8.935900 -19.700600 -75.838200
H -8.924100 -22.367200 -71.688500
20
Fragment
N -11.418900 -17.351900 -82.444400
C -11.214100 -17.735800 -81.398000
C -10.987200 -18.218200 -80.048600
C -10.987200 -17.243700 -79.009300
N -10.978300 -16.455200 -78.149000
H -10.848200 -20.283300 -81.706600
C -10.751400 -19.542100 -79.781300
C -10.651600 -20.519600 -80.829200
H -10.650800 -19.358000 -77.723100
C -10.530400 -19.965400 -78.416800
C -10.276800 -21.773600 -80.540500
H -10.221400 -22.397700 -81.227100
C -10.154100 -21.221400 -78.139000
H -10.019600 -21.477300 -77.253100
C -9.957500 -22.180100 -79.199700
C -9.468200 -23.429300 -78.929600
C -9.244200 -24.386000 -79.972700
N -9.086700 -25.129200 -80.825400
C -9.077100 -23.822000 -77.608700
N -8.735600 -24.101600 -76.536600
50
Fragment
C -11.314600 -17.655100 -72.147200
C -11.265100 -18.591200 -71.160100
C -11.174900 -16.433600 -71.569800
H -11.070700 -16.966100 -68.626100
C -11.027800 -17.127500 -69.542500
C -11.019000 -15.961100 -70.268900
C -10.989400 -18.499700 -69.817900
C -10.981300 -18.238800 -73.290500
H -10.931700 -15.085000 -69.969800
C -10.906600 -19.778300 -71.726500
H -10.867400 -14.801500 -72.514700
C -10.832700 -15.713000 -72.699800
C -10.715200 -19.538200 -73.072100
C -10.501500 -19.558800 -69.015500
C -10.474200 -17.314500 -74.252400
C -10.454200 -15.913800 -74.019800
H -10.434300 -19.529300 -68.089600
H -10.229500 -15.255300 -74.637000
C -10.224300 -20.855200 -71.199500
C -10.131900 -20.649500 -69.808400
C -9.817800 -20.172100 -74.053000
C -9.779400 -18.025200 -75.159300
H -9.762400 -21.361200 -69.338300
H -9.498500 -17.549800 -75.909400
C -9.431200 -19.342300 -75.138800
C -9.421600 -21.657400 -72.025600
C -9.409000 -21.337500 -73.374000
H -9.072000 -22.006900 -73.924800
H -8.935900 -19.700600 -75.838200
H -8.924100 -22.367200 -71.688500
N -11.418900 -17.351900 -82.444400
C -11.214100 -17.735800 -81.398000
C -10.987200 -18.218200 -80.048600
C -10.987200 -17.243700 -79.009300
N -10.978300 -16.455200 -78.149000
H -10.848200 -20.283300 -81.706600
C -10.751400 -19.542100 -79.781300
C -10.651600 -20.519600 -80.829200
H -10.650800 -19.358000 -77.723100
C -10.530400 -19.965400 -78.416800
C -10.276800 -21.773600 -80.540500
H -10.221400 -22.397700 -81.227100
C -10.154100 -21.221400 -78.139000
H -10.019600 -21.477300 -77.253100
C -9.957500 -22.180100 -79.199700
C -9.468200 -23.429300 -78.929600
C -9.244200 -24.386000 -79.972700
N -9.086700 -25.129200 -80.825400
C -9.077100 -23.822000 -77.608700
N -8.735600 -24.101600 -76.536600
