13
Fragment
O -8.874100 -22.020400 -9.108600
O -8.409400 -24.103800 -9.258400
N -8.179100 -22.932300 -9.544100
N -7.153000 -22.563300 -10.343100
H -7.014200 -25.340100 -10.339900
N -6.459200 -24.884900 -10.759400
C -6.420800 -23.556400 -10.825300
H -5.569500 -27.203200 -11.193000
C -5.398900 -25.347600 -11.499500
O -5.386800 -23.190700 -11.564400
N -5.174200 -26.652100 -11.667700
N -4.706600 -24.373100 -12.023600
H -4.425900 -26.885400 -12.029300
13
Fragment
O -3.140100 -28.764300 -13.129000
O -2.675500 -26.680800 -13.278800
N -2.445200 -27.852300 -13.564500
N -1.419100 -28.221300 -14.363600
H -1.280300 -25.444600 -14.360300
N -0.725300 -25.899700 -14.779900
C -0.686900 -27.228300 -14.845800
H 0.164400 -23.581500 -15.213500
C 0.335000 -25.437000 -15.520000
O 0.347100 -27.593900 -15.584900
N 0.559700 -24.132600 -15.688200
N 1.027300 -26.411500 -16.044000
H 1.308000 -23.899300 -16.049700
26
Fragment
O -8.874100 -22.020400 -9.108600
O -8.409400 -24.103800 -9.258400
N -8.179100 -22.932300 -9.544100
N -7.153000 -22.563300 -10.343100
H -7.014200 -25.340100 -10.339900
N -6.459200 -24.884900 -10.759400
C -6.420800 -23.556400 -10.825300
H -5.569500 -27.203200 -11.193000
C -5.398900 -25.347600 -11.499500
O -5.386800 -23.190700 -11.564400
N -5.174200 -26.652100 -11.667700
N -4.706600 -24.373100 -12.023600
H -4.425900 -26.885400 -12.029300
O -3.140100 -28.764300 -13.129000
O -2.675500 -26.680800 -13.278800
N -2.445200 -27.852300 -13.564500
N -1.419100 -28.221300 -14.363600
H -1.280300 -25.444600 -14.360300
N -0.725300 -25.899700 -14.779900
C -0.686900 -27.228300 -14.845800
H 0.164400 -23.581500 -15.213500
C 0.335000 -25.437000 -15.520000
O 0.347100 -27.593900 -15.584900
N 0.559700 -24.132600 -15.688200
N 1.027300 -26.411500 -16.044000
H 1.308000 -23.899300 -16.049700
