13
Fragment
O -8.874100 -22.020400 -9.108600
O -8.409400 -24.103800 -9.258400
N -8.179100 -22.932300 -9.544100
N -7.153000 -22.563300 -10.343100
H -7.014200 -25.340100 -10.339900
N -6.459200 -24.884900 -10.759400
C -6.420800 -23.556400 -10.825300
H -5.569500 -27.203200 -11.193000
C -5.398900 -25.347600 -11.499500
O -5.386800 -23.190700 -11.564400
N -5.174200 -26.652100 -11.667700
N -4.706600 -24.373100 -12.023600
H -4.425900 -26.885400 -12.029300
13
Fragment
O -9.155300 -28.764300 -5.088100
O -8.690600 -26.680800 -5.237900
N -8.460300 -27.852300 -5.523600
N -7.434200 -28.221300 -6.322600
H -7.295400 -25.444600 -6.319400
N -6.740400 -25.899700 -6.739000
C -6.702000 -27.228300 -6.804800
H -5.850700 -23.581500 -7.172500
C -5.680100 -25.437000 -7.479100
O -5.668000 -27.593900 -7.543900
N -5.455500 -24.132600 -7.647300
N -4.987800 -26.411500 -8.003100
H -4.707100 -23.899300 -8.008800
26
Fragment
O -8.874100 -22.020400 -9.108600
O -8.409400 -24.103800 -9.258400
N -8.179100 -22.932300 -9.544100
N -7.153000 -22.563300 -10.343100
H -7.014200 -25.340100 -10.339900
N -6.459200 -24.884900 -10.759400
C -6.420800 -23.556400 -10.825300
H -5.569500 -27.203200 -11.193000
C -5.398900 -25.347600 -11.499500
O -5.386800 -23.190700 -11.564400
N -5.174200 -26.652100 -11.667700
N -4.706600 -24.373100 -12.023600
H -4.425900 -26.885400 -12.029300
O -9.155300 -28.764300 -5.088100
O -8.690600 -26.680800 -5.237900
N -8.460300 -27.852300 -5.523600
N -7.434200 -28.221300 -6.322600
H -7.295400 -25.444600 -6.319400
N -6.740400 -25.899700 -6.739000
C -6.702000 -27.228300 -6.804800
H -5.850700 -23.581500 -7.172500
C -5.680100 -25.437000 -7.479100
O -5.668000 -27.593900 -7.543900
N -5.455500 -24.132600 -7.647300
N -4.987800 -26.411500 -8.003100
H -4.707100 -23.899300 -8.008800
