13
Fragment
O -8.874100 -22.020400 -9.108600
O -8.409400 -24.103800 -9.258400
N -8.179100 -22.932300 -9.544100
N -7.153000 -22.563300 -10.343100
H -7.014200 -25.340100 -10.339900
N -6.459200 -24.884900 -10.759400
C -6.420800 -23.556400 -10.825300
H -5.569500 -27.203200 -11.193000
C -5.398900 -25.347600 -11.499500
O -5.386800 -23.190700 -11.564400
N -5.174200 -26.652100 -11.667700
N -4.706600 -24.373100 -12.023600
H -4.425900 -26.885400 -12.029300
13
Fragment
O -3.421400 -22.020400 -9.108600
O -2.956700 -24.103800 -9.258400
N -2.726400 -22.932300 -9.544100
N -1.700300 -22.563300 -10.343100
H -1.561500 -25.340100 -10.339900
N -1.006500 -24.884900 -10.759400
C -0.968100 -23.556400 -10.825300
H -0.116800 -27.203200 -11.193000
C 0.053800 -25.347600 -11.499500
O 0.065900 -23.190700 -11.564400
N 0.278500 -26.652100 -11.667700
N 0.746100 -24.373100 -12.023600
H 1.026800 -26.885400 -12.029300
26
Fragment
O -8.874100 -22.020400 -9.108600
O -8.409400 -24.103800 -9.258400
N -8.179100 -22.932300 -9.544100
N -7.153000 -22.563300 -10.343100
H -7.014200 -25.340100 -10.339900
N -6.459200 -24.884900 -10.759400
C -6.420800 -23.556400 -10.825300
H -5.569500 -27.203200 -11.193000
C -5.398900 -25.347600 -11.499500
O -5.386800 -23.190700 -11.564400
N -5.174200 -26.652100 -11.667700
N -4.706600 -24.373100 -12.023600
H -4.425900 -26.885400 -12.029300
O -3.421400 -22.020400 -9.108600
O -2.956700 -24.103800 -9.258400
N -2.726400 -22.932300 -9.544100
N -1.700300 -22.563300 -10.343100
H -1.561500 -25.340100 -10.339900
N -1.006500 -24.884900 -10.759400
C -0.968100 -23.556400 -10.825300
H -0.116800 -27.203200 -11.193000
C 0.053800 -25.347600 -11.499500
O 0.065900 -23.190700 -11.564400
N 0.278500 -26.652100 -11.667700
N 0.746100 -24.373100 -12.023600
H 1.026800 -26.885400 -12.029300
