13
Fragment
O -8.874100 -22.020400 -9.108600
O -8.409400 -24.103800 -9.258400
N -8.179100 -22.932300 -9.544100
N -7.153000 -22.563300 -10.343100
H -7.014200 -25.340100 -10.339900
N -6.459200 -24.884900 -10.759400
C -6.420800 -23.556400 -10.825300
H -5.569500 -27.203200 -11.193000
C -5.398900 -25.347600 -11.499500
O -5.386800 -23.190700 -11.564400
N -5.174200 -26.652100 -11.667700
N -4.706600 -24.373100 -12.023600
H -4.425900 -26.885400 -12.029300
13
Fragment
H -10.526100 -19.630400 -8.073100
N -10.245500 -17.118200 -8.078800
N -9.777800 -19.397100 -8.434600
O -9.565300 -15.935800 -8.538000
C -9.553100 -18.092700 -8.602900
H -9.382500 -19.948200 -8.909400
C -8.531300 -16.301400 -9.277100
N -8.492800 -17.630000 -9.342900
H -7.937900 -18.085100 -9.762500
N -7.799000 -15.308400 -9.759300
N -6.772900 -15.677400 -10.558300
O -6.542600 -16.848900 -10.844000
O -6.078000 -14.765400 -10.993800
26
Fragment
O -8.874100 -22.020400 -9.108600
O -8.409400 -24.103800 -9.258400
N -8.179100 -22.932300 -9.544100
N -7.153000 -22.563300 -10.343100
H -7.014200 -25.340100 -10.339900
N -6.459200 -24.884900 -10.759400
C -6.420800 -23.556400 -10.825300
H -5.569500 -27.203200 -11.193000
C -5.398900 -25.347600 -11.499500
O -5.386800 -23.190700 -11.564400
N -5.174200 -26.652100 -11.667700
N -4.706600 -24.373100 -12.023600
H -4.425900 -26.885400 -12.029300
H -10.526100 -19.630400 -8.073100
N -10.245500 -17.118200 -8.078800
N -9.777800 -19.397100 -8.434600
O -9.565300 -15.935800 -8.538000
C -9.553100 -18.092700 -8.602900
H -9.382500 -19.948200 -8.909400
C -8.531300 -16.301400 -9.277100
N -8.492800 -17.630000 -9.342900
H -7.937900 -18.085100 -9.762500
N -7.799000 -15.308400 -9.759300
N -6.772900 -15.677400 -10.558300
O -6.542600 -16.848900 -10.844000
O -6.078000 -14.765400 -10.993800
