24
Fragment
H -13.019200 -12.639500 -34.993400
H -12.807000 -11.124400 -35.464100
C -12.408700 -11.873000 -34.972800
H -12.250500 -11.606700 -34.042700
N -11.146500 -12.242400 -35.592400
N -11.112300 -10.373200 -37.135500
O -10.944800 -14.045800 -34.245300
C -10.613800 -11.516800 -36.612400
C -10.497600 -13.368100 -35.144600
H -10.329000 -9.281300 -38.640900
C -10.239100 -10.048700 -38.087400
C -9.446100 -11.877800 -37.227600
N -9.290500 -13.688400 -35.765300
H -9.258300 -15.627200 -35.218300
N -9.224200 -10.911800 -38.187100
C -8.695900 -13.008900 -36.823000
C -8.618300 -14.885900 -35.259800
H -8.265800 -14.708300 -34.362700
H -8.252700 -10.068200 -39.730800
H -8.173600 -11.666400 -39.723800
C -8.145400 -10.861700 -39.165400
H -7.881000 -15.124600 -35.860600
O -7.623200 -13.384800 -37.284600
H -7.284100 -10.817800 -38.701200
20
Fragment
H -6.372600 -13.157000 -38.592200
O -5.743300 -12.980900 -39.178000
H -5.697200 -15.105500 -37.660000
C -4.922800 -15.019900 -38.204000
C -4.800600 -13.944900 -39.074100
H -4.005200 -16.698300 -37.530200
C -3.916800 -15.966100 -38.128500
C -3.679100 -13.832400 -39.886100
H -3.599300 -13.105900 -40.493700
C -2.774300 -15.857900 -38.921300
C -2.683300 -14.782100 -39.806100
H -2.109400 -17.832300 -37.198600
H -1.919000 -14.703000 -40.363800
C -1.663600 -16.793000 -38.831300
C -1.470400 -17.720900 -37.892400
H -1.005600 -16.736600 -39.515100
C -0.272900 -18.570100 -37.928100
O -0.208600 -19.393200 -36.875600
H 0.569600 -19.887200 -36.938900
O 0.574000 -18.549300 -38.791600
44
Fragment
H -13.019200 -12.639500 -34.993400
H -12.807000 -11.124400 -35.464100
C -12.408700 -11.873000 -34.972800
H -12.250500 -11.606700 -34.042700
N -11.146500 -12.242400 -35.592400
N -11.112300 -10.373200 -37.135500
O -10.944800 -14.045800 -34.245300
C -10.613800 -11.516800 -36.612400
C -10.497600 -13.368100 -35.144600
H -10.329000 -9.281300 -38.640900
C -10.239100 -10.048700 -38.087400
C -9.446100 -11.877800 -37.227600
N -9.290500 -13.688400 -35.765300
H -9.258300 -15.627200 -35.218300
N -9.224200 -10.911800 -38.187100
C -8.695900 -13.008900 -36.823000
C -8.618300 -14.885900 -35.259800
H -8.265800 -14.708300 -34.362700
H -8.252700 -10.068200 -39.730800
H -8.173600 -11.666400 -39.723800
C -8.145400 -10.861700 -39.165400
H -7.881000 -15.124600 -35.860600
O -7.623200 -13.384800 -37.284600
H -7.284100 -10.817800 -38.701200
H -6.372600 -13.157000 -38.592200
O -5.743300 -12.980900 -39.178000
H -5.697200 -15.105500 -37.660000
C -4.922800 -15.019900 -38.204000
C -4.800600 -13.944900 -39.074100
H -4.005200 -16.698300 -37.530200
C -3.916800 -15.966100 -38.128500
C -3.679100 -13.832400 -39.886100
H -3.599300 -13.105900 -40.493700
C -2.774300 -15.857900 -38.921300
C -2.683300 -14.782100 -39.806100
H -2.109400 -17.832300 -37.198600
H -1.919000 -14.703000 -40.363800
C -1.663600 -16.793000 -38.831300
C -1.470400 -17.720900 -37.892400
H -1.005600 -16.736600 -39.515100
C -0.272900 -18.570100 -37.928100
O -0.208600 -19.393200 -36.875600
H 0.569600 -19.887200 -36.938900
O 0.574000 -18.549300 -38.791600
