24
Fragment
H -13.019200 -12.639500 -34.993400
H -12.807000 -11.124400 -35.464100
C -12.408700 -11.873000 -34.972800
H -12.250500 -11.606700 -34.042700
N -11.146500 -12.242400 -35.592400
N -11.112300 -10.373200 -37.135500
O -10.944800 -14.045800 -34.245300
C -10.613800 -11.516800 -36.612400
C -10.497600 -13.368100 -35.144600
H -10.329000 -9.281300 -38.640900
C -10.239100 -10.048700 -38.087400
C -9.446100 -11.877800 -37.227600
N -9.290500 -13.688400 -35.765300
H -9.258300 -15.627200 -35.218300
N -9.224200 -10.911800 -38.187100
C -8.695900 -13.008900 -36.823000
C -8.618300 -14.885900 -35.259800
H -8.265800 -14.708300 -34.362700
H -8.252700 -10.068200 -39.730800
H -8.173600 -11.666400 -39.723800
C -8.145400 -10.861700 -39.165400
H -7.881000 -15.124600 -35.860600
O -7.623200 -13.384800 -37.284600
H -7.284100 -10.817800 -38.701200
20
Fragment
O -15.297800 -13.392900 -30.773100
H -15.293400 -12.055000 -32.625900
O -14.515200 -12.549000 -32.689200
C -14.450900 -13.372100 -31.636700
H -13.718200 -15.205600 -30.049700
C -13.253400 -14.221300 -31.672400
C -13.060200 -15.149200 -30.733500
H -12.804800 -17.239200 -29.201000
H -12.614400 -14.109900 -32.366200
C -12.040500 -17.160100 -29.758700
C -11.949500 -16.084300 -30.643500
H -11.124500 -18.836300 -29.071100
C -11.044700 -18.109800 -29.678700
C -10.807000 -15.976100 -31.436300
H -10.718600 -15.243900 -32.034600
C -9.923200 -17.997300 -30.490700
C -9.801000 -16.922300 -31.360700
H -9.026600 -16.836700 -31.904700
O -8.980500 -18.961300 -30.386800
H -8.351200 -18.785200 -30.972600
44
Fragment
H -13.019200 -12.639500 -34.993400
H -12.807000 -11.124400 -35.464100
C -12.408700 -11.873000 -34.972800
H -12.250500 -11.606700 -34.042700
N -11.146500 -12.242400 -35.592400
N -11.112300 -10.373200 -37.135500
O -10.944800 -14.045800 -34.245300
C -10.613800 -11.516800 -36.612400
C -10.497600 -13.368100 -35.144600
H -10.329000 -9.281300 -38.640900
C -10.239100 -10.048700 -38.087400
C -9.446100 -11.877800 -37.227600
N -9.290500 -13.688400 -35.765300
H -9.258300 -15.627200 -35.218300
N -9.224200 -10.911800 -38.187100
C -8.695900 -13.008900 -36.823000
C -8.618300 -14.885900 -35.259800
H -8.265800 -14.708300 -34.362700
H -8.252700 -10.068200 -39.730800
H -8.173600 -11.666400 -39.723800
C -8.145400 -10.861700 -39.165400
H -7.881000 -15.124600 -35.860600
O -7.623200 -13.384800 -37.284600
H -7.284100 -10.817800 -38.701200
O -15.297800 -13.392900 -30.773100
H -15.293400 -12.055000 -32.625900
O -14.515200 -12.549000 -32.689200
C -14.450900 -13.372100 -31.636700
H -13.718200 -15.205600 -30.049700
C -13.253400 -14.221300 -31.672400
C -13.060200 -15.149200 -30.733500
H -12.804800 -17.239200 -29.201000
H -12.614400 -14.109900 -32.366200
C -12.040500 -17.160100 -29.758700
C -11.949500 -16.084300 -30.643500
H -11.124500 -18.836300 -29.071100
C -11.044700 -18.109800 -29.678700
C -10.807000 -15.976100 -31.436300
H -10.718600 -15.243900 -32.034600
C -9.923200 -17.997300 -30.490700
C -9.801000 -16.922300 -31.360700
H -9.026600 -16.836700 -31.904700
O -8.980500 -18.961300 -30.386800
H -8.351200 -18.785200 -30.972600
