24
Fragment
H -13.019200 -12.639500 -34.993400
H -12.807000 -11.124400 -35.464100
C -12.408700 -11.873000 -34.972800
H -12.250500 -11.606700 -34.042700
N -11.146500 -12.242400 -35.592400
N -11.112300 -10.373200 -37.135500
O -10.944800 -14.045800 -34.245300
C -10.613800 -11.516800 -36.612400
C -10.497600 -13.368100 -35.144600
H -10.329000 -9.281300 -38.640900
C -10.239100 -10.048700 -38.087400
C -9.446100 -11.877800 -37.227600
N -9.290500 -13.688400 -35.765300
H -9.258300 -15.627200 -35.218300
N -9.224200 -10.911800 -38.187100
C -8.695900 -13.008900 -36.823000
C -8.618300 -14.885900 -35.259800
H -8.265800 -14.708300 -34.362700
H -8.252700 -10.068200 -39.730800
H -8.173600 -11.666400 -39.723800
C -8.145400 -10.861700 -39.165400
H -7.881000 -15.124600 -35.860600
O -7.623200 -13.384800 -37.284600
H -7.284100 -10.817800 -38.701200
20
Fragment
H -19.417600 -2.509600 -38.592200
O -18.788300 -2.333500 -39.178000
H -18.742200 -4.458100 -37.660000
C -17.967800 -4.372500 -38.204000
C -17.845600 -3.297500 -39.074100
H -17.050200 -6.050900 -37.530200
C -16.961800 -5.318700 -38.128500
C -16.724100 -3.185000 -39.886100
H -16.644300 -2.458500 -40.493700
C -15.819300 -5.210500 -38.921300
C -15.728300 -4.134700 -39.806100
H -15.154400 -7.184900 -37.198600
H -14.964000 -4.055600 -40.363800
C -14.708600 -6.145600 -38.831300
C -14.515400 -7.073500 -37.892400
H -14.050600 -6.089200 -39.515100
C -13.317900 -7.922700 -37.928100
O -13.253600 -8.745800 -36.875600
H -12.475400 -9.239800 -36.938900
O -12.471000 -7.901900 -38.791600
44
Fragment
H -13.019200 -12.639500 -34.993400
H -12.807000 -11.124400 -35.464100
C -12.408700 -11.873000 -34.972800
H -12.250500 -11.606700 -34.042700
N -11.146500 -12.242400 -35.592400
N -11.112300 -10.373200 -37.135500
O -10.944800 -14.045800 -34.245300
C -10.613800 -11.516800 -36.612400
C -10.497600 -13.368100 -35.144600
H -10.329000 -9.281300 -38.640900
C -10.239100 -10.048700 -38.087400
C -9.446100 -11.877800 -37.227600
N -9.290500 -13.688400 -35.765300
H -9.258300 -15.627200 -35.218300
N -9.224200 -10.911800 -38.187100
C -8.695900 -13.008900 -36.823000
C -8.618300 -14.885900 -35.259800
H -8.265800 -14.708300 -34.362700
H -8.252700 -10.068200 -39.730800
H -8.173600 -11.666400 -39.723800
C -8.145400 -10.861700 -39.165400
H -7.881000 -15.124600 -35.860600
O -7.623200 -13.384800 -37.284600
H -7.284100 -10.817800 -38.701200
H -19.417600 -2.509600 -38.592200
O -18.788300 -2.333500 -39.178000
H -18.742200 -4.458100 -37.660000
C -17.967800 -4.372500 -38.204000
C -17.845600 -3.297500 -39.074100
H -17.050200 -6.050900 -37.530200
C -16.961800 -5.318700 -38.128500
C -16.724100 -3.185000 -39.886100
H -16.644300 -2.458500 -40.493700
C -15.819300 -5.210500 -38.921300
C -15.728300 -4.134700 -39.806100
H -15.154400 -7.184900 -37.198600
H -14.964000 -4.055600 -40.363800
C -14.708600 -6.145600 -38.831300
C -14.515400 -7.073500 -37.892400
H -14.050600 -6.089200 -39.515100
C -13.317900 -7.922700 -37.928100
O -13.253600 -8.745800 -36.875600
H -12.475400 -9.239800 -36.938900
O -12.471000 -7.901900 -38.791600
