24
Fragment
H -13.019200 -12.639500 -34.993400
H -12.807000 -11.124400 -35.464100
C -12.408700 -11.873000 -34.972800
H -12.250500 -11.606700 -34.042700
N -11.146500 -12.242400 -35.592400
N -11.112300 -10.373200 -37.135500
O -10.944800 -14.045800 -34.245300
C -10.613800 -11.516800 -36.612400
C -10.497600 -13.368100 -35.144600
H -10.329000 -9.281300 -38.640900
C -10.239100 -10.048700 -38.087400
C -9.446100 -11.877800 -37.227600
N -9.290500 -13.688400 -35.765300
H -9.258300 -15.627200 -35.218300
N -9.224200 -10.911800 -38.187100
C -8.695900 -13.008900 -36.823000
C -8.618300 -14.885900 -35.259800
H -8.265800 -14.708300 -34.362700
H -8.252700 -10.068200 -39.730800
H -8.173600 -11.666400 -39.723800
C -8.145400 -10.861700 -39.165400
H -7.881000 -15.124600 -35.860600
O -7.623200 -13.384800 -37.284600
H -7.284100 -10.817800 -38.701200
24
Fragment
H -6.496700 -12.639500 -34.993400
H -6.284500 -11.124400 -35.464100
C -5.886200 -11.873000 -34.972800
H -5.728000 -11.606700 -34.042700
N -4.624000 -12.242400 -35.592400
N -4.589800 -10.373200 -37.135500
O -4.422300 -14.045800 -34.245300
C -4.091300 -11.516800 -36.612400
C -3.975100 -13.368100 -35.144600
H -3.806500 -9.281300 -38.640900
C -3.716600 -10.048700 -38.087400
C -2.923600 -11.877800 -37.227600
N -2.768000 -13.688400 -35.765300
H -2.735800 -15.627200 -35.218300
N -2.701700 -10.911800 -38.187100
C -2.173400 -13.008900 -36.823000
C -2.095800 -14.885900 -35.259800
H -1.743300 -14.708300 -34.362700
H -1.730200 -10.068200 -39.730800
H -1.651100 -11.666400 -39.723800
C -1.622900 -10.861700 -39.165400
H -1.358500 -15.124600 -35.860600
O -1.100700 -13.384800 -37.284600
H -0.761600 -10.817800 -38.701200
48
Fragment
H -13.019200 -12.639500 -34.993400
H -12.807000 -11.124400 -35.464100
C -12.408700 -11.873000 -34.972800
H -12.250500 -11.606700 -34.042700
N -11.146500 -12.242400 -35.592400
N -11.112300 -10.373200 -37.135500
O -10.944800 -14.045800 -34.245300
C -10.613800 -11.516800 -36.612400
C -10.497600 -13.368100 -35.144600
H -10.329000 -9.281300 -38.640900
C -10.239100 -10.048700 -38.087400
C -9.446100 -11.877800 -37.227600
N -9.290500 -13.688400 -35.765300
H -9.258300 -15.627200 -35.218300
N -9.224200 -10.911800 -38.187100
C -8.695900 -13.008900 -36.823000
C -8.618300 -14.885900 -35.259800
H -8.265800 -14.708300 -34.362700
H -8.252700 -10.068200 -39.730800
H -8.173600 -11.666400 -39.723800
C -8.145400 -10.861700 -39.165400
H -7.881000 -15.124600 -35.860600
O -7.623200 -13.384800 -37.284600
H -7.284100 -10.817800 -38.701200
H -6.496700 -12.639500 -34.993400
H -6.284500 -11.124400 -35.464100
C -5.886200 -11.873000 -34.972800
H -5.728000 -11.606700 -34.042700
N -4.624000 -12.242400 -35.592400
N -4.589800 -10.373200 -37.135500
O -4.422300 -14.045800 -34.245300
C -4.091300 -11.516800 -36.612400
C -3.975100 -13.368100 -35.144600
H -3.806500 -9.281300 -38.640900
C -3.716600 -10.048700 -38.087400
C -2.923600 -11.877800 -37.227600
N -2.768000 -13.688400 -35.765300
H -2.735800 -15.627200 -35.218300
N -2.701700 -10.911800 -38.187100
C -2.173400 -13.008900 -36.823000
C -2.095800 -14.885900 -35.259800
H -1.743300 -14.708300 -34.362700
H -1.730200 -10.068200 -39.730800
H -1.651100 -11.666400 -39.723800
C -1.622900 -10.861700 -39.165400
H -1.358500 -15.124600 -35.860600
O -1.100700 -13.384800 -37.284600
H -0.761600 -10.817800 -38.701200
