24
Fragment
H -13.019200 -12.639500 -34.993400
H -12.807000 -11.124400 -35.464100
C -12.408700 -11.873000 -34.972800
H -12.250500 -11.606700 -34.042700
N -11.146500 -12.242400 -35.592400
N -11.112300 -10.373200 -37.135500
O -10.944800 -14.045800 -34.245300
C -10.613800 -11.516800 -36.612400
C -10.497600 -13.368100 -35.144600
H -10.329000 -9.281300 -38.640900
C -10.239100 -10.048700 -38.087400
C -9.446100 -11.877800 -37.227600
N -9.290500 -13.688400 -35.765300
H -9.258300 -15.627200 -35.218300
N -9.224200 -10.911800 -38.187100
C -8.695900 -13.008900 -36.823000
C -8.618300 -14.885900 -35.259800
H -8.265800 -14.708300 -34.362700
H -8.252700 -10.068200 -39.730800
H -8.173600 -11.666400 -39.723800
C -8.145400 -10.861700 -39.165400
H -7.881000 -15.124600 -35.860600
O -7.623200 -13.384800 -37.284600
H -7.284100 -10.817800 -38.701200
24
Fragment
H -7.439700 -21.124400 -30.863600
O -7.100600 -18.557400 -32.280100
H -6.842800 -16.817600 -33.704100
C -6.578400 -21.080500 -30.399300
H -6.550200 -20.275800 -29.841000
H -6.471100 -21.874000 -29.834000
H -6.458000 -17.233900 -35.202100
C -6.105500 -17.056300 -34.304900
C -6.027900 -18.933300 -32.741800
N -5.499600 -21.030400 -31.377700
H -5.465500 -16.315000 -34.346400
N -5.433300 -18.253800 -33.799400
C -5.277700 -20.064400 -32.337200
C -4.484700 -21.893500 -31.477400
H -4.394800 -22.660900 -30.923900
C -4.226200 -18.574100 -34.420200
C -4.109900 -20.425400 -32.952400
O -3.779000 -17.896400 -35.319400
N -3.611500 -21.569000 -32.429200
N -3.577300 -19.699800 -33.972400
H -2.473300 -20.335500 -35.522100
C -2.315100 -20.069200 -34.592000
H -1.916800 -20.817800 -34.100700
H -1.704600 -19.302700 -34.571400
48
Fragment
H -13.019200 -12.639500 -34.993400
H -12.807000 -11.124400 -35.464100
C -12.408700 -11.873000 -34.972800
H -12.250500 -11.606700 -34.042700
N -11.146500 -12.242400 -35.592400
N -11.112300 -10.373200 -37.135500
O -10.944800 -14.045800 -34.245300
C -10.613800 -11.516800 -36.612400
C -10.497600 -13.368100 -35.144600
H -10.329000 -9.281300 -38.640900
C -10.239100 -10.048700 -38.087400
C -9.446100 -11.877800 -37.227600
N -9.290500 -13.688400 -35.765300
H -9.258300 -15.627200 -35.218300
N -9.224200 -10.911800 -38.187100
C -8.695900 -13.008900 -36.823000
C -8.618300 -14.885900 -35.259800
H -8.265800 -14.708300 -34.362700
H -8.252700 -10.068200 -39.730800
H -8.173600 -11.666400 -39.723800
C -8.145400 -10.861700 -39.165400
H -7.881000 -15.124600 -35.860600
O -7.623200 -13.384800 -37.284600
H -7.284100 -10.817800 -38.701200
H -7.439700 -21.124400 -30.863600
O -7.100600 -18.557400 -32.280100
H -6.842800 -16.817600 -33.704100
C -6.578400 -21.080500 -30.399300
H -6.550200 -20.275800 -29.841000
H -6.471100 -21.874000 -29.834000
H -6.458000 -17.233900 -35.202100
C -6.105500 -17.056300 -34.304900
C -6.027900 -18.933300 -32.741800
N -5.499600 -21.030400 -31.377700
H -5.465500 -16.315000 -34.346400
N -5.433300 -18.253800 -33.799400
C -5.277700 -20.064400 -32.337200
C -4.484700 -21.893500 -31.477400
H -4.394800 -22.660900 -30.923900
C -4.226200 -18.574100 -34.420200
C -4.109900 -20.425400 -32.952400
O -3.779000 -17.896400 -35.319400
N -3.611500 -21.569000 -32.429200
N -3.577300 -19.699800 -33.972400
H -2.473300 -20.335500 -35.522100
C -2.315100 -20.069200 -34.592000
H -1.916800 -20.817800 -34.100700
H -1.704600 -19.302700 -34.571400
