20
Fragment
H -19.167400 -29.997100 -28.403100
O -18.869100 -30.662100 -27.734200
H -18.325900 -28.097300 -27.557200
C -18.195100 -29.979300 -26.765700
C -17.993800 -28.602300 -26.824400
H -17.838800 -31.653700 -25.646500
C -17.703800 -30.713800 -25.682100
C -17.305900 -27.981000 -25.805800
H -17.166100 -27.042200 -25.848500
C -17.021900 -30.078700 -24.663500
C -16.806500 -28.695300 -24.707600
H -16.696500 -30.583100 -23.927900
C -16.083500 -27.967800 -23.668600
H -15.977500 -27.032700 -23.799400
H -15.652800 -29.407500 -22.375900
C -15.553100 -28.479600 -22.550600
C -14.825000 -27.650300 -21.589900
O -14.592700 -26.456200 -21.750100
O -14.425000 -28.340800 -20.531100
H -13.847700 -27.840000 -19.869300
21
Fragment
H -22.841300 -29.059500 -34.729700
H -22.594000 -26.638600 -35.014900
N -22.419700 -28.480800 -34.188900
C -22.245500 -27.152100 -34.296300
O -22.115300 -31.188000 -32.749100
C -21.774700 -28.857000 -33.022100
C -21.648600 -30.110000 -32.372200
N -21.533000 -26.620400 -33.290400
C -21.258600 -27.703400 -32.512000
H -21.130700 -32.007800 -30.846200
H -21.069600 -31.137200 -29.504600
N -20.907700 -30.024600 -31.189200
H -20.846400 -25.910500 -30.422500
C -20.691700 -31.252700 -30.401500
N -20.560600 -27.689300 -31.324600
C -20.399500 -28.858300 -30.627700
C -20.083600 -26.427800 -30.755900
O -19.821400 -28.881600 -29.537700
H -19.730700 -31.430400 -30.330700
H -19.617000 -25.913300 -31.447800
H -19.467800 -26.614100 -30.017200
41
Fragment
H -19.167400 -29.997100 -28.403100
O -18.869100 -30.662100 -27.734200
H -18.325900 -28.097300 -27.557200
C -18.195100 -29.979300 -26.765700
C -17.993800 -28.602300 -26.824400
H -17.838800 -31.653700 -25.646500
C -17.703800 -30.713800 -25.682100
C -17.305900 -27.981000 -25.805800
H -17.166100 -27.042200 -25.848500
C -17.021900 -30.078700 -24.663500
C -16.806500 -28.695300 -24.707600
H -16.696500 -30.583100 -23.927900
C -16.083500 -27.967800 -23.668600
H -15.977500 -27.032700 -23.799400
H -15.652800 -29.407500 -22.375900
C -15.553100 -28.479600 -22.550600
C -14.825000 -27.650300 -21.589900
O -14.592700 -26.456200 -21.750100
O -14.425000 -28.340800 -20.531100
H -13.847700 -27.840000 -19.869300
H -22.841300 -29.059500 -34.729700
H -22.594000 -26.638600 -35.014900
N -22.419700 -28.480800 -34.188900
C -22.245500 -27.152100 -34.296300
O -22.115300 -31.188000 -32.749100
C -21.774700 -28.857000 -33.022100
C -21.648600 -30.110000 -32.372200
N -21.533000 -26.620400 -33.290400
C -21.258600 -27.703400 -32.512000
H -21.130700 -32.007800 -30.846200
H -21.069600 -31.137200 -29.504600
N -20.907700 -30.024600 -31.189200
H -20.846400 -25.910500 -30.422500
C -20.691700 -31.252700 -30.401500
N -20.560600 -27.689300 -31.324600
C -20.399500 -28.858300 -30.627700
C -20.083600 -26.427800 -30.755900
O -19.821400 -28.881600 -29.537700
H -19.730700 -31.430400 -30.330700
H -19.617000 -25.913300 -31.447800
H -19.467800 -26.614100 -30.017200
