20
Fragment
H -19.167400 -29.997100 -28.403100
O -18.869100 -30.662100 -27.734200
H -18.325900 -28.097300 -27.557200
C -18.195100 -29.979300 -26.765700
C -17.993800 -28.602300 -26.824400
H -17.838800 -31.653700 -25.646500
C -17.703800 -30.713800 -25.682100
C -17.305900 -27.981000 -25.805800
H -17.166100 -27.042200 -25.848500
C -17.021900 -30.078700 -24.663500
C -16.806500 -28.695300 -24.707600
H -16.696500 -30.583100 -23.927900
C -16.083500 -27.967800 -23.668600
H -15.977500 -27.032700 -23.799400
H -15.652800 -29.407500 -22.375900
C -15.553100 -28.479600 -22.550600
C -14.825000 -27.650300 -21.589900
O -14.592700 -26.456200 -21.750100
O -14.425000 -28.340800 -20.531100
H -13.847700 -27.840000 -19.869300
21
Fragment
H -18.940200 -35.705900 -33.026600
H -18.825100 -33.271700 -33.068900
N -18.480700 -35.126900 -32.342200
C -18.428700 -33.788100 -32.376700
O -17.896300 -37.867700 -31.067700
C -17.808300 -35.502500 -31.193000
N -17.766400 -33.241600 -31.342600
C -17.537100 -36.770200 -30.635800
C -17.386300 -34.331000 -30.628400
H -16.942900 -32.412100 -28.886100
N -16.756900 -36.688600 -29.467700
N -16.654300 -34.322800 -29.460500
H -16.625500 -38.701200 -29.347900
H -16.586700 -37.976200 -27.921600
C -16.303100 -35.513300 -28.874100
C -16.276600 -37.932200 -28.849900
C -16.212600 -33.064100 -28.853000
H -15.958100 -33.223200 -27.920100
O -15.617400 -35.546800 -27.846400
H -15.441300 -32.715800 -29.347900
H -15.296400 -37.949100 -28.867700
41
Fragment
H -19.167400 -29.997100 -28.403100
O -18.869100 -30.662100 -27.734200
H -18.325900 -28.097300 -27.557200
C -18.195100 -29.979300 -26.765700
C -17.993800 -28.602300 -26.824400
H -17.838800 -31.653700 -25.646500
C -17.703800 -30.713800 -25.682100
C -17.305900 -27.981000 -25.805800
H -17.166100 -27.042200 -25.848500
C -17.021900 -30.078700 -24.663500
C -16.806500 -28.695300 -24.707600
H -16.696500 -30.583100 -23.927900
C -16.083500 -27.967800 -23.668600
H -15.977500 -27.032700 -23.799400
H -15.652800 -29.407500 -22.375900
C -15.553100 -28.479600 -22.550600
C -14.825000 -27.650300 -21.589900
O -14.592700 -26.456200 -21.750100
O -14.425000 -28.340800 -20.531100
H -13.847700 -27.840000 -19.869300
H -18.940200 -35.705900 -33.026600
H -18.825100 -33.271700 -33.068900
N -18.480700 -35.126900 -32.342200
C -18.428700 -33.788100 -32.376700
O -17.896300 -37.867700 -31.067700
C -17.808300 -35.502500 -31.193000
N -17.766400 -33.241600 -31.342600
C -17.537100 -36.770200 -30.635800
C -17.386300 -34.331000 -30.628400
H -16.942900 -32.412100 -28.886100
N -16.756900 -36.688600 -29.467700
N -16.654300 -34.322800 -29.460500
H -16.625500 -38.701200 -29.347900
H -16.586700 -37.976200 -27.921600
C -16.303100 -35.513300 -28.874100
C -16.276600 -37.932200 -28.849900
C -16.212600 -33.064100 -28.853000
H -15.958100 -33.223200 -27.920100
O -15.617400 -35.546800 -27.846400
H -15.441300 -32.715800 -29.347900
H -15.296400 -37.949100 -28.867700
