20
Fragment
H -19.167400 -29.997100 -28.403100
O -18.869100 -30.662100 -27.734200
H -18.325900 -28.097300 -27.557200
C -18.195100 -29.979300 -26.765700
C -17.993800 -28.602300 -26.824400
H -17.838800 -31.653700 -25.646500
C -17.703800 -30.713800 -25.682100
C -17.305900 -27.981000 -25.805800
H -17.166100 -27.042200 -25.848500
C -17.021900 -30.078700 -24.663500
C -16.806500 -28.695300 -24.707600
H -16.696500 -30.583100 -23.927900
C -16.083500 -27.967800 -23.668600
H -15.977500 -27.032700 -23.799400
H -15.652800 -29.407500 -22.375900
C -15.553100 -28.479600 -22.550600
C -14.825000 -27.650300 -21.589900
O -14.592700 -26.456200 -21.750100
O -14.425000 -28.340800 -20.531100
H -13.847700 -27.840000 -19.869300
20
Fragment
H -18.763400 -26.145400 -22.496000
O -18.186200 -25.644700 -21.834200
O -18.018500 -27.529300 -20.615200
C -17.786200 -26.335200 -20.775400
C -17.058100 -25.505900 -19.814700
H -16.958300 -24.578000 -19.989400
H -16.633700 -26.952800 -18.565900
C -16.527600 -26.017700 -18.696700
H -15.914700 -23.402400 -18.437400
C -15.804700 -25.290200 -17.657700
C -15.589300 -23.906800 -17.701800
H -15.445100 -26.943300 -16.516800
C -15.305300 -26.004500 -16.559500
C -14.907400 -23.271700 -16.683200
H -14.772400 -22.331800 -16.718800
C -14.617400 -25.383200 -15.540900
C -14.416100 -24.006200 -15.599600
H -14.285300 -25.888100 -14.808100
O -13.742100 -23.323300 -14.631100
H -13.443800 -23.988400 -13.962200
40
Fragment
H -19.167400 -29.997100 -28.403100
O -18.869100 -30.662100 -27.734200
H -18.325900 -28.097300 -27.557200
C -18.195100 -29.979300 -26.765700
C -17.993800 -28.602300 -26.824400
H -17.838800 -31.653700 -25.646500
C -17.703800 -30.713800 -25.682100
C -17.305900 -27.981000 -25.805800
H -17.166100 -27.042200 -25.848500
C -17.021900 -30.078700 -24.663500
C -16.806500 -28.695300 -24.707600
H -16.696500 -30.583100 -23.927900
C -16.083500 -27.967800 -23.668600
H -15.977500 -27.032700 -23.799400
H -15.652800 -29.407500 -22.375900
C -15.553100 -28.479600 -22.550600
C -14.825000 -27.650300 -21.589900
O -14.592700 -26.456200 -21.750100
O -14.425000 -28.340800 -20.531100
H -13.847700 -27.840000 -19.869300
H -18.763400 -26.145400 -22.496000
O -18.186200 -25.644700 -21.834200
O -18.018500 -27.529300 -20.615200
C -17.786200 -26.335200 -20.775400
C -17.058100 -25.505900 -19.814700
H -16.958300 -24.578000 -19.989400
H -16.633700 -26.952800 -18.565900
C -16.527600 -26.017700 -18.696700
H -15.914700 -23.402400 -18.437400
C -15.804700 -25.290200 -17.657700
C -15.589300 -23.906800 -17.701800
H -15.445100 -26.943300 -16.516800
C -15.305300 -26.004500 -16.559500
C -14.907400 -23.271700 -16.683200
H -14.772400 -22.331800 -16.718800
C -14.617400 -25.383200 -15.540900
C -14.416100 -24.006200 -15.599600
H -14.285300 -25.888100 -14.808100
O -13.742100 -23.323300 -14.631100
H -13.443800 -23.988400 -13.962200
