20
Fragment
H -19.167400 -29.997100 -28.403100
O -18.869100 -30.662100 -27.734200
H -18.325900 -28.097300 -27.557200
C -18.195100 -29.979300 -26.765700
C -17.993800 -28.602300 -26.824400
H -17.838800 -31.653700 -25.646500
C -17.703800 -30.713800 -25.682100
C -17.305900 -27.981000 -25.805800
H -17.166100 -27.042200 -25.848500
C -17.021900 -30.078700 -24.663500
C -16.806500 -28.695300 -24.707600
H -16.696500 -30.583100 -23.927900
C -16.083500 -27.967800 -23.668600
H -15.977500 -27.032700 -23.799400
H -15.652800 -29.407500 -22.375900
C -15.553100 -28.479600 -22.550600
C -14.825000 -27.650300 -21.589900
O -14.592700 -26.456200 -21.750100
O -14.425000 -28.340800 -20.531100
H -13.847700 -27.840000 -19.869300
21
Fragment
H -22.312600 -31.196500 -26.469800
H -22.163300 -31.897300 -25.039300
H -22.049700 -26.380200 -26.156300
O -21.958900 -28.929000 -26.949400
C -21.696700 -31.382900 -25.731100
C -21.380900 -28.952300 -25.859400
N -21.219700 -30.121300 -25.162400
C -21.088700 -26.557900 -26.085600
H -20.933900 -31.900100 -26.064500
N -20.872700 -27.786000 -25.297900
H -20.710700 -26.673400 -26.982500
H -20.649700 -25.802800 -25.640900
C -20.521800 -30.107200 -23.975100
N -20.247400 -31.190200 -23.196700
C -20.131800 -27.700600 -24.114900
C -20.005600 -28.953600 -23.465000
O -19.665100 -26.622600 -23.738000
C -19.534900 -30.658600 -22.190800
N -19.360600 -29.329800 -22.298100
H -19.186300 -31.172000 -21.472100
H -18.939100 -28.751100 -21.757400
41
Fragment
H -19.167400 -29.997100 -28.403100
O -18.869100 -30.662100 -27.734200
H -18.325900 -28.097300 -27.557200
C -18.195100 -29.979300 -26.765700
C -17.993800 -28.602300 -26.824400
H -17.838800 -31.653700 -25.646500
C -17.703800 -30.713800 -25.682100
C -17.305900 -27.981000 -25.805800
H -17.166100 -27.042200 -25.848500
C -17.021900 -30.078700 -24.663500
C -16.806500 -28.695300 -24.707600
H -16.696500 -30.583100 -23.927900
C -16.083500 -27.967800 -23.668600
H -15.977500 -27.032700 -23.799400
H -15.652800 -29.407500 -22.375900
C -15.553100 -28.479600 -22.550600
C -14.825000 -27.650300 -21.589900
O -14.592700 -26.456200 -21.750100
O -14.425000 -28.340800 -20.531100
H -13.847700 -27.840000 -19.869300
H -22.312600 -31.196500 -26.469800
H -22.163300 -31.897300 -25.039300
H -22.049700 -26.380200 -26.156300
O -21.958900 -28.929000 -26.949400
C -21.696700 -31.382900 -25.731100
C -21.380900 -28.952300 -25.859400
N -21.219700 -30.121300 -25.162400
C -21.088700 -26.557900 -26.085600
H -20.933900 -31.900100 -26.064500
N -20.872700 -27.786000 -25.297900
H -20.710700 -26.673400 -26.982500
H -20.649700 -25.802800 -25.640900
C -20.521800 -30.107200 -23.975100
N -20.247400 -31.190200 -23.196700
C -20.131800 -27.700600 -24.114900
C -20.005600 -28.953600 -23.465000
O -19.665100 -26.622600 -23.738000
C -19.534900 -30.658600 -22.190800
N -19.360600 -29.329800 -22.298100
H -19.186300 -31.172000 -21.472100
H -18.939100 -28.751100 -21.757400
