32
Fragment
H -12.082600 -9.707400 -20.261600
H -11.914100 -11.976100 -20.714100
H -11.782300 -21.008700 -23.859800
H -11.763300 -14.240100 -21.138000
H -11.705800 -16.930700 -21.805800
C -11.630300 -10.272700 -19.678300
C -11.573700 -20.698700 -23.007900
C -11.530300 -11.632000 -19.941300
N -11.514100 -21.478600 -21.910800
C -11.296200 -19.429200 -22.719000
C -11.279300 -14.599700 -20.429200
H -11.275700 -18.713600 -23.313200
C -11.217200 -17.012400 -21.018000
C -11.211600 -20.652200 -20.952600
F -11.122100 -8.454600 -18.306900
H -11.116200 -20.907300 -20.062600
C -11.050900 -9.790000 -18.549700
N -11.050800 -19.385400 -21.384900
N -10.934200 -15.914200 -20.254400
C -10.869800 -12.486900 -19.070400
C -10.770000 -13.925500 -19.358000
C -10.768500 -18.227500 -20.601000
C -10.370500 -10.586300 -17.666500
C -10.290500 -11.938600 -17.929600
C -10.210200 -15.986500 -19.078600
N -10.095900 -14.787900 -18.518900
C -10.011100 -18.338100 -19.419300
H -9.972200 -10.224000 -16.908700
H -9.841400 -12.493100 -17.334000
C -9.727300 -17.241200 -18.683300
H -9.703800 -19.172900 -19.142600
H -9.211000 -17.319000 -17.913200
3
Fragment
O -12.305000 -24.153900 -22.858000
H -11.970100 -23.287900 -22.515900
H -11.727400 -24.709800 -23.142900
35
Fragment
H -12.082600 -9.707400 -20.261600
H -11.914100 -11.976100 -20.714100
H -11.782300 -21.008700 -23.859800
H -11.763300 -14.240100 -21.138000
H -11.705800 -16.930700 -21.805800
C -11.630300 -10.272700 -19.678300
C -11.573700 -20.698700 -23.007900
C -11.530300 -11.632000 -19.941300
N -11.514100 -21.478600 -21.910800
C -11.296200 -19.429200 -22.719000
C -11.279300 -14.599700 -20.429200
H -11.275700 -18.713600 -23.313200
C -11.217200 -17.012400 -21.018000
C -11.211600 -20.652200 -20.952600
F -11.122100 -8.454600 -18.306900
H -11.116200 -20.907300 -20.062600
C -11.050900 -9.790000 -18.549700
N -11.050800 -19.385400 -21.384900
N -10.934200 -15.914200 -20.254400
C -10.869800 -12.486900 -19.070400
C -10.770000 -13.925500 -19.358000
C -10.768500 -18.227500 -20.601000
C -10.370500 -10.586300 -17.666500
C -10.290500 -11.938600 -17.929600
C -10.210200 -15.986500 -19.078600
N -10.095900 -14.787900 -18.518900
C -10.011100 -18.338100 -19.419300
H -9.972200 -10.224000 -16.908700
H -9.841400 -12.493100 -17.334000
C -9.727300 -17.241200 -18.683300
H -9.703800 -19.172900 -19.142600
H -9.211000 -17.319000 -17.913200
O -12.305000 -24.153900 -22.858000
H -11.970100 -23.287900 -22.515900
H -11.727400 -24.709800 -23.142900
