32
Fragment
H -12.082600 -9.707400 -20.261600
H -11.914100 -11.976100 -20.714100
H -11.782300 -21.008700 -23.859800
H -11.763300 -14.240100 -21.138000
H -11.705800 -16.930700 -21.805800
C -11.630300 -10.272700 -19.678300
C -11.573700 -20.698700 -23.007900
C -11.530300 -11.632000 -19.941300
N -11.514100 -21.478600 -21.910800
C -11.296200 -19.429200 -22.719000
C -11.279300 -14.599700 -20.429200
H -11.275700 -18.713600 -23.313200
C -11.217200 -17.012400 -21.018000
C -11.211600 -20.652200 -20.952600
F -11.122100 -8.454600 -18.306900
H -11.116200 -20.907300 -20.062600
C -11.050900 -9.790000 -18.549700
N -11.050800 -19.385400 -21.384900
N -10.934200 -15.914200 -20.254400
C -10.869800 -12.486900 -19.070400
C -10.770000 -13.925500 -19.358000
C -10.768500 -18.227500 -20.601000
C -10.370500 -10.586300 -17.666500
C -10.290500 -11.938600 -17.929600
C -10.210200 -15.986500 -19.078600
N -10.095900 -14.787900 -18.518900
C -10.011100 -18.338100 -19.419300
H -9.972200 -10.224000 -16.908700
H -9.841400 -12.493100 -17.334000
C -9.727300 -17.241200 -18.683300
H -9.703800 -19.172900 -19.142600
H -9.211000 -17.319000 -17.913200
32
Fragment
H -6.825900 -12.247900 -16.787400
N -6.816200 -10.270700 -16.613000
C -6.528400 -11.510800 -16.305000
H -6.214700 -8.596000 -15.631700
C -6.191600 -9.524900 -15.668500
N -5.746900 -11.593500 -15.202200
C -5.534500 -10.305100 -14.790700
H -5.403100 -12.170700 -12.668600
C -5.249500 -12.791300 -14.598500
C -5.161700 -12.895500 -13.198800
H -5.037700 -10.025400 -14.056100
H -4.935100 -13.745100 -16.322700
C -4.894600 -13.821100 -15.397200
C -4.728000 -14.042700 -12.611400
H -4.664600 -14.101800 -11.685900
N -4.470900 -14.987200 -14.796200
C -4.375800 -15.141000 -13.418200
C -4.103600 -16.178000 -15.361800
H -4.068300 -16.381800 -16.268200
N -3.966300 -16.369500 -13.111300
C -3.798200 -17.010000 -14.316400
H -3.647900 -18.562900 -16.408500
C -3.363500 -18.405900 -14.422700
C -3.347300 -19.028200 -15.661600
H -2.974100 -18.751100 -12.476400
C -2.952600 -19.139600 -13.321500
C -2.896400 -20.318300 -15.810200
H -2.880700 -20.722000 -16.648400
C -2.508000 -20.448100 -13.465900
C -2.471300 -20.993200 -14.700800
H -2.241000 -20.940900 -12.724500
F -1.970100 -22.247700 -14.867300
64
Fragment
H -12.082600 -9.707400 -20.261600
H -11.914100 -11.976100 -20.714100
H -11.782300 -21.008700 -23.859800
H -11.763300 -14.240100 -21.138000
H -11.705800 -16.930700 -21.805800
C -11.630300 -10.272700 -19.678300
C -11.573700 -20.698700 -23.007900
C -11.530300 -11.632000 -19.941300
N -11.514100 -21.478600 -21.910800
C -11.296200 -19.429200 -22.719000
C -11.279300 -14.599700 -20.429200
H -11.275700 -18.713600 -23.313200
C -11.217200 -17.012400 -21.018000
C -11.211600 -20.652200 -20.952600
F -11.122100 -8.454600 -18.306900
H -11.116200 -20.907300 -20.062600
C -11.050900 -9.790000 -18.549700
N -11.050800 -19.385400 -21.384900
N -10.934200 -15.914200 -20.254400
C -10.869800 -12.486900 -19.070400
C -10.770000 -13.925500 -19.358000
C -10.768500 -18.227500 -20.601000
C -10.370500 -10.586300 -17.666500
C -10.290500 -11.938600 -17.929600
C -10.210200 -15.986500 -19.078600
N -10.095900 -14.787900 -18.518900
C -10.011100 -18.338100 -19.419300
H -9.972200 -10.224000 -16.908700
H -9.841400 -12.493100 -17.334000
C -9.727300 -17.241200 -18.683300
H -9.703800 -19.172900 -19.142600
H -9.211000 -17.319000 -17.913200
H -6.825900 -12.247900 -16.787400
N -6.816200 -10.270700 -16.613000
C -6.528400 -11.510800 -16.305000
H -6.214700 -8.596000 -15.631700
C -6.191600 -9.524900 -15.668500
N -5.746900 -11.593500 -15.202200
C -5.534500 -10.305100 -14.790700
H -5.403100 -12.170700 -12.668600
C -5.249500 -12.791300 -14.598500
C -5.161700 -12.895500 -13.198800
H -5.037700 -10.025400 -14.056100
H -4.935100 -13.745100 -16.322700
C -4.894600 -13.821100 -15.397200
C -4.728000 -14.042700 -12.611400
H -4.664600 -14.101800 -11.685900
N -4.470900 -14.987200 -14.796200
C -4.375800 -15.141000 -13.418200
C -4.103600 -16.178000 -15.361800
H -4.068300 -16.381800 -16.268200
N -3.966300 -16.369500 -13.111300
C -3.798200 -17.010000 -14.316400
H -3.647900 -18.562900 -16.408500
C -3.363500 -18.405900 -14.422700
C -3.347300 -19.028200 -15.661600
H -2.974100 -18.751100 -12.476400
C -2.952600 -19.139600 -13.321500
C -2.896400 -20.318300 -15.810200
H -2.880700 -20.722000 -16.648400
C -2.508000 -20.448100 -13.465900
C -2.471300 -20.993200 -14.700800
H -2.241000 -20.940900 -12.724500
F -1.970100 -22.247700 -14.867300
