32
Fragment
H -12.082600 -9.707400 -20.261600
H -11.914100 -11.976100 -20.714100
H -11.782300 -21.008700 -23.859800
H -11.763300 -14.240100 -21.138000
H -11.705800 -16.930700 -21.805800
C -11.630300 -10.272700 -19.678300
C -11.573700 -20.698700 -23.007900
C -11.530300 -11.632000 -19.941300
N -11.514100 -21.478600 -21.910800
C -11.296200 -19.429200 -22.719000
C -11.279300 -14.599700 -20.429200
H -11.275700 -18.713600 -23.313200
C -11.217200 -17.012400 -21.018000
C -11.211600 -20.652200 -20.952600
F -11.122100 -8.454600 -18.306900
H -11.116200 -20.907300 -20.062600
C -11.050900 -9.790000 -18.549700
N -11.050800 -19.385400 -21.384900
N -10.934200 -15.914200 -20.254400
C -10.869800 -12.486900 -19.070400
C -10.770000 -13.925500 -19.358000
C -10.768500 -18.227500 -20.601000
C -10.370500 -10.586300 -17.666500
C -10.290500 -11.938600 -17.929600
C -10.210200 -15.986500 -19.078600
N -10.095900 -14.787900 -18.518900
C -10.011100 -18.338100 -19.419300
H -9.972200 -10.224000 -16.908700
H -9.841400 -12.493100 -17.334000
C -9.727300 -17.241200 -18.683300
H -9.703800 -19.172900 -19.142600
H -9.211000 -17.319000 -17.913200
32
Fragment
F -9.841500 -9.637100 -12.391700
H -9.570600 -10.943900 -14.534500
C -9.340300 -10.891600 -12.558200
C -9.303600 -11.436700 -13.793000
H -8.930900 -11.162800 -10.610600
C -8.915200 -11.566500 -11.448800
C -8.859000 -12.745200 -13.937500
H -8.837500 -13.133700 -14.782500
C -8.464300 -12.856600 -11.597300
C -8.448100 -13.478900 -12.836300
H -8.163700 -13.321900 -10.850400
C -8.013400 -14.874800 -12.942600
N -7.845300 -15.515300 -14.147700
H -7.743300 -15.503000 -10.990800
C -7.708000 -15.706800 -11.897200
C -7.435800 -16.743800 -13.840700
N -7.340700 -16.897600 -12.462800
H -7.147000 -17.783000 -15.573100
C -7.083600 -17.842100 -14.647600
C -6.917000 -18.063700 -11.861700
H -6.876500 -18.139700 -10.936300
H -6.773900 -21.859400 -13.202900
C -6.649900 -18.989300 -14.060200
C -6.562100 -19.093500 -12.660400
H -6.408500 -19.714100 -14.590400
C -6.277100 -21.579700 -12.468300
N -6.064700 -20.291300 -12.056800
C -5.620000 -22.359900 -11.590500
H -5.596900 -23.288800 -11.627300
C -5.283200 -20.374000 -10.954000
N -4.995400 -21.614100 -10.646000
H -4.985700 -19.636900 -10.471500
64
Fragment
H -12.082600 -9.707400 -20.261600
H -11.914100 -11.976100 -20.714100
H -11.782300 -21.008700 -23.859800
H -11.763300 -14.240100 -21.138000
H -11.705800 -16.930700 -21.805800
C -11.630300 -10.272700 -19.678300
C -11.573700 -20.698700 -23.007900
C -11.530300 -11.632000 -19.941300
N -11.514100 -21.478600 -21.910800
C -11.296200 -19.429200 -22.719000
C -11.279300 -14.599700 -20.429200
H -11.275700 -18.713600 -23.313200
C -11.217200 -17.012400 -21.018000
C -11.211600 -20.652200 -20.952600
F -11.122100 -8.454600 -18.306900
H -11.116200 -20.907300 -20.062600
C -11.050900 -9.790000 -18.549700
N -11.050800 -19.385400 -21.384900
N -10.934200 -15.914200 -20.254400
C -10.869800 -12.486900 -19.070400
C -10.770000 -13.925500 -19.358000
C -10.768500 -18.227500 -20.601000
C -10.370500 -10.586300 -17.666500
C -10.290500 -11.938600 -17.929600
C -10.210200 -15.986500 -19.078600
N -10.095900 -14.787900 -18.518900
C -10.011100 -18.338100 -19.419300
H -9.972200 -10.224000 -16.908700
H -9.841400 -12.493100 -17.334000
C -9.727300 -17.241200 -18.683300
H -9.703800 -19.172900 -19.142600
H -9.211000 -17.319000 -17.913200
F -9.841500 -9.637100 -12.391700
H -9.570600 -10.943900 -14.534500
C -9.340300 -10.891600 -12.558200
C -9.303600 -11.436700 -13.793000
H -8.930900 -11.162800 -10.610600
C -8.915200 -11.566500 -11.448800
C -8.859000 -12.745200 -13.937500
H -8.837500 -13.133700 -14.782500
C -8.464300 -12.856600 -11.597300
C -8.448100 -13.478900 -12.836300
H -8.163700 -13.321900 -10.850400
C -8.013400 -14.874800 -12.942600
N -7.845300 -15.515300 -14.147700
H -7.743300 -15.503000 -10.990800
C -7.708000 -15.706800 -11.897200
C -7.435800 -16.743800 -13.840700
N -7.340700 -16.897600 -12.462800
H -7.147000 -17.783000 -15.573100
C -7.083600 -17.842100 -14.647600
C -6.917000 -18.063700 -11.861700
H -6.876500 -18.139700 -10.936300
H -6.773900 -21.859400 -13.202900
C -6.649900 -18.989300 -14.060200
C -6.562100 -19.093500 -12.660400
H -6.408500 -19.714100 -14.590400
C -6.277100 -21.579700 -12.468300
N -6.064700 -20.291300 -12.056800
C -5.620000 -22.359900 -11.590500
H -5.596900 -23.288800 -11.627300
C -5.283200 -20.374000 -10.954000
N -4.995400 -21.614100 -10.646000
H -4.985700 -19.636900 -10.471500
