32
Fragment
H -12.082600 -9.707400 -20.261600
H -11.914100 -11.976100 -20.714100
H -11.782300 -21.008700 -23.859800
H -11.763300 -14.240100 -21.138000
H -11.705800 -16.930700 -21.805800
C -11.630300 -10.272700 -19.678300
C -11.573700 -20.698700 -23.007900
C -11.530300 -11.632000 -19.941300
N -11.514100 -21.478600 -21.910800
C -11.296200 -19.429200 -22.719000
C -11.279300 -14.599700 -20.429200
H -11.275700 -18.713600 -23.313200
C -11.217200 -17.012400 -21.018000
C -11.211600 -20.652200 -20.952600
F -11.122100 -8.454600 -18.306900
H -11.116200 -20.907300 -20.062600
C -11.050900 -9.790000 -18.549700
N -11.050800 -19.385400 -21.384900
N -10.934200 -15.914200 -20.254400
C -10.869800 -12.486900 -19.070400
C -10.770000 -13.925500 -19.358000
C -10.768500 -18.227500 -20.601000
C -10.370500 -10.586300 -17.666500
C -10.290500 -11.938600 -17.929600
C -10.210200 -15.986500 -19.078600
N -10.095900 -14.787900 -18.518900
C -10.011100 -18.338100 -19.419300
H -9.972200 -10.224000 -16.908700
H -9.841400 -12.493100 -17.334000
C -9.727300 -17.241200 -18.683300
H -9.703800 -19.172900 -19.142600
H -9.211000 -17.319000 -17.913200
32
Fragment
H -14.956900 1.802300 -16.787400
N -14.947200 3.779500 -16.613000
C -14.659400 2.539500 -16.305000
H -14.345600 5.454200 -15.631700
C -14.322500 4.525300 -15.668500
N -13.877800 2.456700 -15.202200
C -13.665500 3.745100 -14.790700
H -13.534100 1.879500 -12.668600
C -13.380500 1.258900 -14.598500
C -13.292700 1.154700 -13.198800
H -13.168600 4.024900 -14.056100
H -13.066100 0.305100 -16.322700
C -13.025500 0.229200 -15.397200
C -12.859000 0.007500 -12.611400
H -12.795600 -0.051500 -11.685900
N -12.601800 -0.937000 -14.796200
C -12.506800 -1.090800 -13.418200
C -12.234600 -2.127800 -15.361800
H -12.199300 -2.331600 -16.268200
N -12.097200 -2.319300 -13.111300
C -11.929200 -2.959800 -14.316400
H -11.778900 -4.512700 -16.408500
C -11.494500 -4.355700 -14.422700
C -11.478200 -4.978000 -15.661600
H -11.105100 -4.700900 -12.476400
C -11.083600 -5.089400 -13.321500
C -11.027400 -6.268100 -15.810200
H -11.011600 -6.671800 -16.648400
C -10.639000 -6.397900 -13.465900
C -10.602300 -6.943000 -14.700800
H -10.372000 -6.890700 -12.724500
F -10.101100 -8.197500 -14.867300
64
Fragment
H -12.082600 -9.707400 -20.261600
H -11.914100 -11.976100 -20.714100
H -11.782300 -21.008700 -23.859800
H -11.763300 -14.240100 -21.138000
H -11.705800 -16.930700 -21.805800
C -11.630300 -10.272700 -19.678300
C -11.573700 -20.698700 -23.007900
C -11.530300 -11.632000 -19.941300
N -11.514100 -21.478600 -21.910800
C -11.296200 -19.429200 -22.719000
C -11.279300 -14.599700 -20.429200
H -11.275700 -18.713600 -23.313200
C -11.217200 -17.012400 -21.018000
C -11.211600 -20.652200 -20.952600
F -11.122100 -8.454600 -18.306900
H -11.116200 -20.907300 -20.062600
C -11.050900 -9.790000 -18.549700
N -11.050800 -19.385400 -21.384900
N -10.934200 -15.914200 -20.254400
C -10.869800 -12.486900 -19.070400
C -10.770000 -13.925500 -19.358000
C -10.768500 -18.227500 -20.601000
C -10.370500 -10.586300 -17.666500
C -10.290500 -11.938600 -17.929600
C -10.210200 -15.986500 -19.078600
N -10.095900 -14.787900 -18.518900
C -10.011100 -18.338100 -19.419300
H -9.972200 -10.224000 -16.908700
H -9.841400 -12.493100 -17.334000
C -9.727300 -17.241200 -18.683300
H -9.703800 -19.172900 -19.142600
H -9.211000 -17.319000 -17.913200
H -14.956900 1.802300 -16.787400
N -14.947200 3.779500 -16.613000
C -14.659400 2.539500 -16.305000
H -14.345600 5.454200 -15.631700
C -14.322500 4.525300 -15.668500
N -13.877800 2.456700 -15.202200
C -13.665500 3.745100 -14.790700
H -13.534100 1.879500 -12.668600
C -13.380500 1.258900 -14.598500
C -13.292700 1.154700 -13.198800
H -13.168600 4.024900 -14.056100
H -13.066100 0.305100 -16.322700
C -13.025500 0.229200 -15.397200
C -12.859000 0.007500 -12.611400
H -12.795600 -0.051500 -11.685900
N -12.601800 -0.937000 -14.796200
C -12.506800 -1.090800 -13.418200
C -12.234600 -2.127800 -15.361800
H -12.199300 -2.331600 -16.268200
N -12.097200 -2.319300 -13.111300
C -11.929200 -2.959800 -14.316400
H -11.778900 -4.512700 -16.408500
C -11.494500 -4.355700 -14.422700
C -11.478200 -4.978000 -15.661600
H -11.105100 -4.700900 -12.476400
C -11.083600 -5.089400 -13.321500
C -11.027400 -6.268100 -15.810200
H -11.011600 -6.671800 -16.648400
C -10.639000 -6.397900 -13.465900
C -10.602300 -6.943000 -14.700800
H -10.372000 -6.890700 -12.724500
F -10.101100 -8.197500 -14.867300
