32
Fragment
H -12.082600 -9.707400 -20.261600
H -11.914100 -11.976100 -20.714100
H -11.782300 -21.008700 -23.859800
H -11.763300 -14.240100 -21.138000
H -11.705800 -16.930700 -21.805800
C -11.630300 -10.272700 -19.678300
C -11.573700 -20.698700 -23.007900
C -11.530300 -11.632000 -19.941300
N -11.514100 -21.478600 -21.910800
C -11.296200 -19.429200 -22.719000
C -11.279300 -14.599700 -20.429200
H -11.275700 -18.713600 -23.313200
C -11.217200 -17.012400 -21.018000
C -11.211600 -20.652200 -20.952600
F -11.122100 -8.454600 -18.306900
H -11.116200 -20.907300 -20.062600
C -11.050900 -9.790000 -18.549700
N -11.050800 -19.385400 -21.384900
N -10.934200 -15.914200 -20.254400
C -10.869800 -12.486900 -19.070400
C -10.770000 -13.925500 -19.358000
C -10.768500 -18.227500 -20.601000
C -10.370500 -10.586300 -17.666500
C -10.290500 -11.938600 -17.929600
C -10.210200 -15.986500 -19.078600
N -10.095900 -14.787900 -18.518900
C -10.011100 -18.338100 -19.419300
H -9.972200 -10.224000 -16.908700
H -9.841400 -12.493100 -17.334000
C -9.727300 -17.241200 -18.683300
H -9.703800 -19.172900 -19.142600
H -9.211000 -17.319000 -17.913200
32
Fragment
H -13.173700 -21.165200 -30.416900
N -13.164000 -19.188000 -30.242500
C -12.876200 -20.428100 -29.934400
H -12.562500 -17.513300 -29.261100
C -12.539300 -18.442200 -29.297900
N -12.094700 -20.510800 -28.831700
C -11.882300 -19.222400 -28.420200
H -11.750900 -21.088000 -26.298100
C -11.597300 -21.708600 -28.228000
C -11.509500 -21.812800 -26.828300
H -11.385500 -18.942700 -27.685600
H -11.282900 -22.662400 -29.952200
C -11.242400 -22.738300 -29.026700
C -11.075800 -22.960000 -26.240900
H -11.012400 -23.019100 -25.315400
N -10.818700 -23.904500 -28.425700
C -10.723600 -24.058300 -27.047700
C -10.451400 -25.095300 -28.991300
H -10.416100 -25.299100 -29.897600
N -10.314000 -25.286800 -26.740800
C -10.146000 -25.927300 -27.945900
H -9.995700 -27.480200 -30.038000
C -9.711300 -27.323200 -28.052200
C -9.695000 -27.945500 -29.291100
H -9.321900 -27.668400 -26.105900
C -9.300400 -28.056900 -26.950900
C -9.244200 -29.235600 -29.439700
H -9.228500 -29.639300 -30.277900
C -8.855800 -29.365400 -27.095400
C -8.819100 -29.910500 -28.330300
H -8.588800 -29.858200 -26.354000
F -8.317900 -31.165000 -28.496800
64
Fragment
H -12.082600 -9.707400 -20.261600
H -11.914100 -11.976100 -20.714100
H -11.782300 -21.008700 -23.859800
H -11.763300 -14.240100 -21.138000
H -11.705800 -16.930700 -21.805800
C -11.630300 -10.272700 -19.678300
C -11.573700 -20.698700 -23.007900
C -11.530300 -11.632000 -19.941300
N -11.514100 -21.478600 -21.910800
C -11.296200 -19.429200 -22.719000
C -11.279300 -14.599700 -20.429200
H -11.275700 -18.713600 -23.313200
C -11.217200 -17.012400 -21.018000
C -11.211600 -20.652200 -20.952600
F -11.122100 -8.454600 -18.306900
H -11.116200 -20.907300 -20.062600
C -11.050900 -9.790000 -18.549700
N -11.050800 -19.385400 -21.384900
N -10.934200 -15.914200 -20.254400
C -10.869800 -12.486900 -19.070400
C -10.770000 -13.925500 -19.358000
C -10.768500 -18.227500 -20.601000
C -10.370500 -10.586300 -17.666500
C -10.290500 -11.938600 -17.929600
C -10.210200 -15.986500 -19.078600
N -10.095900 -14.787900 -18.518900
C -10.011100 -18.338100 -19.419300
H -9.972200 -10.224000 -16.908700
H -9.841400 -12.493100 -17.334000
C -9.727300 -17.241200 -18.683300
H -9.703800 -19.172900 -19.142600
H -9.211000 -17.319000 -17.913200
H -13.173700 -21.165200 -30.416900
N -13.164000 -19.188000 -30.242500
C -12.876200 -20.428100 -29.934400
H -12.562500 -17.513300 -29.261100
C -12.539300 -18.442200 -29.297900
N -12.094700 -20.510800 -28.831700
C -11.882300 -19.222400 -28.420200
H -11.750900 -21.088000 -26.298100
C -11.597300 -21.708600 -28.228000
C -11.509500 -21.812800 -26.828300
H -11.385500 -18.942700 -27.685600
H -11.282900 -22.662400 -29.952200
C -11.242400 -22.738300 -29.026700
C -11.075800 -22.960000 -26.240900
H -11.012400 -23.019100 -25.315400
N -10.818700 -23.904500 -28.425700
C -10.723600 -24.058300 -27.047700
C -10.451400 -25.095300 -28.991300
H -10.416100 -25.299100 -29.897600
N -10.314000 -25.286800 -26.740800
C -10.146000 -25.927300 -27.945900
H -9.995700 -27.480200 -30.038000
C -9.711300 -27.323200 -28.052200
C -9.695000 -27.945500 -29.291100
H -9.321900 -27.668400 -26.105900
C -9.300400 -28.056900 -26.950900
C -9.244200 -29.235600 -29.439700
H -9.228500 -29.639300 -30.277900
C -8.855800 -29.365400 -27.095400
C -8.819100 -29.910500 -28.330300
H -8.588800 -29.858200 -26.354000
F -8.317900 -31.165000 -28.496800
