32
Fragment
H -12.082600 -9.707400 -20.261600
H -11.914100 -11.976100 -20.714100
H -11.782300 -21.008700 -23.859800
H -11.763300 -14.240100 -21.138000
H -11.705800 -16.930700 -21.805800
C -11.630300 -10.272700 -19.678300
C -11.573700 -20.698700 -23.007900
C -11.530300 -11.632000 -19.941300
N -11.514100 -21.478600 -21.910800
C -11.296200 -19.429200 -22.719000
C -11.279300 -14.599700 -20.429200
H -11.275700 -18.713600 -23.313200
C -11.217200 -17.012400 -21.018000
C -11.211600 -20.652200 -20.952600
F -11.122100 -8.454600 -18.306900
H -11.116200 -20.907300 -20.062600
C -11.050900 -9.790000 -18.549700
N -11.050800 -19.385400 -21.384900
N -10.934200 -15.914200 -20.254400
C -10.869800 -12.486900 -19.070400
C -10.770000 -13.925500 -19.358000
C -10.768500 -18.227500 -20.601000
C -10.370500 -10.586300 -17.666500
C -10.290500 -11.938600 -17.929600
C -10.210200 -15.986500 -19.078600
N -10.095900 -14.787900 -18.518900
C -10.011100 -18.338100 -19.419300
H -9.972200 -10.224000 -16.908700
H -9.841400 -12.493100 -17.334000
C -9.727300 -17.241200 -18.683300
H -9.703800 -19.172900 -19.142600
H -9.211000 -17.319000 -17.913200
32
Fragment
H -8.948400 -23.483100 -22.975200
H -8.455600 -21.629200 -21.745800
C -8.432100 -23.560900 -22.205200
H -8.318000 -28.309000 -23.554500
H -8.187200 -30.578100 -23.979700
C -8.148300 -22.464000 -21.469200
N -8.063500 -26.014200 -22.369500
C -7.949200 -24.815500 -21.809900
C -7.868900 -28.863500 -22.958900
C -7.788900 -30.215800 -23.221900
C -7.390900 -22.574600 -20.287500
C -7.389400 -26.876600 -21.530500
C -7.289600 -28.315200 -21.818100
N -7.225200 -24.887900 -20.634100
C -7.108500 -31.012000 -22.338700
N -7.108500 -21.416700 -19.503500
H -7.043200 -19.894800 -20.825900
F -7.037300 -32.347500 -22.581600
C -6.947800 -20.149900 -19.935900
C -6.942200 -23.789700 -19.870400
H -6.883700 -22.088500 -17.575200
C -6.880100 -26.202400 -20.459200
C -6.863200 -21.372900 -18.169500
N -6.645200 -19.323500 -18.977700
C -6.629100 -29.170100 -20.947200
C -6.585700 -20.103400 -17.880500
C -6.529100 -30.529400 -21.210200
H -6.453600 -23.871400 -19.082600
H -6.396100 -26.562000 -19.750500
H -6.377100 -19.793400 -17.028700
H -6.245300 -28.826000 -20.174400
H -6.076800 -31.094700 -20.626900
64
Fragment
H -12.082600 -9.707400 -20.261600
H -11.914100 -11.976100 -20.714100
H -11.782300 -21.008700 -23.859800
H -11.763300 -14.240100 -21.138000
H -11.705800 -16.930700 -21.805800
C -11.630300 -10.272700 -19.678300
C -11.573700 -20.698700 -23.007900
C -11.530300 -11.632000 -19.941300
N -11.514100 -21.478600 -21.910800
C -11.296200 -19.429200 -22.719000
C -11.279300 -14.599700 -20.429200
H -11.275700 -18.713600 -23.313200
C -11.217200 -17.012400 -21.018000
C -11.211600 -20.652200 -20.952600
F -11.122100 -8.454600 -18.306900
H -11.116200 -20.907300 -20.062600
C -11.050900 -9.790000 -18.549700
N -11.050800 -19.385400 -21.384900
N -10.934200 -15.914200 -20.254400
C -10.869800 -12.486900 -19.070400
C -10.770000 -13.925500 -19.358000
C -10.768500 -18.227500 -20.601000
C -10.370500 -10.586300 -17.666500
C -10.290500 -11.938600 -17.929600
C -10.210200 -15.986500 -19.078600
N -10.095900 -14.787900 -18.518900
C -10.011100 -18.338100 -19.419300
H -9.972200 -10.224000 -16.908700
H -9.841400 -12.493100 -17.334000
C -9.727300 -17.241200 -18.683300
H -9.703800 -19.172900 -19.142600
H -9.211000 -17.319000 -17.913200
H -8.948400 -23.483100 -22.975200
H -8.455600 -21.629200 -21.745800
C -8.432100 -23.560900 -22.205200
H -8.318000 -28.309000 -23.554500
H -8.187200 -30.578100 -23.979700
C -8.148300 -22.464000 -21.469200
N -8.063500 -26.014200 -22.369500
C -7.949200 -24.815500 -21.809900
C -7.868900 -28.863500 -22.958900
C -7.788900 -30.215800 -23.221900
C -7.390900 -22.574600 -20.287500
C -7.389400 -26.876600 -21.530500
C -7.289600 -28.315200 -21.818100
N -7.225200 -24.887900 -20.634100
C -7.108500 -31.012000 -22.338700
N -7.108500 -21.416700 -19.503500
H -7.043200 -19.894800 -20.825900
F -7.037300 -32.347500 -22.581600
C -6.947800 -20.149900 -19.935900
C -6.942200 -23.789700 -19.870400
H -6.883700 -22.088500 -17.575200
C -6.880100 -26.202400 -20.459200
C -6.863200 -21.372900 -18.169500
N -6.645200 -19.323500 -18.977700
C -6.629100 -29.170100 -20.947200
C -6.585700 -20.103400 -17.880500
C -6.529100 -30.529400 -21.210200
H -6.453600 -23.871400 -19.082600
H -6.396100 -26.562000 -19.750500
H -6.377100 -19.793400 -17.028700
H -6.245300 -28.826000 -20.174400
H -6.076800 -31.094700 -20.626900
