32
Fragment
H -12.082600 -9.707400 -20.261600
H -11.914100 -11.976100 -20.714100
H -11.782300 -21.008700 -23.859800
H -11.763300 -14.240100 -21.138000
H -11.705800 -16.930700 -21.805800
C -11.630300 -10.272700 -19.678300
C -11.573700 -20.698700 -23.007900
C -11.530300 -11.632000 -19.941300
N -11.514100 -21.478600 -21.910800
C -11.296200 -19.429200 -22.719000
C -11.279300 -14.599700 -20.429200
H -11.275700 -18.713600 -23.313200
C -11.217200 -17.012400 -21.018000
C -11.211600 -20.652200 -20.952600
F -11.122100 -8.454600 -18.306900
H -11.116200 -20.907300 -20.062600
C -11.050900 -9.790000 -18.549700
N -11.050800 -19.385400 -21.384900
N -10.934200 -15.914200 -20.254400
C -10.869800 -12.486900 -19.070400
C -10.770000 -13.925500 -19.358000
C -10.768500 -18.227500 -20.601000
C -10.370500 -10.586300 -17.666500
C -10.290500 -11.938600 -17.929600
C -10.210200 -15.986500 -19.078600
N -10.095900 -14.787900 -18.518900
C -10.011100 -18.338100 -19.419300
H -9.972200 -10.224000 -16.908700
H -9.841400 -12.493100 -17.334000
C -9.727300 -17.241200 -18.683300
H -9.703800 -19.172900 -19.142600
H -9.211000 -17.319000 -17.913200
32
Fragment
F -17.073200 -4.504100 -26.021100
H -16.802300 -5.811000 -28.164000
C -16.572000 -5.758600 -26.187700
C -16.535300 -6.303800 -27.422500
H -16.162700 -6.029900 -24.240000
C -16.146900 -6.433600 -25.078300
C -16.090700 -7.612300 -27.567000
H -16.069200 -8.000700 -28.412000
C -15.696100 -7.723600 -25.226800
C -15.679800 -8.345900 -26.465700
H -15.395500 -8.189000 -24.479900
C -15.245100 -9.741800 -26.572000
N -15.077100 -10.382400 -27.777200
H -14.975000 -10.370100 -24.620300
C -14.939700 -10.573900 -25.526700
C -14.667500 -11.610900 -27.470200
N -14.572500 -11.764600 -26.092300
H -14.378700 -12.650100 -29.202500
C -14.315300 -12.709200 -28.277100
C -14.148800 -12.930800 -25.491200
H -14.108300 -13.006800 -24.565800
H -14.005700 -16.726500 -26.832400
C -13.881600 -13.856300 -27.689700
C -13.793900 -13.960600 -26.289900
H -13.640200 -14.581200 -28.219900
C -13.508900 -16.446800 -26.097700
N -13.296500 -15.158400 -25.686300
C -12.851800 -17.227000 -25.220000
H -12.828700 -18.155900 -25.256800
C -12.514900 -15.241100 -24.583500
N -12.227200 -16.481100 -24.275500
H -12.217500 -14.503900 -24.101000
64
Fragment
H -12.082600 -9.707400 -20.261600
H -11.914100 -11.976100 -20.714100
H -11.782300 -21.008700 -23.859800
H -11.763300 -14.240100 -21.138000
H -11.705800 -16.930700 -21.805800
C -11.630300 -10.272700 -19.678300
C -11.573700 -20.698700 -23.007900
C -11.530300 -11.632000 -19.941300
N -11.514100 -21.478600 -21.910800
C -11.296200 -19.429200 -22.719000
C -11.279300 -14.599700 -20.429200
H -11.275700 -18.713600 -23.313200
C -11.217200 -17.012400 -21.018000
C -11.211600 -20.652200 -20.952600
F -11.122100 -8.454600 -18.306900
H -11.116200 -20.907300 -20.062600
C -11.050900 -9.790000 -18.549700
N -11.050800 -19.385400 -21.384900
N -10.934200 -15.914200 -20.254400
C -10.869800 -12.486900 -19.070400
C -10.770000 -13.925500 -19.358000
C -10.768500 -18.227500 -20.601000
C -10.370500 -10.586300 -17.666500
C -10.290500 -11.938600 -17.929600
C -10.210200 -15.986500 -19.078600
N -10.095900 -14.787900 -18.518900
C -10.011100 -18.338100 -19.419300
H -9.972200 -10.224000 -16.908700
H -9.841400 -12.493100 -17.334000
C -9.727300 -17.241200 -18.683300
H -9.703800 -19.172900 -19.142600
H -9.211000 -17.319000 -17.913200
F -17.073200 -4.504100 -26.021100
H -16.802300 -5.811000 -28.164000
C -16.572000 -5.758600 -26.187700
C -16.535300 -6.303800 -27.422500
H -16.162700 -6.029900 -24.240000
C -16.146900 -6.433600 -25.078300
C -16.090700 -7.612300 -27.567000
H -16.069200 -8.000700 -28.412000
C -15.696100 -7.723600 -25.226800
C -15.679800 -8.345900 -26.465700
H -15.395500 -8.189000 -24.479900
C -15.245100 -9.741800 -26.572000
N -15.077100 -10.382400 -27.777200
H -14.975000 -10.370100 -24.620300
C -14.939700 -10.573900 -25.526700
C -14.667500 -11.610900 -27.470200
N -14.572500 -11.764600 -26.092300
H -14.378700 -12.650100 -29.202500
C -14.315300 -12.709200 -28.277100
C -14.148800 -12.930800 -25.491200
H -14.108300 -13.006800 -24.565800
H -14.005700 -16.726500 -26.832400
C -13.881600 -13.856300 -27.689700
C -13.793900 -13.960600 -26.289900
H -13.640200 -14.581200 -28.219900
C -13.508900 -16.446800 -26.097700
N -13.296500 -15.158400 -25.686300
C -12.851800 -17.227000 -25.220000
H -12.828700 -18.155900 -25.256800
C -12.514900 -15.241100 -24.583500
N -12.227200 -16.481100 -24.275500
H -12.217500 -14.503900 -24.101000
