24
Fragment
H -6.654400 -44.754900 -8.307700
O -6.273100 -44.607400 -6.079500
O -6.197200 -45.438700 -8.136000
H -5.950400 -46.961600 -4.609100
C -5.901300 -45.457600 -6.854400
H -5.468600 -47.469100 -6.863100
C -5.059000 -46.653900 -6.456500
C -5.026600 -46.843700 -4.944900
H -4.647400 -46.034800 -4.520100
H -4.605200 -48.881400 -4.919500
C -4.188600 -48.059000 -4.556100
H -4.157600 -48.140600 -3.569700
H -3.665200 -46.432000 -7.992100
C -3.634200 -46.513600 -7.005600
H -3.217700 -45.691200 -6.642200
H -3.175500 -48.537800 -7.041700
C -2.796200 -47.728900 -6.616900
C -2.763900 -47.918700 -5.105300
H -2.354200 -47.103500 -4.698700
C -1.921500 -49.115000 -4.707400
H -1.872400 -47.611000 -6.952700
O -1.625600 -49.133900 -3.425800
O -1.549700 -49.965200 -5.482300
H -1.168400 -49.817700 -3.254100
22
Fragment
N -9.381500 -41.816900 -9.388300
H -9.285200 -43.837600 -9.418800
H -9.268100 -42.384300 -11.324800
H -9.216000 -43.222800 -7.942400
H -9.208900 -40.798600 -11.125300
H -9.108900 -40.839600 -7.642300
H -9.108300 -39.871800 -8.917600
C -8.902200 -43.104900 -8.873700
C -8.890200 -41.662100 -10.762900
C -8.793400 -40.746300 -8.576500
N -7.424100 -43.194500 -8.905700
N -7.421800 -41.706200 -10.845200
H -7.332900 -43.724100 -10.867500
N -7.326800 -40.767400 -8.592400
H -7.187700 -42.179400 -7.155000
H -7.181800 -39.764600 -10.341400
C -6.976600 -42.993000 -10.303300
C -6.888500 -42.073800 -8.092100
C -6.888300 -40.640400 -9.988200
H -5.988100 -43.036800 -10.338000
H -5.899000 -40.663100 -10.020000
H -5.898700 -42.110000 -8.101300
46
Fragment
H -6.654400 -44.754900 -8.307700
O -6.273100 -44.607400 -6.079500
O -6.197200 -45.438700 -8.136000
H -5.950400 -46.961600 -4.609100
C -5.901300 -45.457600 -6.854400
H -5.468600 -47.469100 -6.863100
C -5.059000 -46.653900 -6.456500
C -5.026600 -46.843700 -4.944900
H -4.647400 -46.034800 -4.520100
H -4.605200 -48.881400 -4.919500
C -4.188600 -48.059000 -4.556100
H -4.157600 -48.140600 -3.569700
H -3.665200 -46.432000 -7.992100
C -3.634200 -46.513600 -7.005600
H -3.217700 -45.691200 -6.642200
H -3.175500 -48.537800 -7.041700
C -2.796200 -47.728900 -6.616900
C -2.763900 -47.918700 -5.105300
H -2.354200 -47.103500 -4.698700
C -1.921500 -49.115000 -4.707400
H -1.872400 -47.611000 -6.952700
O -1.625600 -49.133900 -3.425800
O -1.549700 -49.965200 -5.482300
H -1.168400 -49.817700 -3.254100
N -9.381500 -41.816900 -9.388300
H -9.285200 -43.837600 -9.418800
H -9.268100 -42.384300 -11.324800
H -9.216000 -43.222800 -7.942400
H -9.208900 -40.798600 -11.125300
H -9.108900 -40.839600 -7.642300
H -9.108300 -39.871800 -8.917600
C -8.902200 -43.104900 -8.873700
C -8.890200 -41.662100 -10.762900
C -8.793400 -40.746300 -8.576500
N -7.424100 -43.194500 -8.905700
N -7.421800 -41.706200 -10.845200
H -7.332900 -43.724100 -10.867500
N -7.326800 -40.767400 -8.592400
H -7.187700 -42.179400 -7.155000
H -7.181800 -39.764600 -10.341400
C -6.976600 -42.993000 -10.303300
C -6.888500 -42.073800 -8.092100
C -6.888300 -40.640400 -9.988200
H -5.988100 -43.036800 -10.338000
H -5.899000 -40.663100 -10.020000
H -5.898700 -42.110000 -8.101300
