24
Fragment
H -6.654400 -44.754900 -8.307700
O -6.273100 -44.607400 -6.079500
O -6.197200 -45.438700 -8.136000
H -5.950400 -46.961600 -4.609100
C -5.901300 -45.457600 -6.854400
H -5.468600 -47.469100 -6.863100
C -5.059000 -46.653900 -6.456500
C -5.026600 -46.843700 -4.944900
H -4.647400 -46.034800 -4.520100
H -4.605200 -48.881400 -4.919500
C -4.188600 -48.059000 -4.556100
H -4.157600 -48.140600 -3.569700
H -3.665200 -46.432000 -7.992100
C -3.634200 -46.513600 -7.005600
H -3.217700 -45.691200 -6.642200
H -3.175500 -48.537800 -7.041700
C -2.796200 -47.728900 -6.616900
C -2.763900 -47.918700 -5.105300
H -2.354200 -47.103500 -4.698700
C -1.921500 -49.115000 -4.707400
H -1.872400 -47.611000 -6.952700
O -1.625600 -49.133900 -3.425800
O -1.549700 -49.965200 -5.482300
H -1.168400 -49.817700 -3.254100
24
Fragment
H -2.743000 -44.754900 -2.526800
O -2.361700 -44.607400 -0.298600
O -2.285800 -45.438700 -2.355100
H -2.039000 -46.961600 1.171800
C -1.989900 -45.457600 -1.073500
H -1.557200 -47.469100 -1.082200
C -1.147500 -46.653900 -0.675600
C -1.115200 -46.843700 0.836000
H -0.736000 -46.034800 1.260800
H -0.693800 -48.881400 0.861400
C -0.277200 -48.059000 1.224700
H -0.246200 -48.140600 2.211200
H 0.246200 -46.432000 -2.211200
C 0.277200 -46.513600 -1.224700
H 0.693800 -45.691200 -0.861400
H 0.736000 -48.537800 -1.260800
C 1.115200 -47.728900 -0.836000
C 1.147500 -47.918700 0.675600
H 1.557200 -47.103500 1.082200
C 1.989900 -49.115000 1.073500
H 2.039000 -47.611000 -1.171800
O 2.285800 -49.133900 2.355100
O 2.361700 -49.965200 0.298600
H 2.743000 -49.817700 2.526800
48
Fragment
H -6.654400 -44.754900 -8.307700
O -6.273100 -44.607400 -6.079500
O -6.197200 -45.438700 -8.136000
H -5.950400 -46.961600 -4.609100
C -5.901300 -45.457600 -6.854400
H -5.468600 -47.469100 -6.863100
C -5.059000 -46.653900 -6.456500
C -5.026600 -46.843700 -4.944900
H -4.647400 -46.034800 -4.520100
H -4.605200 -48.881400 -4.919500
C -4.188600 -48.059000 -4.556100
H -4.157600 -48.140600 -3.569700
H -3.665200 -46.432000 -7.992100
C -3.634200 -46.513600 -7.005600
H -3.217700 -45.691200 -6.642200
H -3.175500 -48.537800 -7.041700
C -2.796200 -47.728900 -6.616900
C -2.763900 -47.918700 -5.105300
H -2.354200 -47.103500 -4.698700
C -1.921500 -49.115000 -4.707400
H -1.872400 -47.611000 -6.952700
O -1.625600 -49.133900 -3.425800
O -1.549700 -49.965200 -5.482300
H -1.168400 -49.817700 -3.254100
H -2.743000 -44.754900 -2.526800
O -2.361700 -44.607400 -0.298600
O -2.285800 -45.438700 -2.355100
H -2.039000 -46.961600 1.171800
C -1.989900 -45.457600 -1.073500
H -1.557200 -47.469100 -1.082200
C -1.147500 -46.653900 -0.675600
C -1.115200 -46.843700 0.836000
H -0.736000 -46.034800 1.260800
H -0.693800 -48.881400 0.861400
C -0.277200 -48.059000 1.224700
H -0.246200 -48.140600 2.211200
H 0.246200 -46.432000 -2.211200
C 0.277200 -46.513600 -1.224700
H 0.693800 -45.691200 -0.861400
H 0.736000 -48.537800 -1.260800
C 1.115200 -47.728900 -0.836000
C 1.147500 -47.918700 0.675600
H 1.557200 -47.103500 1.082200
C 1.989900 -49.115000 1.073500
H 2.039000 -47.611000 -1.171800
O 2.285800 -49.133900 2.355100
O 2.361700 -49.965200 0.298600
H 2.743000 -49.817700 2.526800
