24
Fragment
H -6.654400 -44.754900 -8.307700
O -6.273100 -44.607400 -6.079500
O -6.197200 -45.438700 -8.136000
H -5.950400 -46.961600 -4.609100
C -5.901300 -45.457600 -6.854400
H -5.468600 -47.469100 -6.863100
C -5.059000 -46.653900 -6.456500
C -5.026600 -46.843700 -4.944900
H -4.647400 -46.034800 -4.520100
H -4.605200 -48.881400 -4.919500
C -4.188600 -48.059000 -4.556100
H -4.157600 -48.140600 -3.569700
H -3.665200 -46.432000 -7.992100
C -3.634200 -46.513600 -7.005600
H -3.217700 -45.691200 -6.642200
H -3.175500 -48.537800 -7.041700
C -2.796200 -47.728900 -6.616900
C -2.763900 -47.918700 -5.105300
H -2.354200 -47.103500 -4.698700
C -1.921500 -49.115000 -4.707400
H -1.872400 -47.611000 -6.952700
O -1.625600 -49.133900 -3.425800
O -1.549700 -49.965200 -5.482300
H -1.168400 -49.817700 -3.254100
22
Fragment
H -7.842300 -52.462600 -3.460400
H -7.842000 -53.909500 -1.541800
H -7.752900 -51.535800 -1.223800
C -6.852700 -53.932200 -1.573600
C -6.852600 -52.498800 -3.469700
C -6.764400 -51.579600 -1.258500
H -6.559300 -54.808000 -1.220300
H -6.553300 -52.393200 -4.406800
N -6.414200 -53.805200 -2.969400
H -6.408100 -50.848500 -0.694300
N -6.319300 -52.866400 -0.716600
N -6.316900 -51.378100 -2.656000
C -4.947600 -53.826300 -2.985200
C -4.850800 -52.910500 -0.798900
C -4.838900 -51.467700 -2.688100
H -4.632800 -54.700800 -2.644200
H -4.632200 -53.733000 -3.919400
H -4.532200 -53.774000 -0.436500
H -4.525000 -51.349800 -3.619400
H -4.473000 -52.188300 -0.237000
H -4.455800 -50.735000 -2.143000
N -4.359500 -52.755700 -2.173400
46
Fragment
H -6.654400 -44.754900 -8.307700
O -6.273100 -44.607400 -6.079500
O -6.197200 -45.438700 -8.136000
H -5.950400 -46.961600 -4.609100
C -5.901300 -45.457600 -6.854400
H -5.468600 -47.469100 -6.863100
C -5.059000 -46.653900 -6.456500
C -5.026600 -46.843700 -4.944900
H -4.647400 -46.034800 -4.520100
H -4.605200 -48.881400 -4.919500
C -4.188600 -48.059000 -4.556100
H -4.157600 -48.140600 -3.569700
H -3.665200 -46.432000 -7.992100
C -3.634200 -46.513600 -7.005600
H -3.217700 -45.691200 -6.642200
H -3.175500 -48.537800 -7.041700
C -2.796200 -47.728900 -6.616900
C -2.763900 -47.918700 -5.105300
H -2.354200 -47.103500 -4.698700
C -1.921500 -49.115000 -4.707400
H -1.872400 -47.611000 -6.952700
O -1.625600 -49.133900 -3.425800
O -1.549700 -49.965200 -5.482300
H -1.168400 -49.817700 -3.254100
H -7.842300 -52.462600 -3.460400
H -7.842000 -53.909500 -1.541800
H -7.752900 -51.535800 -1.223800
C -6.852700 -53.932200 -1.573600
C -6.852600 -52.498800 -3.469700
C -6.764400 -51.579600 -1.258500
H -6.559300 -54.808000 -1.220300
H -6.553300 -52.393200 -4.406800
N -6.414200 -53.805200 -2.969400
H -6.408100 -50.848500 -0.694300
N -6.319300 -52.866400 -0.716600
N -6.316900 -51.378100 -2.656000
C -4.947600 -53.826300 -2.985200
C -4.850800 -52.910500 -0.798900
C -4.838900 -51.467700 -2.688100
H -4.632800 -54.700800 -2.644200
H -4.632200 -53.733000 -3.919400
H -4.532200 -53.774000 -0.436500
H -4.525000 -51.349800 -3.619400
H -4.473000 -52.188300 -0.237000
H -4.455800 -50.735000 -2.143000
N -4.359500 -52.755700 -2.173400
