24
Fragment
H -6.654400 -44.754900 -8.307700
O -6.273100 -44.607400 -6.079500
O -6.197200 -45.438700 -8.136000
H -5.950400 -46.961600 -4.609100
C -5.901300 -45.457600 -6.854400
H -5.468600 -47.469100 -6.863100
C -5.059000 -46.653900 -6.456500
C -5.026600 -46.843700 -4.944900
H -4.647400 -46.034800 -4.520100
H -4.605200 -48.881400 -4.919500
C -4.188600 -48.059000 -4.556100
H -4.157600 -48.140600 -3.569700
H -3.665200 -46.432000 -7.992100
C -3.634200 -46.513600 -7.005600
H -3.217700 -45.691200 -6.642200
H -3.175500 -48.537800 -7.041700
C -2.796200 -47.728900 -6.616900
C -2.763900 -47.918700 -5.105300
H -2.354200 -47.103500 -4.698700
C -1.921500 -49.115000 -4.707400
H -1.872400 -47.611000 -6.952700
O -1.625600 -49.133900 -3.425800
O -1.549700 -49.965200 -5.482300
H -1.168400 -49.817700 -3.254100
24
Fragment
H -12.572600 -44.754900 -8.307700
O -12.191300 -44.607400 -6.079500
O -12.115400 -45.438700 -8.136000
H -11.868600 -46.961600 -4.609100
C -11.819500 -45.457600 -6.854400
H -11.386800 -47.469100 -6.863100
C -10.977200 -46.653900 -6.456500
C -10.944800 -46.843700 -4.944900
H -10.565600 -46.034800 -4.520100
H -10.523400 -48.881400 -4.919500
C -10.106800 -48.059000 -4.556100
H -10.075800 -48.140600 -3.569700
H -9.583400 -46.432000 -7.992100
C -9.552400 -46.513600 -7.005600
H -9.135900 -45.691200 -6.642200
H -9.093700 -48.537800 -7.041700
C -8.714400 -47.728900 -6.616900
C -8.682100 -47.918700 -5.105300
H -8.272400 -47.103500 -4.698700
C -7.839700 -49.115000 -4.707400
H -7.790600 -47.611000 -6.952700
O -7.543800 -49.133900 -3.425800
O -7.467900 -49.965200 -5.482300
H -7.086600 -49.817700 -3.254100
48
Fragment
H -6.654400 -44.754900 -8.307700
O -6.273100 -44.607400 -6.079500
O -6.197200 -45.438700 -8.136000
H -5.950400 -46.961600 -4.609100
C -5.901300 -45.457600 -6.854400
H -5.468600 -47.469100 -6.863100
C -5.059000 -46.653900 -6.456500
C -5.026600 -46.843700 -4.944900
H -4.647400 -46.034800 -4.520100
H -4.605200 -48.881400 -4.919500
C -4.188600 -48.059000 -4.556100
H -4.157600 -48.140600 -3.569700
H -3.665200 -46.432000 -7.992100
C -3.634200 -46.513600 -7.005600
H -3.217700 -45.691200 -6.642200
H -3.175500 -48.537800 -7.041700
C -2.796200 -47.728900 -6.616900
C -2.763900 -47.918700 -5.105300
H -2.354200 -47.103500 -4.698700
C -1.921500 -49.115000 -4.707400
H -1.872400 -47.611000 -6.952700
O -1.625600 -49.133900 -3.425800
O -1.549700 -49.965200 -5.482300
H -1.168400 -49.817700 -3.254100
H -12.572600 -44.754900 -8.307700
O -12.191300 -44.607400 -6.079500
O -12.115400 -45.438700 -8.136000
H -11.868600 -46.961600 -4.609100
C -11.819500 -45.457600 -6.854400
H -11.386800 -47.469100 -6.863100
C -10.977200 -46.653900 -6.456500
C -10.944800 -46.843700 -4.944900
H -10.565600 -46.034800 -4.520100
H -10.523400 -48.881400 -4.919500
C -10.106800 -48.059000 -4.556100
H -10.075800 -48.140600 -3.569700
H -9.583400 -46.432000 -7.992100
C -9.552400 -46.513600 -7.005600
H -9.135900 -45.691200 -6.642200
H -9.093700 -48.537800 -7.041700
C -8.714400 -47.728900 -6.616900
C -8.682100 -47.918700 -5.105300
H -8.272400 -47.103500 -4.698700
C -7.839700 -49.115000 -4.707400
H -7.790600 -47.611000 -6.952700
O -7.543800 -49.133900 -3.425800
O -7.467900 -49.965200 -5.482300
H -7.086600 -49.817700 -3.254100
