24
Fragment
H -6.654400 -44.754900 -8.307700
O -6.273100 -44.607400 -6.079500
O -6.197200 -45.438700 -8.136000
H -5.950400 -46.961600 -4.609100
C -5.901300 -45.457600 -6.854400
H -5.468600 -47.469100 -6.863100
C -5.059000 -46.653900 -6.456500
C -5.026600 -46.843700 -4.944900
H -4.647400 -46.034800 -4.520100
H -4.605200 -48.881400 -4.919500
C -4.188600 -48.059000 -4.556100
H -4.157600 -48.140600 -3.569700
H -3.665200 -46.432000 -7.992100
C -3.634200 -46.513600 -7.005600
H -3.217700 -45.691200 -6.642200
H -3.175500 -48.537800 -7.041700
C -2.796200 -47.728900 -6.616900
C -2.763900 -47.918700 -5.105300
H -2.354200 -47.103500 -4.698700
C -1.921500 -49.115000 -4.707400
H -1.872400 -47.611000 -6.952700
O -1.625600 -49.133900 -3.425800
O -1.549700 -49.965200 -5.482300
H -1.168400 -49.817700 -3.254100
22
Fragment
N -5.470100 -41.816900 -3.607400
H -5.373800 -43.837600 -3.637900
H -5.356700 -42.384300 -5.543900
H -5.304600 -43.222800 -2.161500
H -5.297500 -40.798600 -5.344400
H -5.197400 -40.839600 -1.861400
H -5.196800 -39.871800 -3.136700
C -4.990700 -43.104900 -3.092800
C -4.978800 -41.662100 -4.982000
C -4.882000 -40.746300 -2.795600
N -3.512700 -43.194500 -3.124900
N -3.510400 -41.706200 -5.064300
H -3.421500 -43.724100 -5.086600
N -3.415400 -40.767400 -2.811500
H -3.276300 -42.179400 -1.374100
H -3.270400 -39.764600 -4.560500
C -3.065200 -42.993000 -4.522400
C -2.977100 -42.073800 -2.311200
C -2.976900 -40.640400 -4.207300
H -2.076700 -43.036800 -4.557100
H -1.987600 -40.663100 -4.239100
H -1.987300 -42.110000 -2.320400
46
Fragment
H -6.654400 -44.754900 -8.307700
O -6.273100 -44.607400 -6.079500
O -6.197200 -45.438700 -8.136000
H -5.950400 -46.961600 -4.609100
C -5.901300 -45.457600 -6.854400
H -5.468600 -47.469100 -6.863100
C -5.059000 -46.653900 -6.456500
C -5.026600 -46.843700 -4.944900
H -4.647400 -46.034800 -4.520100
H -4.605200 -48.881400 -4.919500
C -4.188600 -48.059000 -4.556100
H -4.157600 -48.140600 -3.569700
H -3.665200 -46.432000 -7.992100
C -3.634200 -46.513600 -7.005600
H -3.217700 -45.691200 -6.642200
H -3.175500 -48.537800 -7.041700
C -2.796200 -47.728900 -6.616900
C -2.763900 -47.918700 -5.105300
H -2.354200 -47.103500 -4.698700
C -1.921500 -49.115000 -4.707400
H -1.872400 -47.611000 -6.952700
O -1.625600 -49.133900 -3.425800
O -1.549700 -49.965200 -5.482300
H -1.168400 -49.817700 -3.254100
N -5.470100 -41.816900 -3.607400
H -5.373800 -43.837600 -3.637900
H -5.356700 -42.384300 -5.543900
H -5.304600 -43.222800 -2.161500
H -5.297500 -40.798600 -5.344400
H -5.197400 -40.839600 -1.861400
H -5.196800 -39.871800 -3.136700
C -4.990700 -43.104900 -3.092800
C -4.978800 -41.662100 -4.982000
C -4.882000 -40.746300 -2.795600
N -3.512700 -43.194500 -3.124900
N -3.510400 -41.706200 -5.064300
H -3.421500 -43.724100 -5.086600
N -3.415400 -40.767400 -2.811500
H -3.276300 -42.179400 -1.374100
H -3.270400 -39.764600 -4.560500
C -3.065200 -42.993000 -4.522400
C -2.977100 -42.073800 -2.311200
C -2.976900 -40.640400 -4.207300
H -2.076700 -43.036800 -4.557100
H -1.987600 -40.663100 -4.239100
H -1.987300 -42.110000 -2.320400
