42
Fragment
H -22.234700 -22.295500 -38.013600
F -21.742300 -22.752200 -40.471000
C -21.311500 -22.233900 -38.228700
C -20.836700 -22.447100 -39.507000
F -20.771200 -21.687400 -36.014300
C -20.353400 -21.925000 -37.284600
C -19.501200 -22.392500 -39.851500
H -19.224700 -22.583900 -40.740200
C -19.007700 -21.809400 -37.564000
C -18.558700 -22.050600 -38.872100
H -18.393000 -21.569900 -36.880500
H -17.365800 -21.563500 -41.204300
C -17.115300 -21.948900 -39.207000
C -16.703400 -21.702900 -40.537700
H -16.401700 -22.254400 -37.314000
C -16.144200 -22.101400 -38.215400
C -15.367900 -21.658500 -40.902800
H -15.111100 -21.505100 -41.804500
C -14.794100 -22.028200 -38.556700
C -14.413300 -21.845900 -39.906000
H -13.985800 -22.307100 -35.804900
C -13.567700 -22.144100 -37.798700
C -13.281700 -22.249500 -36.440000
H -13.236000 -21.253700 -33.907000
N -13.033200 -21.870800 -40.005000
F -12.873600 -21.081200 -31.413500
H -12.524800 -21.878800 -40.720500
C -12.508600 -22.054500 -38.739000
C -12.426000 -21.670900 -33.638100
C -12.044700 -21.673100 -32.315700
C -11.945900 -22.269500 -36.019100
C -11.597600 -22.295100 -34.581500
C -11.176900 -22.099200 -38.340900
C -10.915300 -22.200000 -36.983600
C -10.879100 -22.244200 -31.846800
H -10.633900 -22.216700 -30.929400
H -10.471900 -22.062000 -38.976500
C -10.416800 -22.905300 -34.141400
C -10.095300 -22.857100 -32.800600
H -10.011700 -22.223200 -36.691400
H -9.844500 -23.346600 -34.757900
F -8.948500 -23.451000 -32.397900
42
Fragment
H -26.138700 -25.739400 -37.964700
F -25.595100 -26.189000 -35.506400
C -25.209800 -25.701200 -37.769400
C -24.711400 -25.907500 -36.501900
F -24.696500 -25.234600 -40.002200
C -24.261600 -25.435700 -38.732500
C -23.369800 -25.873300 -36.182800
H -23.083500 -26.041300 -35.292800
C -22.910300 -25.355000 -38.487400
C -22.430900 -25.587200 -37.188900
H -22.307400 -25.143800 -39.190500
H -21.182900 -25.513500 -34.843500
C -20.975400 -25.564300 -36.882600
C -20.535000 -25.544300 -35.537700
H -20.294100 -25.594600 -38.811100
C -20.018900 -25.576300 -37.902000
C -19.195200 -25.567900 -35.199200
H -18.921800 -25.576100 -34.289500
C -18.663700 -25.561600 -37.585900
C -18.257700 -25.579500 -36.227300
H -17.873100 -25.443000 -40.367100
C -17.444800 -25.516100 -38.369600
H -17.287000 -24.402300 -42.229500
C -17.165800 -25.429100 -39.733000
F -16.983000 -24.096700 -44.723900
N -16.879800 -25.565800 -36.154600
C -16.428100 -24.686000 -42.519800
C -16.379900 -25.518500 -37.436600
H -16.333400 -25.616800 -35.436900
C -16.070600 -24.593200 -43.851900
C -15.836400 -25.321300 -40.162800
C -15.500000 -25.207000 -41.601800
C -15.047500 -25.418500 -37.847500
C -14.836800 -24.972300 -44.350100
C -14.799200 -25.311900 -39.204200
H -14.615500 -24.892000 -45.270500
H -14.337000 -25.423800 -37.216900
C -14.242100 -25.608900 -42.079300
C -13.951700 -25.473300 -43.423600
H -13.900600 -25.229400 -39.501200
H -13.596500 -25.970700 -41.483700
F -12.731300 -25.879000 -43.851900
84
Fragment
H -22.234700 -22.295500 -38.013600
F -21.742300 -22.752200 -40.471000
C -21.311500 -22.233900 -38.228700
C -20.836700 -22.447100 -39.507000
F -20.771200 -21.687400 -36.014300
C -20.353400 -21.925000 -37.284600
C -19.501200 -22.392500 -39.851500
H -19.224700 -22.583900 -40.740200
C -19.007700 -21.809400 -37.564000
C -18.558700 -22.050600 -38.872100
H -18.393000 -21.569900 -36.880500
H -17.365800 -21.563500 -41.204300
C -17.115300 -21.948900 -39.207000
C -16.703400 -21.702900 -40.537700
H -16.401700 -22.254400 -37.314000
C -16.144200 -22.101400 -38.215400
C -15.367900 -21.658500 -40.902800
H -15.111100 -21.505100 -41.804500
C -14.794100 -22.028200 -38.556700
C -14.413300 -21.845900 -39.906000
H -13.985800 -22.307100 -35.804900
C -13.567700 -22.144100 -37.798700
C -13.281700 -22.249500 -36.440000
H -13.236000 -21.253700 -33.907000
N -13.033200 -21.870800 -40.005000
F -12.873600 -21.081200 -31.413500
H -12.524800 -21.878800 -40.720500
C -12.508600 -22.054500 -38.739000
C -12.426000 -21.670900 -33.638100
C -12.044700 -21.673100 -32.315700
C -11.945900 -22.269500 -36.019100
C -11.597600 -22.295100 -34.581500
C -11.176900 -22.099200 -38.340900
C -10.915300 -22.200000 -36.983600
C -10.879100 -22.244200 -31.846800
H -10.633900 -22.216700 -30.929400
H -10.471900 -22.062000 -38.976500
C -10.416800 -22.905300 -34.141400
C -10.095300 -22.857100 -32.800600
H -10.011700 -22.223200 -36.691400
H -9.844500 -23.346600 -34.757900
F -8.948500 -23.451000 -32.397900
H -26.138700 -25.739400 -37.964700
F -25.595100 -26.189000 -35.506400
C -25.209800 -25.701200 -37.769400
C -24.711400 -25.907500 -36.501900
F -24.696500 -25.234600 -40.002200
C -24.261600 -25.435700 -38.732500
C -23.369800 -25.873300 -36.182800
H -23.083500 -26.041300 -35.292800
C -22.910300 -25.355000 -38.487400
C -22.430900 -25.587200 -37.188900
H -22.307400 -25.143800 -39.190500
H -21.182900 -25.513500 -34.843500
C -20.975400 -25.564300 -36.882600
C -20.535000 -25.544300 -35.537700
H -20.294100 -25.594600 -38.811100
C -20.018900 -25.576300 -37.902000
C -19.195200 -25.567900 -35.199200
H -18.921800 -25.576100 -34.289500
C -18.663700 -25.561600 -37.585900
C -18.257700 -25.579500 -36.227300
H -17.873100 -25.443000 -40.367100
C -17.444800 -25.516100 -38.369600
H -17.287000 -24.402300 -42.229500
C -17.165800 -25.429100 -39.733000
F -16.983000 -24.096700 -44.723900
N -16.879800 -25.565800 -36.154600
C -16.428100 -24.686000 -42.519800
C -16.379900 -25.518500 -37.436600
H -16.333400 -25.616800 -35.436900
C -16.070600 -24.593200 -43.851900
C -15.836400 -25.321300 -40.162800
C -15.500000 -25.207000 -41.601800
C -15.047500 -25.418500 -37.847500
C -14.836800 -24.972300 -44.350100
C -14.799200 -25.311900 -39.204200
H -14.615500 -24.892000 -45.270500
H -14.337000 -25.423800 -37.216900
C -14.242100 -25.608900 -42.079300
C -13.951700 -25.473300 -43.423600
H -13.900600 -25.229400 -39.501200
H -13.596500 -25.970700 -41.483700
F -12.731300 -25.879000 -43.851900
