42
Fragment
H -22.234700 -22.295500 -38.013600
F -21.742300 -22.752200 -40.471000
C -21.311500 -22.233900 -38.228700
C -20.836700 -22.447100 -39.507000
F -20.771200 -21.687400 -36.014300
C -20.353400 -21.925000 -37.284600
C -19.501200 -22.392500 -39.851500
H -19.224700 -22.583900 -40.740200
C -19.007700 -21.809400 -37.564000
C -18.558700 -22.050600 -38.872100
H -18.393000 -21.569900 -36.880500
H -17.365800 -21.563500 -41.204300
C -17.115300 -21.948900 -39.207000
C -16.703400 -21.702900 -40.537700
H -16.401700 -22.254400 -37.314000
C -16.144200 -22.101400 -38.215400
C -15.367900 -21.658500 -40.902800
H -15.111100 -21.505100 -41.804500
C -14.794100 -22.028200 -38.556700
C -14.413300 -21.845900 -39.906000
H -13.985800 -22.307100 -35.804900
C -13.567700 -22.144100 -37.798700
C -13.281700 -22.249500 -36.440000
H -13.236000 -21.253700 -33.907000
N -13.033200 -21.870800 -40.005000
F -12.873600 -21.081200 -31.413500
H -12.524800 -21.878800 -40.720500
C -12.508600 -22.054500 -38.739000
C -12.426000 -21.670900 -33.638100
C -12.044700 -21.673100 -32.315700
C -11.945900 -22.269500 -36.019100
C -11.597600 -22.295100 -34.581500
C -11.176900 -22.099200 -38.340900
C -10.915300 -22.200000 -36.983600
C -10.879100 -22.244200 -31.846800
H -10.633900 -22.216700 -30.929400
H -10.471900 -22.062000 -38.976500
C -10.416800 -22.905300 -34.141400
C -10.095300 -22.857100 -32.800600
H -10.011700 -22.223200 -36.691400
H -9.844500 -23.346600 -34.757900
F -8.948500 -23.451000 -32.397900
42
Fragment
H -31.926500 -18.695600 -37.996200
F -31.441600 -19.323100 -35.574800
C -30.999200 -18.705300 -37.790000
C -30.525900 -19.020600 -36.531400
F -30.441000 -18.065000 -39.974200
C -30.032300 -18.405400 -38.726200
C -29.187500 -19.045000 -36.197600
H -28.918000 -19.278000 -35.316900
C -28.681500 -18.390800 -38.452700
C -28.230300 -18.724100 -37.166100
H -28.059300 -18.156600 -39.131300
H -26.999200 -18.528600 -34.826700
C -26.782900 -18.720800 -36.854400
C -26.347800 -18.603500 -35.514200
H -26.097500 -18.901200 -38.774600
C -25.824700 -18.811200 -37.869200
C -25.009400 -18.593500 -35.167100
H -24.738900 -18.530900 -34.258500
C -24.472500 -18.769400 -37.550300
C -24.067100 -18.678400 -36.196900
H -23.687000 -18.897600 -40.328000
C -23.252000 -18.817200 -38.329600
C -22.977600 -18.869400 -39.696700
H -22.919200 -17.864400 -42.271900
N -22.693500 -18.667400 -36.120700
F -22.603400 -17.862500 -44.784700
H -22.274200 -18.743300 -35.334900
C -22.180700 -18.754900 -37.398200
C -22.137100 -18.336700 -42.531900
C -21.784400 -18.436500 -43.862300
C -21.647900 -18.879600 -40.128300
C -21.317500 -18.946600 -41.572700
C -20.851700 -18.753300 -37.814700
C -20.665700 -19.099800 -44.321700
C -20.603700 -18.816500 -39.178200
H -20.449000 -19.148800 -45.245300
C -20.172300 -19.631800 -42.003300
H -20.139900 -18.710300 -37.187000
C -19.882700 -19.687500 -43.349200
H -19.703600 -18.817500 -39.482700
H -19.601000 -20.054000 -41.372500
F -18.776600 -20.363400 -43.738800
84
Fragment
H -22.234700 -22.295500 -38.013600
F -21.742300 -22.752200 -40.471000
C -21.311500 -22.233900 -38.228700
C -20.836700 -22.447100 -39.507000
F -20.771200 -21.687400 -36.014300
C -20.353400 -21.925000 -37.284600
C -19.501200 -22.392500 -39.851500
H -19.224700 -22.583900 -40.740200
C -19.007700 -21.809400 -37.564000
C -18.558700 -22.050600 -38.872100
H -18.393000 -21.569900 -36.880500
H -17.365800 -21.563500 -41.204300
C -17.115300 -21.948900 -39.207000
C -16.703400 -21.702900 -40.537700
H -16.401700 -22.254400 -37.314000
C -16.144200 -22.101400 -38.215400
C -15.367900 -21.658500 -40.902800
H -15.111100 -21.505100 -41.804500
C -14.794100 -22.028200 -38.556700
C -14.413300 -21.845900 -39.906000
H -13.985800 -22.307100 -35.804900
C -13.567700 -22.144100 -37.798700
C -13.281700 -22.249500 -36.440000
H -13.236000 -21.253700 -33.907000
N -13.033200 -21.870800 -40.005000
F -12.873600 -21.081200 -31.413500
H -12.524800 -21.878800 -40.720500
C -12.508600 -22.054500 -38.739000
C -12.426000 -21.670900 -33.638100
C -12.044700 -21.673100 -32.315700
C -11.945900 -22.269500 -36.019100
C -11.597600 -22.295100 -34.581500
C -11.176900 -22.099200 -38.340900
C -10.915300 -22.200000 -36.983600
C -10.879100 -22.244200 -31.846800
H -10.633900 -22.216700 -30.929400
H -10.471900 -22.062000 -38.976500
C -10.416800 -22.905300 -34.141400
C -10.095300 -22.857100 -32.800600
H -10.011700 -22.223200 -36.691400
H -9.844500 -23.346600 -34.757900
F -8.948500 -23.451000 -32.397900
H -31.926500 -18.695600 -37.996200
F -31.441600 -19.323100 -35.574800
C -30.999200 -18.705300 -37.790000
C -30.525900 -19.020600 -36.531400
F -30.441000 -18.065000 -39.974200
C -30.032300 -18.405400 -38.726200
C -29.187500 -19.045000 -36.197600
H -28.918000 -19.278000 -35.316900
C -28.681500 -18.390800 -38.452700
C -28.230300 -18.724100 -37.166100
H -28.059300 -18.156600 -39.131300
H -26.999200 -18.528600 -34.826700
C -26.782900 -18.720800 -36.854400
C -26.347800 -18.603500 -35.514200
H -26.097500 -18.901200 -38.774600
C -25.824700 -18.811200 -37.869200
C -25.009400 -18.593500 -35.167100
H -24.738900 -18.530900 -34.258500
C -24.472500 -18.769400 -37.550300
C -24.067100 -18.678400 -36.196900
H -23.687000 -18.897600 -40.328000
C -23.252000 -18.817200 -38.329600
C -22.977600 -18.869400 -39.696700
H -22.919200 -17.864400 -42.271900
N -22.693500 -18.667400 -36.120700
F -22.603400 -17.862500 -44.784700
H -22.274200 -18.743300 -35.334900
C -22.180700 -18.754900 -37.398200
C -22.137100 -18.336700 -42.531900
C -21.784400 -18.436500 -43.862300
C -21.647900 -18.879600 -40.128300
C -21.317500 -18.946600 -41.572700
C -20.851700 -18.753300 -37.814700
C -20.665700 -19.099800 -44.321700
C -20.603700 -18.816500 -39.178200
H -20.449000 -19.148800 -45.245300
C -20.172300 -19.631800 -42.003300
H -20.139900 -18.710300 -37.187000
C -19.882700 -19.687500 -43.349200
H -19.703600 -18.817500 -39.482700
H -19.601000 -20.054000 -41.372500
F -18.776600 -20.363400 -43.738800
