42
Fragment
H -22.234700 -22.295500 -38.013600
F -21.742300 -22.752200 -40.471000
C -21.311500 -22.233900 -38.228700
C -20.836700 -22.447100 -39.507000
F -20.771200 -21.687400 -36.014300
C -20.353400 -21.925000 -37.284600
C -19.501200 -22.392500 -39.851500
H -19.224700 -22.583900 -40.740200
C -19.007700 -21.809400 -37.564000
C -18.558700 -22.050600 -38.872100
H -18.393000 -21.569900 -36.880500
H -17.365800 -21.563500 -41.204300
C -17.115300 -21.948900 -39.207000
C -16.703400 -21.702900 -40.537700
H -16.401700 -22.254400 -37.314000
C -16.144200 -22.101400 -38.215400
C -15.367900 -21.658500 -40.902800
H -15.111100 -21.505100 -41.804500
C -14.794100 -22.028200 -38.556700
C -14.413300 -21.845900 -39.906000
H -13.985800 -22.307100 -35.804900
C -13.567700 -22.144100 -37.798700
C -13.281700 -22.249500 -36.440000
H -13.236000 -21.253700 -33.907000
N -13.033200 -21.870800 -40.005000
F -12.873600 -21.081200 -31.413500
H -12.524800 -21.878800 -40.720500
C -12.508600 -22.054500 -38.739000
C -12.426000 -21.670900 -33.638100
C -12.044700 -21.673100 -32.315700
C -11.945900 -22.269500 -36.019100
C -11.597600 -22.295100 -34.581500
C -11.176900 -22.099200 -38.340900
C -10.915300 -22.200000 -36.983600
C -10.879100 -22.244200 -31.846800
H -10.633900 -22.216700 -30.929400
H -10.471900 -22.062000 -38.976500
C -10.416800 -22.905300 -34.141400
C -10.095300 -22.857100 -32.800600
H -10.011700 -22.223200 -36.691400
H -9.844500 -23.346600 -34.757900
F -8.948500 -23.451000 -32.397900
42
Fragment
H -36.252600 -22.295500 -38.013600
F -35.760200 -22.752200 -40.471000
C -35.329400 -22.233900 -38.228700
C -34.854600 -22.447100 -39.507000
F -34.789100 -21.687400 -36.014300
C -34.371300 -21.925000 -37.284600
C -33.519100 -22.392500 -39.851500
H -33.242600 -22.583900 -40.740200
C -33.025600 -21.809400 -37.564000
C -32.576600 -22.050600 -38.872100
H -32.410900 -21.569900 -36.880500
H -31.383700 -21.563500 -41.204300
C -31.133200 -21.948900 -39.207000
C -30.721300 -21.702900 -40.537700
H -30.419600 -22.254400 -37.314000
C -30.162100 -22.101400 -38.215400
C -29.385800 -21.658500 -40.902800
H -29.129000 -21.505100 -41.804500
C -28.812000 -22.028200 -38.556700
C -28.431200 -21.845900 -39.906000
H -28.003700 -22.307100 -35.804900
C -27.585600 -22.144100 -37.798700
C -27.299600 -22.249500 -36.440000
H -27.253900 -21.253700 -33.907000
N -27.051100 -21.870800 -40.005000
F -26.891500 -21.081200 -31.413500
H -26.542700 -21.878800 -40.720500
C -26.526500 -22.054500 -38.739000
C -26.443900 -21.670900 -33.638100
C -26.062600 -21.673100 -32.315700
C -25.963800 -22.269500 -36.019100
C -25.615500 -22.295100 -34.581500
C -25.194800 -22.099200 -38.340900
C -24.933200 -22.200000 -36.983600
C -24.897000 -22.244200 -31.846800
H -24.651800 -22.216700 -30.929400
H -24.489800 -22.062000 -38.976500
C -24.434700 -22.905300 -34.141400
C -24.113200 -22.857100 -32.800600
H -24.029600 -22.223200 -36.691400
H -23.862400 -23.346600 -34.757900
F -22.966400 -23.451000 -32.397900
84
Fragment
H -22.234700 -22.295500 -38.013600
F -21.742300 -22.752200 -40.471000
C -21.311500 -22.233900 -38.228700
C -20.836700 -22.447100 -39.507000
F -20.771200 -21.687400 -36.014300
C -20.353400 -21.925000 -37.284600
C -19.501200 -22.392500 -39.851500
H -19.224700 -22.583900 -40.740200
C -19.007700 -21.809400 -37.564000
C -18.558700 -22.050600 -38.872100
H -18.393000 -21.569900 -36.880500
H -17.365800 -21.563500 -41.204300
C -17.115300 -21.948900 -39.207000
C -16.703400 -21.702900 -40.537700
H -16.401700 -22.254400 -37.314000
C -16.144200 -22.101400 -38.215400
C -15.367900 -21.658500 -40.902800
H -15.111100 -21.505100 -41.804500
C -14.794100 -22.028200 -38.556700
C -14.413300 -21.845900 -39.906000
H -13.985800 -22.307100 -35.804900
C -13.567700 -22.144100 -37.798700
C -13.281700 -22.249500 -36.440000
H -13.236000 -21.253700 -33.907000
N -13.033200 -21.870800 -40.005000
F -12.873600 -21.081200 -31.413500
H -12.524800 -21.878800 -40.720500
C -12.508600 -22.054500 -38.739000
C -12.426000 -21.670900 -33.638100
C -12.044700 -21.673100 -32.315700
C -11.945900 -22.269500 -36.019100
C -11.597600 -22.295100 -34.581500
C -11.176900 -22.099200 -38.340900
C -10.915300 -22.200000 -36.983600
C -10.879100 -22.244200 -31.846800
H -10.633900 -22.216700 -30.929400
H -10.471900 -22.062000 -38.976500
C -10.416800 -22.905300 -34.141400
C -10.095300 -22.857100 -32.800600
H -10.011700 -22.223200 -36.691400
H -9.844500 -23.346600 -34.757900
F -8.948500 -23.451000 -32.397900
H -36.252600 -22.295500 -38.013600
F -35.760200 -22.752200 -40.471000
C -35.329400 -22.233900 -38.228700
C -34.854600 -22.447100 -39.507000
F -34.789100 -21.687400 -36.014300
C -34.371300 -21.925000 -37.284600
C -33.519100 -22.392500 -39.851500
H -33.242600 -22.583900 -40.740200
C -33.025600 -21.809400 -37.564000
C -32.576600 -22.050600 -38.872100
H -32.410900 -21.569900 -36.880500
H -31.383700 -21.563500 -41.204300
C -31.133200 -21.948900 -39.207000
C -30.721300 -21.702900 -40.537700
H -30.419600 -22.254400 -37.314000
C -30.162100 -22.101400 -38.215400
C -29.385800 -21.658500 -40.902800
H -29.129000 -21.505100 -41.804500
C -28.812000 -22.028200 -38.556700
C -28.431200 -21.845900 -39.906000
H -28.003700 -22.307100 -35.804900
C -27.585600 -22.144100 -37.798700
C -27.299600 -22.249500 -36.440000
H -27.253900 -21.253700 -33.907000
N -27.051100 -21.870800 -40.005000
F -26.891500 -21.081200 -31.413500
H -26.542700 -21.878800 -40.720500
C -26.526500 -22.054500 -38.739000
C -26.443900 -21.670900 -33.638100
C -26.062600 -21.673100 -32.315700
C -25.963800 -22.269500 -36.019100
C -25.615500 -22.295100 -34.581500
C -25.194800 -22.099200 -38.340900
C -24.933200 -22.200000 -36.983600
C -24.897000 -22.244200 -31.846800
H -24.651800 -22.216700 -30.929400
H -24.489800 -22.062000 -38.976500
C -24.434700 -22.905300 -34.141400
C -24.113200 -22.857100 -32.800600
H -24.029600 -22.223200 -36.691400
H -23.862400 -23.346600 -34.757900
F -22.966400 -23.451000 -32.397900
