42
Fragment
H -22.234700 -22.295500 -38.013600
F -21.742300 -22.752200 -40.471000
C -21.311500 -22.233900 -38.228700
C -20.836700 -22.447100 -39.507000
F -20.771200 -21.687400 -36.014300
C -20.353400 -21.925000 -37.284600
C -19.501200 -22.392500 -39.851500
H -19.224700 -22.583900 -40.740200
C -19.007700 -21.809400 -37.564000
C -18.558700 -22.050600 -38.872100
H -18.393000 -21.569900 -36.880500
H -17.365800 -21.563500 -41.204300
C -17.115300 -21.948900 -39.207000
C -16.703400 -21.702900 -40.537700
H -16.401700 -22.254400 -37.314000
C -16.144200 -22.101400 -38.215400
C -15.367900 -21.658500 -40.902800
H -15.111100 -21.505100 -41.804500
C -14.794100 -22.028200 -38.556700
C -14.413300 -21.845900 -39.906000
H -13.985800 -22.307100 -35.804900
C -13.567700 -22.144100 -37.798700
C -13.281700 -22.249500 -36.440000
H -13.236000 -21.253700 -33.907000
N -13.033200 -21.870800 -40.005000
F -12.873600 -21.081200 -31.413500
H -12.524800 -21.878800 -40.720500
C -12.508600 -22.054500 -38.739000
C -12.426000 -21.670900 -33.638100
C -12.044700 -21.673100 -32.315700
C -11.945900 -22.269500 -36.019100
C -11.597600 -22.295100 -34.581500
C -11.176900 -22.099200 -38.340900
C -10.915300 -22.200000 -36.983600
C -10.879100 -22.244200 -31.846800
H -10.633900 -22.216700 -30.929400
H -10.471900 -22.062000 -38.976500
C -10.416800 -22.905300 -34.141400
C -10.095300 -22.857100 -32.800600
H -10.011700 -22.223200 -36.691400
H -9.844500 -23.346600 -34.757900
F -8.948500 -23.451000 -32.397900
42
Fragment
F -16.717300 -27.179700 -21.382600
H -15.892900 -26.870200 -23.748900
H -15.790200 -25.633700 -25.638800
C -15.611200 -26.503800 -21.772300
H -15.354000 -25.526600 -27.934500
C -15.321600 -26.448000 -23.118100
H -15.044900 -25.965000 -19.876200
C -14.890200 -25.632800 -25.943300
C -14.828200 -25.916100 -20.799800
C -14.642200 -25.569500 -27.306700
C -14.176400 -25.762800 -23.548800
C -13.846000 -25.695900 -24.993200
C -13.709500 -25.252700 -21.259100
C -13.356800 -25.152900 -22.589600
C -13.313200 -25.571200 -27.723300
H -13.219700 -25.559600 -29.786600
F -12.890500 -24.678800 -20.336800
N -12.800400 -25.483600 -29.000800
H -12.574700 -24.680700 -22.849600
C -12.516300 -25.685700 -25.424700
C -12.241900 -25.633500 -26.791800
H -11.806800 -25.713900 -24.793500
C -11.426800 -25.494700 -28.924600
C -11.021400 -25.585600 -27.571100
H -10.755000 -25.347200 -30.863000
C -10.484400 -25.409800 -29.954400
C -9.669200 -25.627500 -27.252200
H -9.396400 -25.717400 -26.346800
C -9.146100 -25.419700 -29.607300
C -8.711000 -25.537100 -28.267100
H -8.494700 -25.344900 -30.294700
H -7.434600 -24.972800 -25.990200
C -7.263600 -25.540400 -27.955300
C -6.812400 -25.207000 -26.668800
H -6.575900 -26.094200 -29.804600
C -6.306400 -25.861300 -28.923900
C -5.461500 -25.221600 -26.395300
F -5.052900 -24.881200 -25.147300
C -4.968000 -25.836900 -28.590100
C -4.494700 -25.521500 -27.331500
F -4.052300 -26.139400 -29.546700
H -3.567400 -25.511900 -27.125300
84
Fragment
H -22.234700 -22.295500 -38.013600
F -21.742300 -22.752200 -40.471000
C -21.311500 -22.233900 -38.228700
C -20.836700 -22.447100 -39.507000
F -20.771200 -21.687400 -36.014300
C -20.353400 -21.925000 -37.284600
C -19.501200 -22.392500 -39.851500
H -19.224700 -22.583900 -40.740200
C -19.007700 -21.809400 -37.564000
C -18.558700 -22.050600 -38.872100
H -18.393000 -21.569900 -36.880500
H -17.365800 -21.563500 -41.204300
C -17.115300 -21.948900 -39.207000
C -16.703400 -21.702900 -40.537700
H -16.401700 -22.254400 -37.314000
C -16.144200 -22.101400 -38.215400
C -15.367900 -21.658500 -40.902800
H -15.111100 -21.505100 -41.804500
C -14.794100 -22.028200 -38.556700
C -14.413300 -21.845900 -39.906000
H -13.985800 -22.307100 -35.804900
C -13.567700 -22.144100 -37.798700
C -13.281700 -22.249500 -36.440000
H -13.236000 -21.253700 -33.907000
N -13.033200 -21.870800 -40.005000
F -12.873600 -21.081200 -31.413500
H -12.524800 -21.878800 -40.720500
C -12.508600 -22.054500 -38.739000
C -12.426000 -21.670900 -33.638100
C -12.044700 -21.673100 -32.315700
C -11.945900 -22.269500 -36.019100
C -11.597600 -22.295100 -34.581500
C -11.176900 -22.099200 -38.340900
C -10.915300 -22.200000 -36.983600
C -10.879100 -22.244200 -31.846800
H -10.633900 -22.216700 -30.929400
H -10.471900 -22.062000 -38.976500
C -10.416800 -22.905300 -34.141400
C -10.095300 -22.857100 -32.800600
H -10.011700 -22.223200 -36.691400
H -9.844500 -23.346600 -34.757900
F -8.948500 -23.451000 -32.397900
F -16.717300 -27.179700 -21.382600
H -15.892900 -26.870200 -23.748900
H -15.790200 -25.633700 -25.638800
C -15.611200 -26.503800 -21.772300
H -15.354000 -25.526600 -27.934500
C -15.321600 -26.448000 -23.118100
H -15.044900 -25.965000 -19.876200
C -14.890200 -25.632800 -25.943300
C -14.828200 -25.916100 -20.799800
C -14.642200 -25.569500 -27.306700
C -14.176400 -25.762800 -23.548800
C -13.846000 -25.695900 -24.993200
C -13.709500 -25.252700 -21.259100
C -13.356800 -25.152900 -22.589600
C -13.313200 -25.571200 -27.723300
H -13.219700 -25.559600 -29.786600
F -12.890500 -24.678800 -20.336800
N -12.800400 -25.483600 -29.000800
H -12.574700 -24.680700 -22.849600
C -12.516300 -25.685700 -25.424700
C -12.241900 -25.633500 -26.791800
H -11.806800 -25.713900 -24.793500
C -11.426800 -25.494700 -28.924600
C -11.021400 -25.585600 -27.571100
H -10.755000 -25.347200 -30.863000
C -10.484400 -25.409800 -29.954400
C -9.669200 -25.627500 -27.252200
H -9.396400 -25.717400 -26.346800
C -9.146100 -25.419700 -29.607300
C -8.711000 -25.537100 -28.267100
H -8.494700 -25.344900 -30.294700
H -7.434600 -24.972800 -25.990200
C -7.263600 -25.540400 -27.955300
C -6.812400 -25.207000 -26.668800
H -6.575900 -26.094200 -29.804600
C -6.306400 -25.861300 -28.923900
C -5.461500 -25.221600 -26.395300
F -5.052900 -24.881200 -25.147300
C -4.968000 -25.836900 -28.590100
C -4.494700 -25.521500 -27.331500
F -4.052300 -26.139400 -29.546700
H -3.567400 -25.511900 -27.125300
