10
Fragment
O -22.545500 -27.844100 -10.907000
C -21.340400 -27.904300 -10.968400
H -20.831200 -29.958600 -11.167900
H -20.753100 -25.961900 -10.908300
N -20.494800 -26.826200 -10.919600
C -20.468500 -29.102700 -11.109800
C -19.227400 -28.709600 -11.134400
C -19.197400 -27.232900 -11.031900
H -18.418000 -29.199900 -11.270300
O -18.231700 -26.502400 -11.058600
15
Fragment
H -24.221900 -24.500200 -10.587300
H -23.788400 -22.195500 -10.881000
N -23.421500 -24.719300 -10.797700
H -23.139300 -25.624700 -10.730700
C -22.886600 -22.379500 -10.940400
C -22.505100 -23.717500 -10.894600
H -22.140600 -20.505500 -11.099600
C -21.909900 -21.436900 -11.073600
N -21.224100 -24.095400 -10.960600
C -20.594600 -21.794600 -11.176100
C -20.281000 -23.148600 -11.101600
H -19.887900 -21.165500 -11.249800
N -18.994800 -23.578900 -11.135800
H -18.781700 -24.498100 -11.113200
H -18.339500 -23.007600 -11.290800
25
Fragment
O -22.545500 -27.844100 -10.907000
C -21.340400 -27.904300 -10.968400
H -20.831200 -29.958600 -11.167900
H -20.753100 -25.961900 -10.908300
N -20.494800 -26.826200 -10.919600
C -20.468500 -29.102700 -11.109800
C -19.227400 -28.709600 -11.134400
C -19.197400 -27.232900 -11.031900
H -18.418000 -29.199900 -11.270300
O -18.231700 -26.502400 -11.058600
H -24.221900 -24.500200 -10.587300
H -23.788400 -22.195500 -10.881000
N -23.421500 -24.719300 -10.797700
H -23.139300 -25.624700 -10.730700
C -22.886600 -22.379500 -10.940400
C -22.505100 -23.717500 -10.894600
H -22.140600 -20.505500 -11.099600
C -21.909900 -21.436900 -11.073600
N -21.224100 -24.095400 -10.960600
C -20.594600 -21.794600 -11.176100
C -20.281000 -23.148600 -11.101600
H -19.887900 -21.165500 -11.249800
N -18.994800 -23.578900 -11.135800
H -18.781700 -24.498100 -11.113200
H -18.339500 -23.007600 -11.290800
