13
Fragment
N -13.771700 -6.044900 -26.413300
N -13.098600 -5.826100 -25.290900
N -13.008200 -5.707200 -27.456200
N -11.886400 -5.348400 -25.586400
C -11.869100 -5.288100 -26.919100
H -11.552300 -5.151400 -29.411000
N -10.814100 -4.888600 -29.035000
C -10.739800 -4.830100 -27.724200
H -9.985100 -4.633700 -29.536300
N -9.685400 -4.378800 -27.108800
H -9.592200 -4.158900 -26.251500
O -8.665400 -3.861600 -27.892500
H -7.903200 -4.419500 -27.771100
3
Fragment
H -6.947200 -2.284700 -26.485300
O -6.646600 -1.805700 -27.147600
H -5.866500 -1.431500 -26.919500
16
Fragment
N -13.771700 -6.044900 -26.413300
N -13.098600 -5.826100 -25.290900
N -13.008200 -5.707200 -27.456200
N -11.886400 -5.348400 -25.586400
C -11.869100 -5.288100 -26.919100
H -11.552300 -5.151400 -29.411000
N -10.814100 -4.888600 -29.035000
C -10.739800 -4.830100 -27.724200
H -9.985100 -4.633700 -29.536300
N -9.685400 -4.378800 -27.108800
H -9.592200 -4.158900 -26.251500
O -8.665400 -3.861600 -27.892500
H -7.903200 -4.419500 -27.771100
H -6.947200 -2.284700 -26.485300
O -6.646600 -1.805700 -27.147600
H -5.866500 -1.431500 -26.919500
