3
Fragment
O -6.071700 -12.133700 -21.919000
H -5.996200 -11.335900 -21.708100
H -5.942400 -12.828800 -21.513700
3
Fragment
H -6.970800 -12.483500 -24.817100
O -6.707600 -13.148800 -24.384100
H -6.521900 -12.866100 -23.651200
6
Fragment
O -6.071700 -12.133700 -21.919000
H -5.996200 -11.335900 -21.708100
H -5.942400 -12.828800 -21.513700
H -6.970800 -12.483500 -24.817100
O -6.707600 -13.148800 -24.384100
H -6.521900 -12.866100 -23.651200
