3
Fragment
O -6.071700 -12.133700 -21.919000
H -5.996200 -11.335900 -21.708100
H -5.942400 -12.828800 -21.513700
15
Fragment
O -3.499600 -14.609800 -24.685300
N -3.373400 -12.073000 -23.917300
H -3.328400 -10.085700 -23.665100
N -3.177700 -10.934800 -23.241100
N -3.146000 -14.403700 -23.544400
C -3.071100 -13.036800 -23.080800
O -2.807000 -15.265700 -22.755800
C -2.743400 -11.183900 -21.984300
C -2.664300 -12.540500 -21.835800
C -2.343700 -10.308700 -20.916900
O -2.309000 -9.081800 -20.909400
N -2.252500 -13.182400 -20.669300
N -1.969900 -11.077500 -19.813500
N -1.914800 -12.427600 -19.684400
H -1.654300 -10.701500 -18.932100
18
Fragment
O -6.071700 -12.133700 -21.919000
H -5.996200 -11.335900 -21.708100
H -5.942400 -12.828800 -21.513700
O -3.499600 -14.609800 -24.685300
N -3.373400 -12.073000 -23.917300
H -3.328400 -10.085700 -23.665100
N -3.177700 -10.934800 -23.241100
N -3.146000 -14.403700 -23.544400
C -3.071100 -13.036800 -23.080800
O -2.807000 -15.265700 -22.755800
C -2.743400 -11.183900 -21.984300
C -2.664300 -12.540500 -21.835800
C -2.343700 -10.308700 -20.916900
O -2.309000 -9.081800 -20.909400
N -2.252500 -13.182400 -20.669300
N -1.969900 -11.077500 -19.813500
N -1.914800 -12.427600 -19.684400
H -1.654300 -10.701500 -18.932100
