34
Fragment
H -24.187200 -12.371400 -24.040700
H -23.936900 -12.330100 -25.587300
O -23.926000 -14.808800 -16.506100
C -23.515400 -12.328600 -24.724600
N -23.315400 -13.770200 -16.558800
H -23.307900 -15.037100 -18.834000
H -23.223100 -11.342900 -21.935800
O -23.101900 -13.066800 -15.605200
H -22.934900 -13.089900 -24.651900
C -22.910300 -14.202700 -18.938100
C -22.803700 -13.344900 -17.877100
C -22.724800 -11.087200 -24.564900
H -22.486400 -14.386600 -20.893200
C -22.417400 -13.807900 -20.168100
N -22.404400 -11.091400 -22.077700
N -22.382400 -10.275100 -25.527000
N -22.263700 -10.582000 -23.380700
C -22.235000 -12.098000 -17.984000
H -22.174400 -11.523000 -17.255300
C -21.821600 -12.567100 -20.342500
O -21.768900 -9.484600 -18.819900
C -21.760300 -11.745100 -19.228700
N -21.669900 -9.212000 -24.965900
C -21.620600 -9.415300 -23.675600
H -21.611600 -8.279400 -22.020800
C -21.411400 -12.108600 -21.738300
O -21.368500 -13.207000 -22.600000
N -21.158800 -10.399000 -19.330400
C -20.970500 -8.541400 -22.686300
H -20.732500 -13.054200 -23.143500
H -20.628000 -7.760200 -23.126300
H -20.523800 -11.694600 -21.695500
H -20.249400 -9.014900 -22.266100
O -20.080600 -10.280100 -19.882200
34
Fragment
O -27.263700 -11.271300 -17.088200
H -27.094900 -12.536500 -14.704400
H -26.820500 -9.856800 -15.275000
H -26.716300 -13.791200 -13.844200
H -26.611800 -8.497200 -13.827000
C -26.373800 -13.010000 -14.284200
N -26.185500 -11.152400 -17.640100
O -25.975800 -8.344400 -14.370400
C -25.933000 -9.442800 -15.232200
H -25.732700 -13.272000 -14.949600
C -25.723700 -12.136100 -13.294800
N -25.674400 -12.339400 -12.004600
C -25.584000 -9.806300 -17.741800
O -25.575400 -12.066800 -18.150500
C -25.522700 -8.984300 -16.628000
H -25.170000 -10.028300 -19.715100
C -25.109300 -9.453400 -18.986400
N -25.080600 -10.969400 -13.589700
N -24.961900 -11.276300 -11.443500
N -24.939900 -10.460000 -14.892800
C -24.926900 -7.743500 -16.802300
H -24.857900 -7.164800 -16.077200
C -24.619500 -10.464200 -12.405600
C -24.540600 -8.206400 -19.093400
C -24.434100 -7.348700 -18.032300
H -24.409400 -8.461500 -12.318600
O -24.242400 -8.484600 -21.365200
H -24.121200 -10.208500 -15.034700
H -24.036400 -6.514300 -18.136500
N -24.028900 -7.781200 -20.411600
C -23.828900 -9.222800 -12.245900
O -23.418300 -6.742500 -20.464400
H -23.407400 -9.221300 -11.383200
H -23.157100 -9.180000 -12.929800
68
Fragment
H -24.187200 -12.371400 -24.040700
H -23.936900 -12.330100 -25.587300
O -23.926000 -14.808800 -16.506100
C -23.515400 -12.328600 -24.724600
N -23.315400 -13.770200 -16.558800
H -23.307900 -15.037100 -18.834000
H -23.223100 -11.342900 -21.935800
O -23.101900 -13.066800 -15.605200
H -22.934900 -13.089900 -24.651900
C -22.910300 -14.202700 -18.938100
C -22.803700 -13.344900 -17.877100
C -22.724800 -11.087200 -24.564900
H -22.486400 -14.386600 -20.893200
C -22.417400 -13.807900 -20.168100
N -22.404400 -11.091400 -22.077700
N -22.382400 -10.275100 -25.527000
N -22.263700 -10.582000 -23.380700
C -22.235000 -12.098000 -17.984000
H -22.174400 -11.523000 -17.255300
C -21.821600 -12.567100 -20.342500
O -21.768900 -9.484600 -18.819900
C -21.760300 -11.745100 -19.228700
N -21.669900 -9.212000 -24.965900
C -21.620600 -9.415300 -23.675600
H -21.611600 -8.279400 -22.020800
C -21.411400 -12.108600 -21.738300
O -21.368500 -13.207000 -22.600000
N -21.158800 -10.399000 -19.330400
C -20.970500 -8.541400 -22.686300
H -20.732500 -13.054200 -23.143500
H -20.628000 -7.760200 -23.126300
H -20.523800 -11.694600 -21.695500
H -20.249400 -9.014900 -22.266100
O -20.080600 -10.280100 -19.882200
O -27.263700 -11.271300 -17.088200
H -27.094900 -12.536500 -14.704400
H -26.820500 -9.856800 -15.275000
H -26.716300 -13.791200 -13.844200
H -26.611800 -8.497200 -13.827000
C -26.373800 -13.010000 -14.284200
N -26.185500 -11.152400 -17.640100
O -25.975800 -8.344400 -14.370400
C -25.933000 -9.442800 -15.232200
H -25.732700 -13.272000 -14.949600
C -25.723700 -12.136100 -13.294800
N -25.674400 -12.339400 -12.004600
C -25.584000 -9.806300 -17.741800
O -25.575400 -12.066800 -18.150500
C -25.522700 -8.984300 -16.628000
H -25.170000 -10.028300 -19.715100
C -25.109300 -9.453400 -18.986400
N -25.080600 -10.969400 -13.589700
N -24.961900 -11.276300 -11.443500
N -24.939900 -10.460000 -14.892800
C -24.926900 -7.743500 -16.802300
H -24.857900 -7.164800 -16.077200
C -24.619500 -10.464200 -12.405600
C -24.540600 -8.206400 -19.093400
C -24.434100 -7.348700 -18.032300
H -24.409400 -8.461500 -12.318600
O -24.242400 -8.484600 -21.365200
H -24.121200 -10.208500 -15.034700
H -24.036400 -6.514300 -18.136500
N -24.028900 -7.781200 -20.411600
C -23.828900 -9.222800 -12.245900
O -23.418300 -6.742500 -20.464400
H -23.407400 -9.221300 -11.383200
H -23.157100 -9.180000 -12.929800
