34
Fragment
H -24.187200 -12.371400 -24.040700
H -23.936900 -12.330100 -25.587300
O -23.926000 -14.808800 -16.506100
C -23.515400 -12.328600 -24.724600
N -23.315400 -13.770200 -16.558800
H -23.307900 -15.037100 -18.834000
H -23.223100 -11.342900 -21.935800
O -23.101900 -13.066800 -15.605200
H -22.934900 -13.089900 -24.651900
C -22.910300 -14.202700 -18.938100
C -22.803700 -13.344900 -17.877100
C -22.724800 -11.087200 -24.564900
H -22.486400 -14.386600 -20.893200
C -22.417400 -13.807900 -20.168100
N -22.404400 -11.091400 -22.077700
N -22.382400 -10.275100 -25.527000
N -22.263700 -10.582000 -23.380700
C -22.235000 -12.098000 -17.984000
H -22.174400 -11.523000 -17.255300
C -21.821600 -12.567100 -20.342500
O -21.768900 -9.484600 -18.819900
C -21.760300 -11.745100 -19.228700
N -21.669900 -9.212000 -24.965900
C -21.620600 -9.415300 -23.675600
H -21.611600 -8.279400 -22.020800
C -21.411400 -12.108600 -21.738300
O -21.368500 -13.207000 -22.600000
N -21.158800 -10.399000 -19.330400
C -20.970500 -8.541400 -22.686300
H -20.732500 -13.054200 -23.143500
H -20.628000 -7.760200 -23.126300
H -20.523800 -11.694600 -21.695500
H -20.249400 -9.014900 -22.266100
O -20.080600 -10.280100 -19.882200
34
Fragment
O -24.251500 -18.455100 -29.411700
H -24.082800 -19.720300 -27.027900
H -23.808300 -17.040600 -27.598500
H -23.704100 -20.975000 -26.167700
H -23.599600 -15.681000 -26.150400
C -23.361700 -20.193700 -26.607600
N -23.173300 -18.336200 -29.963600
O -22.963600 -15.528200 -26.693900
C -22.920800 -16.626600 -27.555700
H -22.720500 -20.455800 -27.273100
C -22.711600 -19.319900 -25.618300
N -22.662300 -19.523200 -24.328000
C -22.571900 -16.990100 -30.065200
O -22.563200 -19.250600 -30.474000
C -22.510600 -16.168100 -28.951400
H -22.157800 -17.212100 -32.038600
C -22.097100 -16.637200 -31.309900
N -22.068500 -18.153200 -25.913200
N -21.949700 -18.460100 -23.767000
N -21.927700 -17.643700 -27.216300
C -21.914700 -14.927300 -29.125800
H -21.845800 -14.348600 -28.400700
C -21.607300 -17.648000 -24.729100
C -21.528400 -15.390200 -31.416900
C -21.421900 -14.532500 -30.355800
H -21.397200 -15.645300 -24.642000
O -21.230300 -15.668400 -33.688700
H -21.109000 -17.392300 -27.358100
H -21.024200 -13.698100 -30.460000
N -21.016700 -14.965000 -32.735100
C -20.816700 -16.406600 -24.569300
O -20.406200 -13.926300 -32.787900
H -20.395200 -16.405100 -23.706700
H -20.144900 -16.363800 -25.253300
68
Fragment
H -24.187200 -12.371400 -24.040700
H -23.936900 -12.330100 -25.587300
O -23.926000 -14.808800 -16.506100
C -23.515400 -12.328600 -24.724600
N -23.315400 -13.770200 -16.558800
H -23.307900 -15.037100 -18.834000
H -23.223100 -11.342900 -21.935800
O -23.101900 -13.066800 -15.605200
H -22.934900 -13.089900 -24.651900
C -22.910300 -14.202700 -18.938100
C -22.803700 -13.344900 -17.877100
C -22.724800 -11.087200 -24.564900
H -22.486400 -14.386600 -20.893200
C -22.417400 -13.807900 -20.168100
N -22.404400 -11.091400 -22.077700
N -22.382400 -10.275100 -25.527000
N -22.263700 -10.582000 -23.380700
C -22.235000 -12.098000 -17.984000
H -22.174400 -11.523000 -17.255300
C -21.821600 -12.567100 -20.342500
O -21.768900 -9.484600 -18.819900
C -21.760300 -11.745100 -19.228700
N -21.669900 -9.212000 -24.965900
C -21.620600 -9.415300 -23.675600
H -21.611600 -8.279400 -22.020800
C -21.411400 -12.108600 -21.738300
O -21.368500 -13.207000 -22.600000
N -21.158800 -10.399000 -19.330400
C -20.970500 -8.541400 -22.686300
H -20.732500 -13.054200 -23.143500
H -20.628000 -7.760200 -23.126300
H -20.523800 -11.694600 -21.695500
H -20.249400 -9.014900 -22.266100
O -20.080600 -10.280100 -19.882200
O -24.251500 -18.455100 -29.411700
H -24.082800 -19.720300 -27.027900
H -23.808300 -17.040600 -27.598500
H -23.704100 -20.975000 -26.167700
H -23.599600 -15.681000 -26.150400
C -23.361700 -20.193700 -26.607600
N -23.173300 -18.336200 -29.963600
O -22.963600 -15.528200 -26.693900
C -22.920800 -16.626600 -27.555700
H -22.720500 -20.455800 -27.273100
C -22.711600 -19.319900 -25.618300
N -22.662300 -19.523200 -24.328000
C -22.571900 -16.990100 -30.065200
O -22.563200 -19.250600 -30.474000
C -22.510600 -16.168100 -28.951400
H -22.157800 -17.212100 -32.038600
C -22.097100 -16.637200 -31.309900
N -22.068500 -18.153200 -25.913200
N -21.949700 -18.460100 -23.767000
N -21.927700 -17.643700 -27.216300
C -21.914700 -14.927300 -29.125800
H -21.845800 -14.348600 -28.400700
C -21.607300 -17.648000 -24.729100
C -21.528400 -15.390200 -31.416900
C -21.421900 -14.532500 -30.355800
H -21.397200 -15.645300 -24.642000
O -21.230300 -15.668400 -33.688700
H -21.109000 -17.392300 -27.358100
H -21.024200 -13.698100 -30.460000
N -21.016700 -14.965000 -32.735100
C -20.816700 -16.406600 -24.569300
O -20.406200 -13.926300 -32.787900
H -20.395200 -16.405100 -23.706700
H -20.144900 -16.363800 -25.253300
