34
Fragment
H -24.187200 -12.371400 -24.040700
H -23.936900 -12.330100 -25.587300
O -23.926000 -14.808800 -16.506100
C -23.515400 -12.328600 -24.724600
N -23.315400 -13.770200 -16.558800
H -23.307900 -15.037100 -18.834000
H -23.223100 -11.342900 -21.935800
O -23.101900 -13.066800 -15.605200
H -22.934900 -13.089900 -24.651900
C -22.910300 -14.202700 -18.938100
C -22.803700 -13.344900 -17.877100
C -22.724800 -11.087200 -24.564900
H -22.486400 -14.386600 -20.893200
C -22.417400 -13.807900 -20.168100
N -22.404400 -11.091400 -22.077700
N -22.382400 -10.275100 -25.527000
N -22.263700 -10.582000 -23.380700
C -22.235000 -12.098000 -17.984000
H -22.174400 -11.523000 -17.255300
C -21.821600 -12.567100 -20.342500
O -21.768900 -9.484600 -18.819900
C -21.760300 -11.745100 -19.228700
N -21.669900 -9.212000 -24.965900
C -21.620600 -9.415300 -23.675600
H -21.611600 -8.279400 -22.020800
C -21.411400 -12.108600 -21.738300
O -21.368500 -13.207000 -22.600000
N -21.158800 -10.399000 -19.330400
C -20.970500 -8.541400 -22.686300
H -20.732500 -13.054200 -23.143500
H -20.628000 -7.760200 -23.126300
H -20.523800 -11.694600 -21.695500
H -20.249400 -9.014900 -22.266100
O -20.080600 -10.280100 -19.882200
34
Fragment
O -29.082700 -11.048400 -29.411700
H -28.913900 -12.313600 -27.027900
H -28.639500 -9.634000 -27.598500
H -28.535200 -13.568300 -26.167700
H -28.430800 -8.274400 -26.150400
C -28.192800 -12.787100 -26.607600
N -28.004400 -10.929600 -29.963600
O -27.794800 -8.121600 -26.693900
C -27.751900 -9.220000 -27.555700
H -27.551700 -13.049100 -27.273100
C -27.542700 -11.913200 -25.618300
N -27.493400 -12.116600 -24.328000
C -27.403000 -9.583400 -30.065200
O -27.394400 -11.844000 -30.474000
C -27.341700 -8.761400 -28.951400
H -26.988900 -9.805500 -32.038600
C -26.928300 -9.230600 -31.309900
N -26.899600 -10.746600 -25.913200
N -26.780800 -11.053500 -23.767000
N -26.758900 -10.237100 -27.216300
C -26.745900 -7.520600 -29.125800
H -26.676900 -6.942000 -28.400700
C -26.438400 -10.241400 -24.729100
C -26.359600 -7.983600 -31.416900
C -26.253000 -7.125900 -30.355800
H -26.228400 -8.238700 -24.642000
O -26.061400 -8.261800 -33.688700
H -25.940200 -9.985700 -27.358100
H -25.855400 -6.291500 -30.460000
N -25.847800 -7.558300 -32.735100
C -25.647800 -8.999900 -24.569300
O -25.237300 -6.519700 -32.787900
H -25.226400 -8.998500 -23.706700
H -24.976100 -8.957200 -25.253300
68
Fragment
H -24.187200 -12.371400 -24.040700
H -23.936900 -12.330100 -25.587300
O -23.926000 -14.808800 -16.506100
C -23.515400 -12.328600 -24.724600
N -23.315400 -13.770200 -16.558800
H -23.307900 -15.037100 -18.834000
H -23.223100 -11.342900 -21.935800
O -23.101900 -13.066800 -15.605200
H -22.934900 -13.089900 -24.651900
C -22.910300 -14.202700 -18.938100
C -22.803700 -13.344900 -17.877100
C -22.724800 -11.087200 -24.564900
H -22.486400 -14.386600 -20.893200
C -22.417400 -13.807900 -20.168100
N -22.404400 -11.091400 -22.077700
N -22.382400 -10.275100 -25.527000
N -22.263700 -10.582000 -23.380700
C -22.235000 -12.098000 -17.984000
H -22.174400 -11.523000 -17.255300
C -21.821600 -12.567100 -20.342500
O -21.768900 -9.484600 -18.819900
C -21.760300 -11.745100 -19.228700
N -21.669900 -9.212000 -24.965900
C -21.620600 -9.415300 -23.675600
H -21.611600 -8.279400 -22.020800
C -21.411400 -12.108600 -21.738300
O -21.368500 -13.207000 -22.600000
N -21.158800 -10.399000 -19.330400
C -20.970500 -8.541400 -22.686300
H -20.732500 -13.054200 -23.143500
H -20.628000 -7.760200 -23.126300
H -20.523800 -11.694600 -21.695500
H -20.249400 -9.014900 -22.266100
O -20.080600 -10.280100 -19.882200
O -29.082700 -11.048400 -29.411700
H -28.913900 -12.313600 -27.027900
H -28.639500 -9.634000 -27.598500
H -28.535200 -13.568300 -26.167700
H -28.430800 -8.274400 -26.150400
C -28.192800 -12.787100 -26.607600
N -28.004400 -10.929600 -29.963600
O -27.794800 -8.121600 -26.693900
C -27.751900 -9.220000 -27.555700
H -27.551700 -13.049100 -27.273100
C -27.542700 -11.913200 -25.618300
N -27.493400 -12.116600 -24.328000
C -27.403000 -9.583400 -30.065200
O -27.394400 -11.844000 -30.474000
C -27.341700 -8.761400 -28.951400
H -26.988900 -9.805500 -32.038600
C -26.928300 -9.230600 -31.309900
N -26.899600 -10.746600 -25.913200
N -26.780800 -11.053500 -23.767000
N -26.758900 -10.237100 -27.216300
C -26.745900 -7.520600 -29.125800
H -26.676900 -6.942000 -28.400700
C -26.438400 -10.241400 -24.729100
C -26.359600 -7.983600 -31.416900
C -26.253000 -7.125900 -30.355800
H -26.228400 -8.238700 -24.642000
O -26.061400 -8.261800 -33.688700
H -25.940200 -9.985700 -27.358100
H -25.855400 -6.291500 -30.460000
N -25.847800 -7.558300 -32.735100
C -25.647800 -8.999900 -24.569300
O -25.237300 -6.519700 -32.787900
H -25.226400 -8.998500 -23.706700
H -24.976100 -8.957200 -25.253300
