15
Fragment
H -11.314200 -14.123200 -17.889500
H -10.909700 -15.573300 -18.432500
C -10.565200 -14.703000 -18.141000
H -10.063200 -14.288300 -18.873500
O -9.684700 -14.889000 -16.989500
H -8.606000 -16.152400 -19.070600
C -8.574800 -15.575400 -17.177700
O -8.432400 -14.788500 -14.448600
N -8.201500 -16.158500 -18.367400
C -7.575300 -15.839100 -16.283300
N -7.507300 -15.465600 -14.941100
C -7.007300 -16.739300 -18.139700
N -6.581900 -16.566600 -16.885500
O -6.500700 -15.821100 -14.266300
H -6.460000 -17.111600 -18.785000
15
Fragment
H -4.888400 -17.095700 -16.091900
O -4.200500 -18.095500 -18.384100
H -4.147700 -16.628600 -13.910800
N -4.104300 -17.357100 -15.768100
C -3.706600 -17.179900 -14.550500
N -3.219200 -18.476800 -17.749500
C -3.127700 -18.112900 -16.393200
N -2.488100 -17.773700 -14.296300
O -2.304000 -19.146800 -18.216900
C -2.126400 -18.363800 -15.438400
O -1.001700 -19.057700 -15.651200
H -0.620300 -19.710900 -13.804900
C -0.142000 -19.219100 -14.504500
H 0.117300 -18.337700 -14.164200
H 0.660000 -19.717700 -14.764700
30
Fragment
H -11.314200 -14.123200 -17.889500
H -10.909700 -15.573300 -18.432500
C -10.565200 -14.703000 -18.141000
H -10.063200 -14.288300 -18.873500
O -9.684700 -14.889000 -16.989500
H -8.606000 -16.152400 -19.070600
C -8.574800 -15.575400 -17.177700
O -8.432400 -14.788500 -14.448600
N -8.201500 -16.158500 -18.367400
C -7.575300 -15.839100 -16.283300
N -7.507300 -15.465600 -14.941100
C -7.007300 -16.739300 -18.139700
N -6.581900 -16.566600 -16.885500
O -6.500700 -15.821100 -14.266300
H -6.460000 -17.111600 -18.785000
H -4.888400 -17.095700 -16.091900
O -4.200500 -18.095500 -18.384100
H -4.147700 -16.628600 -13.910800
N -4.104300 -17.357100 -15.768100
C -3.706600 -17.179900 -14.550500
N -3.219200 -18.476800 -17.749500
C -3.127700 -18.112900 -16.393200
N -2.488100 -17.773700 -14.296300
O -2.304000 -19.146800 -18.216900
C -2.126400 -18.363800 -15.438400
O -1.001700 -19.057700 -15.651200
H -0.620300 -19.710900 -13.804900
C -0.142000 -19.219100 -14.504500
H 0.117300 -18.337700 -14.164200
H 0.660000 -19.717700 -14.764700
