15
Fragment
H -11.314200 -14.123200 -17.889500
H -10.909700 -15.573300 -18.432500
C -10.565200 -14.703000 -18.141000
H -10.063200 -14.288300 -18.873500
O -9.684700 -14.889000 -16.989500
H -8.606000 -16.152400 -19.070600
C -8.574800 -15.575400 -17.177700
O -8.432400 -14.788500 -14.448600
N -8.201500 -16.158500 -18.367400
C -7.575300 -15.839100 -16.283300
N -7.507300 -15.465600 -14.941100
C -7.007300 -16.739300 -18.139700
N -6.581900 -16.566600 -16.885500
O -6.500700 -15.821100 -14.266300
H -6.460000 -17.111600 -18.785000
15
Fragment
H -5.583500 -16.837900 -9.389200
O -4.895500 -15.838100 -11.681400
H -4.842700 -17.305000 -7.208100
N -4.799300 -16.576500 -9.065400
C -4.401700 -16.753700 -7.847800
N -3.914300 -15.456800 -11.046700
C -3.822800 -15.820700 -9.690500
N -3.183200 -16.159900 -7.593600
O -2.999000 -14.786800 -11.514200
C -2.821400 -15.569800 -8.735600
O -1.696700 -14.875900 -8.948500
H -1.315300 -14.222700 -7.102200
C -0.837100 -14.714500 -7.801800
H -0.577700 -15.595900 -7.461500
H -0.035000 -14.215900 -8.062000
30
Fragment
H -11.314200 -14.123200 -17.889500
H -10.909700 -15.573300 -18.432500
C -10.565200 -14.703000 -18.141000
H -10.063200 -14.288300 -18.873500
O -9.684700 -14.889000 -16.989500
H -8.606000 -16.152400 -19.070600
C -8.574800 -15.575400 -17.177700
O -8.432400 -14.788500 -14.448600
N -8.201500 -16.158500 -18.367400
C -7.575300 -15.839100 -16.283300
N -7.507300 -15.465600 -14.941100
C -7.007300 -16.739300 -18.139700
N -6.581900 -16.566600 -16.885500
O -6.500700 -15.821100 -14.266300
H -6.460000 -17.111600 -18.785000
H -5.583500 -16.837900 -9.389200
O -4.895500 -15.838100 -11.681400
H -4.842700 -17.305000 -7.208100
N -4.799300 -16.576500 -9.065400
C -4.401700 -16.753700 -7.847800
N -3.914300 -15.456800 -11.046700
C -3.822800 -15.820700 -9.690500
N -3.183200 -16.159900 -7.593600
O -2.999000 -14.786800 -11.514200
C -2.821400 -15.569800 -8.735600
O -1.696700 -14.875900 -8.948500
H -1.315300 -14.222700 -7.102200
C -0.837100 -14.714500 -7.801800
H -0.577700 -15.595900 -7.461500
H -0.035000 -14.215900 -8.062000
