15
Fragment
H -11.314200 -14.123200 -17.889500
H -10.909700 -15.573300 -18.432500
C -10.565200 -14.703000 -18.141000
H -10.063200 -14.288300 -18.873500
O -9.684700 -14.889000 -16.989500
H -8.606000 -16.152400 -19.070600
C -8.574800 -15.575400 -17.177700
O -8.432400 -14.788500 -14.448600
N -8.201500 -16.158500 -18.367400
C -7.575300 -15.839100 -16.283300
N -7.507300 -15.465600 -14.941100
C -7.007300 -16.739300 -18.139700
N -6.581900 -16.566600 -16.885500
O -6.500700 -15.821100 -14.266300
H -6.460000 -17.111600 -18.785000
15
Fragment
H -10.619200 -19.810400 -24.592300
H -10.214700 -18.360300 -25.135200
C -9.870200 -19.230600 -24.843700
H -9.368200 -19.645300 -25.576200
O -8.989600 -19.044600 -23.692200
H -7.910900 -17.781200 -25.773300
C -7.879800 -18.358200 -23.880400
O -7.737400 -19.145100 -21.151300
N -7.506500 -17.775100 -25.070200
C -6.880200 -18.094500 -22.986000
N -6.812300 -18.468000 -21.643900
C -6.312300 -17.194300 -24.842400
N -5.886900 -17.367000 -23.588200
O -5.805700 -18.112500 -20.969000
H -5.764900 -16.822000 -25.487700
30
Fragment
H -11.314200 -14.123200 -17.889500
H -10.909700 -15.573300 -18.432500
C -10.565200 -14.703000 -18.141000
H -10.063200 -14.288300 -18.873500
O -9.684700 -14.889000 -16.989500
H -8.606000 -16.152400 -19.070600
C -8.574800 -15.575400 -17.177700
O -8.432400 -14.788500 -14.448600
N -8.201500 -16.158500 -18.367400
C -7.575300 -15.839100 -16.283300
N -7.507300 -15.465600 -14.941100
C -7.007300 -16.739300 -18.139700
N -6.581900 -16.566600 -16.885500
O -6.500700 -15.821100 -14.266300
H -6.460000 -17.111600 -18.785000
H -10.619200 -19.810400 -24.592300
H -10.214700 -18.360300 -25.135200
C -9.870200 -19.230600 -24.843700
H -9.368200 -19.645300 -25.576200
O -8.989600 -19.044600 -23.692200
H -7.910900 -17.781200 -25.773300
C -7.879800 -18.358200 -23.880400
O -7.737400 -19.145100 -21.151300
N -7.506500 -17.775100 -25.070200
C -6.880200 -18.094500 -22.986000
N -6.812300 -18.468000 -21.643900
C -6.312300 -17.194300 -24.842400
N -5.886900 -17.367000 -23.588200
O -5.805700 -18.112500 -20.969000
H -5.764900 -16.822000 -25.487700
