15
Fragment
H -11.314200 -14.123200 -17.889500
H -10.909700 -15.573300 -18.432500
C -10.565200 -14.703000 -18.141000
H -10.063200 -14.288300 -18.873500
O -9.684700 -14.889000 -16.989500
H -8.606000 -16.152400 -19.070600
C -8.574800 -15.575400 -17.177700
O -8.432400 -14.788500 -14.448600
N -8.201500 -16.158500 -18.367400
C -7.575300 -15.839100 -16.283300
N -7.507300 -15.465600 -14.941100
C -7.007300 -16.739300 -18.139700
N -6.581900 -16.566600 -16.885500
O -6.500700 -15.821100 -14.266300
H -6.460000 -17.111600 -18.785000
15
Fragment
H -8.232100 -14.154800 -11.186800
H -7.827600 -12.704700 -11.729700
C -7.483100 -13.575000 -11.438300
H -6.981100 -13.989700 -12.170800
O -6.602600 -13.389000 -10.286800
H -5.523900 -12.125600 -12.367800
C -5.492800 -12.702600 -10.475000
O -5.350300 -13.489500 -7.745900
N -5.119400 -12.119500 -11.664700
C -4.493200 -12.438900 -9.580600
N -4.425200 -12.812400 -8.238400
C -3.925200 -11.538700 -11.437000
N -3.499800 -11.711400 -10.182800
O -3.418600 -12.456900 -7.563600
H -3.377900 -11.166400 -12.082300
30
Fragment
H -11.314200 -14.123200 -17.889500
H -10.909700 -15.573300 -18.432500
C -10.565200 -14.703000 -18.141000
H -10.063200 -14.288300 -18.873500
O -9.684700 -14.889000 -16.989500
H -8.606000 -16.152400 -19.070600
C -8.574800 -15.575400 -17.177700
O -8.432400 -14.788500 -14.448600
N -8.201500 -16.158500 -18.367400
C -7.575300 -15.839100 -16.283300
N -7.507300 -15.465600 -14.941100
C -7.007300 -16.739300 -18.139700
N -6.581900 -16.566600 -16.885500
O -6.500700 -15.821100 -14.266300
H -6.460000 -17.111600 -18.785000
H -8.232100 -14.154800 -11.186800
H -7.827600 -12.704700 -11.729700
C -7.483100 -13.575000 -11.438300
H -6.981100 -13.989700 -12.170800
O -6.602600 -13.389000 -10.286800
H -5.523900 -12.125600 -12.367800
C -5.492800 -12.702600 -10.475000
O -5.350300 -13.489500 -7.745900
N -5.119400 -12.119500 -11.664700
C -4.493200 -12.438900 -9.580600
N -4.425200 -12.812400 -8.238400
C -3.925200 -11.538700 -11.437000
N -3.499800 -11.711400 -10.182800
O -3.418600 -12.456900 -7.563600
H -3.377900 -11.166400 -12.082300
