15
Fragment
H -11.314200 -14.123200 -17.889500
H -10.909700 -15.573300 -18.432500
C -10.565200 -14.703000 -18.141000
H -10.063200 -14.288300 -18.873500
O -9.684700 -14.889000 -16.989500
H -8.606000 -16.152400 -19.070600
C -8.574800 -15.575400 -17.177700
O -8.432400 -14.788500 -14.448600
N -8.201500 -16.158500 -18.367400
C -7.575300 -15.839100 -16.283300
N -7.507300 -15.465600 -14.941100
C -7.007300 -16.739300 -18.139700
N -6.581900 -16.566600 -16.885500
O -6.500700 -15.821100 -14.266300
H -6.460000 -17.111600 -18.785000
15
Fragment
H -15.091300 -8.467600 -17.889500
H -14.686800 -9.917700 -18.432500
C -14.342300 -9.047400 -18.141000
H -13.840300 -8.632700 -18.873500
O -13.461800 -9.233400 -16.989500
H -12.383100 -10.496800 -19.070600
C -12.351900 -9.919800 -17.177700
O -12.209500 -9.132900 -14.448600
N -11.978600 -10.502900 -18.367400
C -11.352400 -10.183500 -16.283300
N -11.284400 -9.810000 -14.941100
C -10.784400 -11.083700 -18.139700
N -10.359000 -10.911000 -16.885500
O -10.277800 -10.165500 -14.266300
H -10.237100 -11.456000 -18.785000
30
Fragment
H -11.314200 -14.123200 -17.889500
H -10.909700 -15.573300 -18.432500
C -10.565200 -14.703000 -18.141000
H -10.063200 -14.288300 -18.873500
O -9.684700 -14.889000 -16.989500
H -8.606000 -16.152400 -19.070600
C -8.574800 -15.575400 -17.177700
O -8.432400 -14.788500 -14.448600
N -8.201500 -16.158500 -18.367400
C -7.575300 -15.839100 -16.283300
N -7.507300 -15.465600 -14.941100
C -7.007300 -16.739300 -18.139700
N -6.581900 -16.566600 -16.885500
O -6.500700 -15.821100 -14.266300
H -6.460000 -17.111600 -18.785000
H -15.091300 -8.467600 -17.889500
H -14.686800 -9.917700 -18.432500
C -14.342300 -9.047400 -18.141000
H -13.840300 -8.632700 -18.873500
O -13.461800 -9.233400 -16.989500
H -12.383100 -10.496800 -19.070600
C -12.351900 -9.919800 -17.177700
O -12.209500 -9.132900 -14.448600
N -11.978600 -10.502900 -18.367400
C -11.352400 -10.183500 -16.283300
N -11.284400 -9.810000 -14.941100
C -10.784400 -11.083700 -18.139700
N -10.359000 -10.911000 -16.885500
O -10.277800 -10.165500 -14.266300
H -10.237100 -11.456000 -18.785000
