15
Fragment
H -11.314200 -14.123200 -17.889500
H -10.909700 -15.573300 -18.432500
C -10.565200 -14.703000 -18.141000
H -10.063200 -14.288300 -18.873500
O -9.684700 -14.889000 -16.989500
H -8.606000 -16.152400 -19.070600
C -8.574800 -15.575400 -17.177700
O -8.432400 -14.788500 -14.448600
N -8.201500 -16.158500 -18.367400
C -7.575300 -15.839100 -16.283300
N -7.507300 -15.465600 -14.941100
C -7.007300 -16.739300 -18.139700
N -6.581900 -16.566600 -16.885500
O -6.500700 -15.821100 -14.266300
H -6.460000 -17.111600 -18.785000
15
Fragment
H -11.747600 -16.837900 -22.794600
O -11.059700 -15.838100 -25.086800
H -11.006800 -17.305000 -20.613500
N -10.963400 -16.576500 -22.470800
C -10.565800 -16.753700 -21.253200
N -10.078400 -15.456800 -24.452200
C -9.986900 -15.820700 -23.095900
N -9.347300 -16.159900 -20.999100
O -9.163200 -14.786800 -24.919600
C -8.985600 -15.569800 -22.141100
O -7.860900 -14.875900 -22.353900
H -7.479400 -14.222700 -20.507600
C -7.001200 -14.714500 -21.207200
H -6.741900 -15.595900 -20.866900
H -6.199200 -14.215900 -21.467400
30
Fragment
H -11.314200 -14.123200 -17.889500
H -10.909700 -15.573300 -18.432500
C -10.565200 -14.703000 -18.141000
H -10.063200 -14.288300 -18.873500
O -9.684700 -14.889000 -16.989500
H -8.606000 -16.152400 -19.070600
C -8.574800 -15.575400 -17.177700
O -8.432400 -14.788500 -14.448600
N -8.201500 -16.158500 -18.367400
C -7.575300 -15.839100 -16.283300
N -7.507300 -15.465600 -14.941100
C -7.007300 -16.739300 -18.139700
N -6.581900 -16.566600 -16.885500
O -6.500700 -15.821100 -14.266300
H -6.460000 -17.111600 -18.785000
H -11.747600 -16.837900 -22.794600
O -11.059700 -15.838100 -25.086800
H -11.006800 -17.305000 -20.613500
N -10.963400 -16.576500 -22.470800
C -10.565800 -16.753700 -21.253200
N -10.078400 -15.456800 -24.452200
C -9.986900 -15.820700 -23.095900
N -9.347300 -16.159900 -20.999100
O -9.163200 -14.786800 -24.919600
C -8.985600 -15.569800 -22.141100
O -7.860900 -14.875900 -22.353900
H -7.479400 -14.222700 -20.507600
C -7.001200 -14.714500 -21.207200
H -6.741900 -15.595900 -20.866900
H -6.199200 -14.215900 -21.467400
