15
Fragment
H -11.314200 -14.123200 -17.889500
H -10.909700 -15.573300 -18.432500
C -10.565200 -14.703000 -18.141000
H -10.063200 -14.288300 -18.873500
O -9.684700 -14.889000 -16.989500
H -8.606000 -16.152400 -19.070600
C -8.574800 -15.575400 -17.177700
O -8.432400 -14.788500 -14.448600
N -8.201500 -16.158500 -18.367400
C -7.575300 -15.839100 -16.283300
N -7.507300 -15.465600 -14.941100
C -7.007300 -16.739300 -18.139700
N -6.581900 -16.566600 -16.885500
O -6.500700 -15.821100 -14.266300
H -6.460000 -17.111600 -18.785000
15
Fragment
H -8.665500 -11.440100 -16.091900
O -7.977600 -12.439900 -18.384100
H -7.924800 -10.973000 -13.910800
N -7.881400 -11.701500 -15.768100
C -7.483700 -11.524300 -14.550500
N -6.996300 -12.821200 -17.749500
C -6.904800 -12.457300 -16.393200
N -6.265200 -12.118100 -14.296300
O -6.081100 -13.491200 -18.216900
C -5.903500 -12.708200 -15.438400
O -4.778800 -13.402100 -15.651200
H -4.397400 -14.055300 -13.804900
C -3.919100 -13.563500 -14.504500
H -3.659800 -12.682100 -14.164200
H -3.117100 -14.062100 -14.764700
30
Fragment
H -11.314200 -14.123200 -17.889500
H -10.909700 -15.573300 -18.432500
C -10.565200 -14.703000 -18.141000
H -10.063200 -14.288300 -18.873500
O -9.684700 -14.889000 -16.989500
H -8.606000 -16.152400 -19.070600
C -8.574800 -15.575400 -17.177700
O -8.432400 -14.788500 -14.448600
N -8.201500 -16.158500 -18.367400
C -7.575300 -15.839100 -16.283300
N -7.507300 -15.465600 -14.941100
C -7.007300 -16.739300 -18.139700
N -6.581900 -16.566600 -16.885500
O -6.500700 -15.821100 -14.266300
H -6.460000 -17.111600 -18.785000
H -8.665500 -11.440100 -16.091900
O -7.977600 -12.439900 -18.384100
H -7.924800 -10.973000 -13.910800
N -7.881400 -11.701500 -15.768100
C -7.483700 -11.524300 -14.550500
N -6.996300 -12.821200 -17.749500
C -6.904800 -12.457300 -16.393200
N -6.265200 -12.118100 -14.296300
O -6.081100 -13.491200 -18.216900
C -5.903500 -12.708200 -15.438400
O -4.778800 -13.402100 -15.651200
H -4.397400 -14.055300 -13.804900
C -3.919100 -13.563500 -14.504500
H -3.659800 -12.682100 -14.164200
H -3.117100 -14.062100 -14.764700
