41
Fragment
H -22.361000 -11.905800 -15.065700
H -22.206800 -13.125800 -17.116300
H -21.824400 -13.362500 -14.830700
C -21.616100 -12.504900 -15.232200
C -21.428500 -12.680400 -16.747100
H -21.358000 -11.807100 -17.164100
H -20.492600 -11.854400 -13.635000
O -20.380800 -14.872500 -16.656000
C -20.356500 -11.937400 -14.591900
C -20.197200 -13.484400 -17.064600
H -20.187200 -11.050900 -14.947800
O -20.033800 -13.440300 -18.461100
H -19.741600 -14.011000 -21.716200
H -19.636400 -17.105800 -15.981800
H -19.365800 -15.152000 -19.251500
H -19.277300 -13.682200 -14.416800
C -19.155200 -15.404700 -16.368400
C -19.145800 -12.826300 -14.854800
C -19.020700 -14.262500 -19.025900
C -18.997900 -13.504900 -21.480500
C -18.920100 -13.054400 -16.341000
N -18.911400 -16.584700 -16.017000
O -18.646400 -12.572100 -23.629200
H -18.514900 -12.269600 -16.765200
C -18.513400 -13.550000 -20.237600
H -18.356800 -12.413100 -14.471400
C -18.350000 -12.661000 -22.447400
C -18.096900 -14.339700 -16.620800
C -17.736000 -14.358200 -18.137000
N -17.371600 -12.814100 -19.870600
N -17.300600 -11.876300 -21.959400
C -17.021400 -15.598800 -18.485800
C -16.934500 -14.512700 -15.752800
H -16.914400 -11.335400 -22.710300
C -16.875300 -13.170800 -18.592500
C -16.773000 -11.883000 -20.711300
N -16.483700 -16.559400 -18.776000
N -16.072900 -14.699500 -15.035700
N -15.918000 -12.718900 -17.935300
O -15.866100 -11.169200 -20.349500
H -15.594800 -12.043600 -18.298400
41
Fragment
H -13.834100 -9.781000 -20.745100
O -13.562800 -10.655400 -18.694100
N -13.510900 -9.105700 -21.108200
N -13.356000 -7.125100 -24.007900
N -12.945200 -5.265200 -20.267500
C -12.655900 -9.941700 -18.332200
C -12.553600 -8.653800 -20.451000
H -12.514500 -10.489200 -16.333200
C -12.494400 -7.311900 -23.290800
C -12.407500 -6.225800 -20.557700
N -12.128300 -9.948300 -17.084200
N -12.057300 -9.010500 -19.173000
C -11.692900 -7.466400 -20.906500
C -11.332000 -7.485000 -22.422700
C -11.078900 -9.163600 -16.596100
H -11.072100 -9.411500 -24.572200
C -10.915500 -8.274600 -18.806000
H -10.914000 -9.555000 -22.278400
O -10.782500 -9.252500 -15.414400
N -10.517500 -5.239900 -23.026600
C -10.508800 -8.770200 -22.702500
C -10.431000 -8.319800 -17.563100
C -10.408200 -7.562200 -20.017600
C -10.283100 -8.998300 -24.188800
C -10.273700 -6.419900 -22.675200
H -10.151600 -8.142500 -24.626700
H -10.063100 -6.672600 -19.792100
H -9.792500 -4.718800 -23.061700
H -9.687300 -7.813600 -17.327400
O -9.395100 -8.384400 -20.582500
H -9.241800 -10.773700 -24.095700
C -9.231700 -8.340200 -21.978900
C -9.072400 -9.887200 -24.451700
O -9.048100 -6.952200 -22.387600
H -8.936300 -9.970200 -25.408500
H -8.070900 -10.017500 -21.879500
C -8.000400 -9.144200 -22.296500
C -7.812800 -9.319800 -23.811400
H -7.604500 -8.462200 -24.212900
H -7.222100 -8.698900 -21.927200
H -7.067900 -9.918900 -23.977800
82
Fragment
H -22.361000 -11.905800 -15.065700
H -22.206800 -13.125800 -17.116300
H -21.824400 -13.362500 -14.830700
C -21.616100 -12.504900 -15.232200
C -21.428500 -12.680400 -16.747100
H -21.358000 -11.807100 -17.164100
H -20.492600 -11.854400 -13.635000
O -20.380800 -14.872500 -16.656000
C -20.356500 -11.937400 -14.591900
C -20.197200 -13.484400 -17.064600
H -20.187200 -11.050900 -14.947800
O -20.033800 -13.440300 -18.461100
H -19.741600 -14.011000 -21.716200
H -19.636400 -17.105800 -15.981800
H -19.365800 -15.152000 -19.251500
H -19.277300 -13.682200 -14.416800
C -19.155200 -15.404700 -16.368400
C -19.145800 -12.826300 -14.854800
C -19.020700 -14.262500 -19.025900
C -18.997900 -13.504900 -21.480500
C -18.920100 -13.054400 -16.341000
N -18.911400 -16.584700 -16.017000
O -18.646400 -12.572100 -23.629200
H -18.514900 -12.269600 -16.765200
C -18.513400 -13.550000 -20.237600
H -18.356800 -12.413100 -14.471400
C -18.350000 -12.661000 -22.447400
C -18.096900 -14.339700 -16.620800
C -17.736000 -14.358200 -18.137000
N -17.371600 -12.814100 -19.870600
N -17.300600 -11.876300 -21.959400
C -17.021400 -15.598800 -18.485800
C -16.934500 -14.512700 -15.752800
H -16.914400 -11.335400 -22.710300
C -16.875300 -13.170800 -18.592500
C -16.773000 -11.883000 -20.711300
N -16.483700 -16.559400 -18.776000
N -16.072900 -14.699500 -15.035700
N -15.918000 -12.718900 -17.935300
O -15.866100 -11.169200 -20.349500
H -15.594800 -12.043600 -18.298400
H -13.834100 -9.781000 -20.745100
O -13.562800 -10.655400 -18.694100
N -13.510900 -9.105700 -21.108200
N -13.356000 -7.125100 -24.007900
N -12.945200 -5.265200 -20.267500
C -12.655900 -9.941700 -18.332200
C -12.553600 -8.653800 -20.451000
H -12.514500 -10.489200 -16.333200
C -12.494400 -7.311900 -23.290800
C -12.407500 -6.225800 -20.557700
N -12.128300 -9.948300 -17.084200
N -12.057300 -9.010500 -19.173000
C -11.692900 -7.466400 -20.906500
C -11.332000 -7.485000 -22.422700
C -11.078900 -9.163600 -16.596100
H -11.072100 -9.411500 -24.572200
C -10.915500 -8.274600 -18.806000
H -10.914000 -9.555000 -22.278400
O -10.782500 -9.252500 -15.414400
N -10.517500 -5.239900 -23.026600
C -10.508800 -8.770200 -22.702500
C -10.431000 -8.319800 -17.563100
C -10.408200 -7.562200 -20.017600
C -10.283100 -8.998300 -24.188800
C -10.273700 -6.419900 -22.675200
H -10.151600 -8.142500 -24.626700
H -10.063100 -6.672600 -19.792100
H -9.792500 -4.718800 -23.061700
H -9.687300 -7.813600 -17.327400
O -9.395100 -8.384400 -20.582500
H -9.241800 -10.773700 -24.095700
C -9.231700 -8.340200 -21.978900
C -9.072400 -9.887200 -24.451700
O -9.048100 -6.952200 -22.387600
H -8.936300 -9.970200 -25.408500
H -8.070900 -10.017500 -21.879500
C -8.000400 -9.144200 -22.296500
C -7.812800 -9.319800 -23.811400
H -7.604500 -8.462200 -24.212900
H -7.222100 -8.698900 -21.927200
H -7.067900 -9.918900 -23.977800
