41
Fragment
H -22.361000 -11.905800 -15.065700
H -22.206800 -13.125800 -17.116300
H -21.824400 -13.362500 -14.830700
C -21.616100 -12.504900 -15.232200
C -21.428500 -12.680400 -16.747100
H -21.358000 -11.807100 -17.164100
H -20.492600 -11.854400 -13.635000
O -20.380800 -14.872500 -16.656000
C -20.356500 -11.937400 -14.591900
C -20.197200 -13.484400 -17.064600
H -20.187200 -11.050900 -14.947800
O -20.033800 -13.440300 -18.461100
H -19.741600 -14.011000 -21.716200
H -19.636400 -17.105800 -15.981800
H -19.365800 -15.152000 -19.251500
H -19.277300 -13.682200 -14.416800
C -19.155200 -15.404700 -16.368400
C -19.145800 -12.826300 -14.854800
C -19.020700 -14.262500 -19.025900
C -18.997900 -13.504900 -21.480500
C -18.920100 -13.054400 -16.341000
N -18.911400 -16.584700 -16.017000
O -18.646400 -12.572100 -23.629200
H -18.514900 -12.269600 -16.765200
C -18.513400 -13.550000 -20.237600
H -18.356800 -12.413100 -14.471400
C -18.350000 -12.661000 -22.447400
C -18.096900 -14.339700 -16.620800
C -17.736000 -14.358200 -18.137000
N -17.371600 -12.814100 -19.870600
N -17.300600 -11.876300 -21.959400
C -17.021400 -15.598800 -18.485800
C -16.934500 -14.512700 -15.752800
H -16.914400 -11.335400 -22.710300
C -16.875300 -13.170800 -18.592500
C -16.773000 -11.883000 -20.711300
N -16.483700 -16.559400 -18.776000
N -16.072900 -14.699500 -15.035700
N -15.918000 -12.718900 -17.935300
O -15.866100 -11.169200 -20.349500
H -15.594800 -12.043600 -18.298400
41
Fragment
H -27.716500 -10.870800 -7.730600
O -27.445300 -11.745200 -5.679500
N -27.393300 -10.195500 -8.093700
N -27.238400 -8.214900 -10.993400
N -26.827700 -6.355000 -7.253000
C -26.538400 -11.031400 -5.317700
C -26.436100 -9.743600 -7.436500
H -26.397000 -11.579000 -3.318700
C -26.376800 -8.401700 -10.276300
C -26.290000 -7.315600 -7.543200
N -26.010800 -11.038100 -4.069600
N -25.939700 -10.100300 -6.158500
C -25.575400 -8.556200 -7.892000
C -25.214500 -8.574800 -9.408200
C -24.961300 -10.253400 -3.581600
H -24.954500 -10.501300 -11.557700
C -24.798000 -9.364400 -5.791500
H -24.796400 -10.644800 -9.263900
O -24.664900 -10.342300 -2.399900
N -24.399900 -6.329700 -10.012100
C -24.391200 -9.860000 -9.688000
C -24.313400 -9.409500 -4.548600
C -24.290700 -8.651900 -7.003100
C -24.165600 -10.088100 -11.174300
C -24.156200 -7.509700 -9.660700
H -24.034100 -9.232200 -11.612200
H -23.945600 -7.762400 -6.777600
H -23.674900 -5.808600 -10.047200
H -23.569700 -8.903400 -4.312900
O -23.277600 -9.474100 -7.567900
H -23.124200 -11.863500 -11.081200
C -23.114100 -9.430000 -8.964400
C -22.954800 -10.977000 -11.437200
O -22.930600 -8.041900 -9.373100
H -22.818800 -11.060000 -12.394000
H -21.953400 -11.107300 -8.865000
C -21.882800 -10.234000 -9.282000
C -21.695200 -10.409500 -10.796800
H -21.486900 -9.552000 -11.198300
H -21.104500 -9.788600 -8.912700
H -20.950300 -11.008600 -10.963300
82
Fragment
H -22.361000 -11.905800 -15.065700
H -22.206800 -13.125800 -17.116300
H -21.824400 -13.362500 -14.830700
C -21.616100 -12.504900 -15.232200
C -21.428500 -12.680400 -16.747100
H -21.358000 -11.807100 -17.164100
H -20.492600 -11.854400 -13.635000
O -20.380800 -14.872500 -16.656000
C -20.356500 -11.937400 -14.591900
C -20.197200 -13.484400 -17.064600
H -20.187200 -11.050900 -14.947800
O -20.033800 -13.440300 -18.461100
H -19.741600 -14.011000 -21.716200
H -19.636400 -17.105800 -15.981800
H -19.365800 -15.152000 -19.251500
H -19.277300 -13.682200 -14.416800
C -19.155200 -15.404700 -16.368400
C -19.145800 -12.826300 -14.854800
C -19.020700 -14.262500 -19.025900
C -18.997900 -13.504900 -21.480500
C -18.920100 -13.054400 -16.341000
N -18.911400 -16.584700 -16.017000
O -18.646400 -12.572100 -23.629200
H -18.514900 -12.269600 -16.765200
C -18.513400 -13.550000 -20.237600
H -18.356800 -12.413100 -14.471400
C -18.350000 -12.661000 -22.447400
C -18.096900 -14.339700 -16.620800
C -17.736000 -14.358200 -18.137000
N -17.371600 -12.814100 -19.870600
N -17.300600 -11.876300 -21.959400
C -17.021400 -15.598800 -18.485800
C -16.934500 -14.512700 -15.752800
H -16.914400 -11.335400 -22.710300
C -16.875300 -13.170800 -18.592500
C -16.773000 -11.883000 -20.711300
N -16.483700 -16.559400 -18.776000
N -16.072900 -14.699500 -15.035700
N -15.918000 -12.718900 -17.935300
O -15.866100 -11.169200 -20.349500
H -15.594800 -12.043600 -18.298400
H -27.716500 -10.870800 -7.730600
O -27.445300 -11.745200 -5.679500
N -27.393300 -10.195500 -8.093700
N -27.238400 -8.214900 -10.993400
N -26.827700 -6.355000 -7.253000
C -26.538400 -11.031400 -5.317700
C -26.436100 -9.743600 -7.436500
H -26.397000 -11.579000 -3.318700
C -26.376800 -8.401700 -10.276300
C -26.290000 -7.315600 -7.543200
N -26.010800 -11.038100 -4.069600
N -25.939700 -10.100300 -6.158500
C -25.575400 -8.556200 -7.892000
C -25.214500 -8.574800 -9.408200
C -24.961300 -10.253400 -3.581600
H -24.954500 -10.501300 -11.557700
C -24.798000 -9.364400 -5.791500
H -24.796400 -10.644800 -9.263900
O -24.664900 -10.342300 -2.399900
N -24.399900 -6.329700 -10.012100
C -24.391200 -9.860000 -9.688000
C -24.313400 -9.409500 -4.548600
C -24.290700 -8.651900 -7.003100
C -24.165600 -10.088100 -11.174300
C -24.156200 -7.509700 -9.660700
H -24.034100 -9.232200 -11.612200
H -23.945600 -7.762400 -6.777600
H -23.674900 -5.808600 -10.047200
H -23.569700 -8.903400 -4.312900
O -23.277600 -9.474100 -7.567900
H -23.124200 -11.863500 -11.081200
C -23.114100 -9.430000 -8.964400
C -22.954800 -10.977000 -11.437200
O -22.930600 -8.041900 -9.373100
H -22.818800 -11.060000 -12.394000
H -21.953400 -11.107300 -8.865000
C -21.882800 -10.234000 -9.282000
C -21.695200 -10.409500 -10.796800
H -21.486900 -9.552000 -11.198300
H -21.104500 -9.788600 -8.912700
H -20.950300 -11.008600 -10.963300
