41
Fragment
H -22.361000 -11.905800 -15.065700
H -22.206800 -13.125800 -17.116300
H -21.824400 -13.362500 -14.830700
C -21.616100 -12.504900 -15.232200
C -21.428500 -12.680400 -16.747100
H -21.358000 -11.807100 -17.164100
H -20.492600 -11.854400 -13.635000
O -20.380800 -14.872500 -16.656000
C -20.356500 -11.937400 -14.591900
C -20.197200 -13.484400 -17.064600
H -20.187200 -11.050900 -14.947800
O -20.033800 -13.440300 -18.461100
H -19.741600 -14.011000 -21.716200
H -19.636400 -17.105800 -15.981800
H -19.365800 -15.152000 -19.251500
H -19.277300 -13.682200 -14.416800
C -19.155200 -15.404700 -16.368400
C -19.145800 -12.826300 -14.854800
C -19.020700 -14.262500 -19.025900
C -18.997900 -13.504900 -21.480500
C -18.920100 -13.054400 -16.341000
N -18.911400 -16.584700 -16.017000
O -18.646400 -12.572100 -23.629200
H -18.514900 -12.269600 -16.765200
C -18.513400 -13.550000 -20.237600
H -18.356800 -12.413100 -14.471400
C -18.350000 -12.661000 -22.447400
C -18.096900 -14.339700 -16.620800
C -17.736000 -14.358200 -18.137000
N -17.371600 -12.814100 -19.870600
N -17.300600 -11.876300 -21.959400
C -17.021400 -15.598800 -18.485800
C -16.934500 -14.512700 -15.752800
H -16.914400 -11.335400 -22.710300
C -16.875300 -13.170800 -18.592500
C -16.773000 -11.883000 -20.711300
N -16.483700 -16.559400 -18.776000
N -16.072900 -14.699500 -15.035700
N -15.918000 -12.718900 -17.935300
O -15.866100 -11.169200 -20.349500
H -15.594800 -12.043600 -18.298400
41
Fragment
H -19.867800 -5.730900 -18.467600
O -19.483400 -4.843500 -20.494000
N -19.420200 -6.381700 -18.066800
N -19.359900 -8.295300 -15.247800
N -18.905900 -10.254100 -18.886700
C -18.579100 -5.559800 -20.854500
C -18.487300 -6.859600 -18.743500
H -18.480700 -5.056500 -22.775400
C -18.463600 -8.165100 -15.933700
C -18.361600 -9.295400 -18.618600
N -18.045100 -5.533900 -22.107800
N -17.985900 -6.500600 -20.018900
C -17.635600 -8.053100 -18.290600
C -17.278900 -8.010000 -16.782200
C -17.037400 -6.350300 -22.623100
H -16.962400 -6.107500 -14.612300
C -16.856800 -7.222600 -20.401600
H -16.810400 -5.980500 -16.902200
O -16.764900 -6.299300 -23.800900
N -16.527700 -10.277300 -16.106800
C -16.423500 -6.780000 -16.486800
C -16.377700 -7.188200 -21.636600
C -16.351900 -7.967100 -19.182100
C -16.250700 -9.121200 -16.518000
C -16.191000 -6.556300 -14.992700
H -16.096000 -7.414100 -14.551500
H -16.022500 -8.858600 -19.419900
H -15.743100 -10.832300 -15.981800
H -15.631100 -7.692000 -21.867900
O -15.321500 -7.164900 -18.632900
C -15.158700 -7.216200 -17.226000
H -15.073400 -4.824500 -15.096100
O -15.025600 -8.618500 -16.827800
C -14.943000 -5.715800 -14.736300
H -14.797400 -5.636200 -13.781100
H -13.937100 -5.581900 -17.267800
C -13.901800 -6.468900 -16.875900
C -13.724100 -6.345700 -15.380600
H -13.575700 -7.225200 -15.000400
H -13.137900 -6.931900 -17.252300
H -12.942500 -5.801900 -15.193100
82
Fragment
H -22.361000 -11.905800 -15.065700
H -22.206800 -13.125800 -17.116300
H -21.824400 -13.362500 -14.830700
C -21.616100 -12.504900 -15.232200
C -21.428500 -12.680400 -16.747100
H -21.358000 -11.807100 -17.164100
H -20.492600 -11.854400 -13.635000
O -20.380800 -14.872500 -16.656000
C -20.356500 -11.937400 -14.591900
C -20.197200 -13.484400 -17.064600
H -20.187200 -11.050900 -14.947800
O -20.033800 -13.440300 -18.461100
H -19.741600 -14.011000 -21.716200
H -19.636400 -17.105800 -15.981800
H -19.365800 -15.152000 -19.251500
H -19.277300 -13.682200 -14.416800
C -19.155200 -15.404700 -16.368400
C -19.145800 -12.826300 -14.854800
C -19.020700 -14.262500 -19.025900
C -18.997900 -13.504900 -21.480500
C -18.920100 -13.054400 -16.341000
N -18.911400 -16.584700 -16.017000
O -18.646400 -12.572100 -23.629200
H -18.514900 -12.269600 -16.765200
C -18.513400 -13.550000 -20.237600
H -18.356800 -12.413100 -14.471400
C -18.350000 -12.661000 -22.447400
C -18.096900 -14.339700 -16.620800
C -17.736000 -14.358200 -18.137000
N -17.371600 -12.814100 -19.870600
N -17.300600 -11.876300 -21.959400
C -17.021400 -15.598800 -18.485800
C -16.934500 -14.512700 -15.752800
H -16.914400 -11.335400 -22.710300
C -16.875300 -13.170800 -18.592500
C -16.773000 -11.883000 -20.711300
N -16.483700 -16.559400 -18.776000
N -16.072900 -14.699500 -15.035700
N -15.918000 -12.718900 -17.935300
O -15.866100 -11.169200 -20.349500
H -15.594800 -12.043600 -18.298400
H -19.867800 -5.730900 -18.467600
O -19.483400 -4.843500 -20.494000
N -19.420200 -6.381700 -18.066800
N -19.359900 -8.295300 -15.247800
N -18.905900 -10.254100 -18.886700
C -18.579100 -5.559800 -20.854500
C -18.487300 -6.859600 -18.743500
H -18.480700 -5.056500 -22.775400
C -18.463600 -8.165100 -15.933700
C -18.361600 -9.295400 -18.618600
N -18.045100 -5.533900 -22.107800
N -17.985900 -6.500600 -20.018900
C -17.635600 -8.053100 -18.290600
C -17.278900 -8.010000 -16.782200
C -17.037400 -6.350300 -22.623100
H -16.962400 -6.107500 -14.612300
C -16.856800 -7.222600 -20.401600
H -16.810400 -5.980500 -16.902200
O -16.764900 -6.299300 -23.800900
N -16.527700 -10.277300 -16.106800
C -16.423500 -6.780000 -16.486800
C -16.377700 -7.188200 -21.636600
C -16.351900 -7.967100 -19.182100
C -16.250700 -9.121200 -16.518000
C -16.191000 -6.556300 -14.992700
H -16.096000 -7.414100 -14.551500
H -16.022500 -8.858600 -19.419900
H -15.743100 -10.832300 -15.981800
H -15.631100 -7.692000 -21.867900
O -15.321500 -7.164900 -18.632900
C -15.158700 -7.216200 -17.226000
H -15.073400 -4.824500 -15.096100
O -15.025600 -8.618500 -16.827800
C -14.943000 -5.715800 -14.736300
H -14.797400 -5.636200 -13.781100
H -13.937100 -5.581900 -17.267800
C -13.901800 -6.468900 -16.875900
C -13.724100 -6.345700 -15.380600
H -13.575700 -7.225200 -15.000400
H -13.137900 -6.931900 -17.252300
H -12.942500 -5.801900 -15.193100
