46
Fragment
H -16.288600 -44.393800 -12.209700
H -15.465300 -45.002200 -14.243100
C -15.413100 -44.758000 -12.268600
H -15.002800 -44.660300 -10.245700
C -14.926000 -45.109700 -13.468500
C -14.642500 -44.919100 -11.086000
C -13.598300 -45.648000 -13.595900
C -13.391300 -45.442000 -11.157100
N -13.153600 -46.018000 -14.811400
H -12.888600 -45.558500 -10.360000
C -12.822600 -45.816000 -12.400300
H -12.037200 -46.876700 -16.949600
C -11.918300 -46.539500 -14.918800
H -11.806600 -48.898900 -12.094500
H -11.634500 -50.970400 -11.139800
C -11.525000 -46.361300 -12.521600
C -11.465100 -46.962200 -16.196700
C -11.279600 -49.010200 -11.311300
C -11.182700 -50.234800 -10.742100
C -11.053500 -46.720000 -13.786500
C -10.702600 -46.584900 -11.298300
H -10.649000 -44.008500 -11.971500
C -10.601100 -47.873600 -10.750800
C -10.422300 -50.441700 -9.569900
H -10.365800 -51.309400 -9.187000
C -10.223200 -47.487400 -16.354400
C -10.152700 -44.169300 -11.177000
C -10.056400 -45.495300 -10.669300
H -9.938500 -47.766100 -17.217300
C -9.828100 -48.090600 -9.561200
C -9.775500 -49.406200 -8.994600
C -9.749900 -47.255100 -14.001400
H -9.630000 -42.247000 -10.901500
C -9.546800 -43.123100 -10.546300
C -9.345500 -47.627900 -15.254100
C -9.289000 -45.707400 -9.466800
H -9.276800 -49.550800 -8.199300
C -9.188800 -47.004500 -8.939200
H -9.155700 -47.354700 -13.266700
C -8.795400 -43.334300 -9.364600
C -8.669400 -44.577500 -8.846500
O -8.508700 -47.321100 -7.806800
H -8.473900 -47.983400 -15.385000
H -8.377300 -42.597500 -8.933100
H -8.158800 -44.703800 -8.055500
H -8.024700 -46.673900 -7.580700
46
Fragment
H -13.453400 -40.242100 -9.746600
H -13.319300 -42.212200 -9.271900
H -13.100800 -44.318500 -8.394200
H -13.004200 -38.932600 -1.942400
O -12.969300 -39.594900 -9.520500
C -12.808600 -42.338500 -8.480900
C -12.682700 -43.581700 -7.962800
H -12.322400 -39.561300 -4.060700
C -12.289300 -39.911500 -8.388200
H -12.201300 -37.365200 -9.128000
C -12.189100 -41.208600 -7.860600
C -12.132500 -39.288100 -2.073200
C -11.931300 -43.792900 -6.781100
H -11.848100 -44.669000 -6.425800
C -11.728200 -39.660900 -3.326000
C -11.702500 -37.509800 -8.332700
C -11.649900 -38.825400 -7.766100
H -11.539500 -39.149900 -0.110000
C -11.421600 -41.420700 -6.658000
C -11.325400 -42.746700 -6.150300
C -11.254900 -39.428600 -0.972900
H -11.112300 -35.606600 -8.140400
C -11.055800 -36.474300 -7.757500
C -10.876900 -39.042400 -6.576600
H -10.829000 -42.907500 -5.355900
C -10.775500 -40.331100 -6.029100
C -10.424600 -40.196000 -3.540800
C -10.295400 -36.681200 -6.585300
C -10.198500 -37.905800 -6.016100
C -10.012900 -39.953800 -1.130600
C -9.953100 -40.554700 -4.805700
H -9.843600 -35.945600 -6.187600
H -9.671400 -38.017100 -5.232900
C -9.559800 -40.376500 -2.408500
H -9.440800 -40.039300 -0.377700
C -8.655400 -41.100000 -4.927000
H -8.589500 -41.357500 -6.967300
N -8.324500 -40.898000 -2.515900
C -8.086800 -41.474000 -6.170300
C -7.879700 -41.268000 -3.731400
C -6.835600 -41.996900 -6.241300
C -6.552000 -41.806300 -3.858800
H -6.475300 -42.255700 -7.081700
C -6.065000 -42.158000 -5.058700
H -6.012800 -41.913800 -3.084300
H -5.189500 -42.522200 -5.117600
92
Fragment
H -16.288600 -44.393800 -12.209700
H -15.465300 -45.002200 -14.243100
C -15.413100 -44.758000 -12.268600
H -15.002800 -44.660300 -10.245700
C -14.926000 -45.109700 -13.468500
C -14.642500 -44.919100 -11.086000
C -13.598300 -45.648000 -13.595900
C -13.391300 -45.442000 -11.157100
N -13.153600 -46.018000 -14.811400
H -12.888600 -45.558500 -10.360000
C -12.822600 -45.816000 -12.400300
H -12.037200 -46.876700 -16.949600
C -11.918300 -46.539500 -14.918800
H -11.806600 -48.898900 -12.094500
H -11.634500 -50.970400 -11.139800
C -11.525000 -46.361300 -12.521600
C -11.465100 -46.962200 -16.196700
C -11.279600 -49.010200 -11.311300
C -11.182700 -50.234800 -10.742100
C -11.053500 -46.720000 -13.786500
C -10.702600 -46.584900 -11.298300
H -10.649000 -44.008500 -11.971500
C -10.601100 -47.873600 -10.750800
C -10.422300 -50.441700 -9.569900
H -10.365800 -51.309400 -9.187000
C -10.223200 -47.487400 -16.354400
C -10.152700 -44.169300 -11.177000
C -10.056400 -45.495300 -10.669300
H -9.938500 -47.766100 -17.217300
C -9.828100 -48.090600 -9.561200
C -9.775500 -49.406200 -8.994600
C -9.749900 -47.255100 -14.001400
H -9.630000 -42.247000 -10.901500
C -9.546800 -43.123100 -10.546300
C -9.345500 -47.627900 -15.254100
C -9.289000 -45.707400 -9.466800
H -9.276800 -49.550800 -8.199300
C -9.188800 -47.004500 -8.939200
H -9.155700 -47.354700 -13.266700
C -8.795400 -43.334300 -9.364600
C -8.669400 -44.577500 -8.846500
O -8.508700 -47.321100 -7.806800
H -8.473900 -47.983400 -15.385000
H -8.377300 -42.597500 -8.933100
H -8.158800 -44.703800 -8.055500
H -8.024700 -46.673900 -7.580700
H -13.453400 -40.242100 -9.746600
H -13.319300 -42.212200 -9.271900
H -13.100800 -44.318500 -8.394200
H -13.004200 -38.932600 -1.942400
O -12.969300 -39.594900 -9.520500
C -12.808600 -42.338500 -8.480900
C -12.682700 -43.581700 -7.962800
H -12.322400 -39.561300 -4.060700
C -12.289300 -39.911500 -8.388200
H -12.201300 -37.365200 -9.128000
C -12.189100 -41.208600 -7.860600
C -12.132500 -39.288100 -2.073200
C -11.931300 -43.792900 -6.781100
H -11.848100 -44.669000 -6.425800
C -11.728200 -39.660900 -3.326000
C -11.702500 -37.509800 -8.332700
C -11.649900 -38.825400 -7.766100
H -11.539500 -39.149900 -0.110000
C -11.421600 -41.420700 -6.658000
C -11.325400 -42.746700 -6.150300
C -11.254900 -39.428600 -0.972900
H -11.112300 -35.606600 -8.140400
C -11.055800 -36.474300 -7.757500
C -10.876900 -39.042400 -6.576600
H -10.829000 -42.907500 -5.355900
C -10.775500 -40.331100 -6.029100
C -10.424600 -40.196000 -3.540800
C -10.295400 -36.681200 -6.585300
C -10.198500 -37.905800 -6.016100
C -10.012900 -39.953800 -1.130600
C -9.953100 -40.554700 -4.805700
H -9.843600 -35.945600 -6.187600
H -9.671400 -38.017100 -5.232900
C -9.559800 -40.376500 -2.408500
H -9.440800 -40.039300 -0.377700
C -8.655400 -41.100000 -4.927000
H -8.589500 -41.357500 -6.967300
N -8.324500 -40.898000 -2.515900
C -8.086800 -41.474000 -6.170300
C -7.879700 -41.268000 -3.731400
C -6.835600 -41.996900 -6.241300
C -6.552000 -41.806300 -3.858800
H -6.475300 -42.255700 -7.081700
C -6.065000 -42.158000 -5.058700
H -6.012800 -41.913800 -3.084300
H -5.189500 -42.522200 -5.117600
