46
Fragment
H -16.288600 -44.393800 -12.209700
H -15.465300 -45.002200 -14.243100
C -15.413100 -44.758000 -12.268600
H -15.002800 -44.660300 -10.245700
C -14.926000 -45.109700 -13.468500
C -14.642500 -44.919100 -11.086000
C -13.598300 -45.648000 -13.595900
C -13.391300 -45.442000 -11.157100
N -13.153600 -46.018000 -14.811400
H -12.888600 -45.558500 -10.360000
C -12.822600 -45.816000 -12.400300
H -12.037200 -46.876700 -16.949600
C -11.918300 -46.539500 -14.918800
H -11.806600 -48.898900 -12.094500
H -11.634500 -50.970400 -11.139800
C -11.525000 -46.361300 -12.521600
C -11.465100 -46.962200 -16.196700
C -11.279600 -49.010200 -11.311300
C -11.182700 -50.234800 -10.742100
C -11.053500 -46.720000 -13.786500
C -10.702600 -46.584900 -11.298300
H -10.649000 -44.008500 -11.971500
C -10.601100 -47.873600 -10.750800
C -10.422300 -50.441700 -9.569900
H -10.365800 -51.309400 -9.187000
C -10.223200 -47.487400 -16.354400
C -10.152700 -44.169300 -11.177000
C -10.056400 -45.495300 -10.669300
H -9.938500 -47.766100 -17.217300
C -9.828100 -48.090600 -9.561200
C -9.775500 -49.406200 -8.994600
C -9.749900 -47.255100 -14.001400
H -9.630000 -42.247000 -10.901500
C -9.546800 -43.123100 -10.546300
C -9.345500 -47.627900 -15.254100
C -9.289000 -45.707400 -9.466800
H -9.276800 -49.550800 -8.199300
C -9.188800 -47.004500 -8.939200
H -9.155700 -47.354700 -13.266700
C -8.795400 -43.334300 -9.364600
C -8.669400 -44.577500 -8.846500
O -8.508700 -47.321100 -7.806800
H -8.473900 -47.983400 -15.385000
H -8.377300 -42.597500 -8.933100
H -8.158800 -44.703800 -8.055500
H -8.024700 -46.673900 -7.580700
46
Fragment
H -7.448600 -44.393800 -12.209700
H -6.625300 -45.002200 -14.243100
C -6.573100 -44.758000 -12.268600
H -6.162800 -44.660300 -10.245700
C -6.086000 -45.109700 -13.468500
C -5.802500 -44.919100 -11.086000
C -4.758300 -45.648000 -13.595900
C -4.551300 -45.442000 -11.157100
N -4.313600 -46.018000 -14.811400
H -4.048600 -45.558500 -10.360000
C -3.982600 -45.816000 -12.400300
H -3.197200 -46.876700 -16.949600
C -3.078300 -46.539500 -14.918800
H -2.966600 -48.898900 -12.094500
H -2.794500 -50.970400 -11.139800
C -2.685000 -46.361300 -12.521600
C -2.625100 -46.962200 -16.196700
C -2.439600 -49.010200 -11.311300
C -2.342700 -50.234800 -10.742100
C -2.213500 -46.720000 -13.786500
C -1.862600 -46.584900 -11.298300
H -1.809000 -44.008500 -11.971500
C -1.761100 -47.873600 -10.750800
C -1.582300 -50.441700 -9.569900
H -1.525800 -51.309400 -9.187000
C -1.383200 -47.487400 -16.354400
C -1.312700 -44.169300 -11.177000
C -1.216400 -45.495300 -10.669300
H -1.098500 -47.766100 -17.217300
C -0.988100 -48.090600 -9.561200
C -0.935500 -49.406200 -8.994600
C -0.909900 -47.255100 -14.001400
H -0.790000 -42.247000 -10.901500
C -0.706800 -43.123100 -10.546300
C -0.505500 -47.627900 -15.254100
C -0.449000 -45.707400 -9.466800
H -0.436800 -49.550800 -8.199300
C -0.348800 -47.004500 -8.939200
H -0.315700 -47.354700 -13.266700
C 0.044600 -43.334300 -9.364600
C 0.170600 -44.577500 -8.846500
O 0.331300 -47.321100 -7.806800
H 0.366100 -47.983400 -15.385000
H 0.462700 -42.597500 -8.933100
H 0.681200 -44.703800 -8.055500
H 0.815300 -46.673900 -7.580700
92
Fragment
H -16.288600 -44.393800 -12.209700
H -15.465300 -45.002200 -14.243100
C -15.413100 -44.758000 -12.268600
H -15.002800 -44.660300 -10.245700
C -14.926000 -45.109700 -13.468500
C -14.642500 -44.919100 -11.086000
C -13.598300 -45.648000 -13.595900
C -13.391300 -45.442000 -11.157100
N -13.153600 -46.018000 -14.811400
H -12.888600 -45.558500 -10.360000
C -12.822600 -45.816000 -12.400300
H -12.037200 -46.876700 -16.949600
C -11.918300 -46.539500 -14.918800
H -11.806600 -48.898900 -12.094500
H -11.634500 -50.970400 -11.139800
C -11.525000 -46.361300 -12.521600
C -11.465100 -46.962200 -16.196700
C -11.279600 -49.010200 -11.311300
C -11.182700 -50.234800 -10.742100
C -11.053500 -46.720000 -13.786500
C -10.702600 -46.584900 -11.298300
H -10.649000 -44.008500 -11.971500
C -10.601100 -47.873600 -10.750800
C -10.422300 -50.441700 -9.569900
H -10.365800 -51.309400 -9.187000
C -10.223200 -47.487400 -16.354400
C -10.152700 -44.169300 -11.177000
C -10.056400 -45.495300 -10.669300
H -9.938500 -47.766100 -17.217300
C -9.828100 -48.090600 -9.561200
C -9.775500 -49.406200 -8.994600
C -9.749900 -47.255100 -14.001400
H -9.630000 -42.247000 -10.901500
C -9.546800 -43.123100 -10.546300
C -9.345500 -47.627900 -15.254100
C -9.289000 -45.707400 -9.466800
H -9.276800 -49.550800 -8.199300
C -9.188800 -47.004500 -8.939200
H -9.155700 -47.354700 -13.266700
C -8.795400 -43.334300 -9.364600
C -8.669400 -44.577500 -8.846500
O -8.508700 -47.321100 -7.806800
H -8.473900 -47.983400 -15.385000
H -8.377300 -42.597500 -8.933100
H -8.158800 -44.703800 -8.055500
H -8.024700 -46.673900 -7.580700
H -7.448600 -44.393800 -12.209700
H -6.625300 -45.002200 -14.243100
C -6.573100 -44.758000 -12.268600
H -6.162800 -44.660300 -10.245700
C -6.086000 -45.109700 -13.468500
C -5.802500 -44.919100 -11.086000
C -4.758300 -45.648000 -13.595900
C -4.551300 -45.442000 -11.157100
N -4.313600 -46.018000 -14.811400
H -4.048600 -45.558500 -10.360000
C -3.982600 -45.816000 -12.400300
H -3.197200 -46.876700 -16.949600
C -3.078300 -46.539500 -14.918800
H -2.966600 -48.898900 -12.094500
H -2.794500 -50.970400 -11.139800
C -2.685000 -46.361300 -12.521600
C -2.625100 -46.962200 -16.196700
C -2.439600 -49.010200 -11.311300
C -2.342700 -50.234800 -10.742100
C -2.213500 -46.720000 -13.786500
C -1.862600 -46.584900 -11.298300
H -1.809000 -44.008500 -11.971500
C -1.761100 -47.873600 -10.750800
C -1.582300 -50.441700 -9.569900
H -1.525800 -51.309400 -9.187000
C -1.383200 -47.487400 -16.354400
C -1.312700 -44.169300 -11.177000
C -1.216400 -45.495300 -10.669300
H -1.098500 -47.766100 -17.217300
C -0.988100 -48.090600 -9.561200
C -0.935500 -49.406200 -8.994600
C -0.909900 -47.255100 -14.001400
H -0.790000 -42.247000 -10.901500
C -0.706800 -43.123100 -10.546300
C -0.505500 -47.627900 -15.254100
C -0.449000 -45.707400 -9.466800
H -0.436800 -49.550800 -8.199300
C -0.348800 -47.004500 -8.939200
H -0.315700 -47.354700 -13.266700
C 0.044600 -43.334300 -9.364600
C 0.170600 -44.577500 -8.846500
O 0.331300 -47.321100 -7.806800
H 0.366100 -47.983400 -15.385000
H 0.462700 -42.597500 -8.933100
H 0.681200 -44.703800 -8.055500
H 0.815300 -46.673900 -7.580700
