6
Fragment
H -38.783100 -25.169600 -24.343800
N -38.573600 -22.133000 -24.473200
C -38.322900 -23.239600 -24.552300
C -38.016800 -24.644300 -24.656500
H -37.829400 -24.868900 -25.592800
H -37.231800 -24.851000 -24.108400
22
Fragment
H -36.664700 -29.329100 -31.057800
H -36.554900 -27.855700 -30.684000
N -36.506700 -28.704300 -30.457600
C -36.194700 -29.045400 -29.205000
O -36.116800 -30.236200 -28.843800
H -35.998700 -27.213800 -28.703600
N -35.953200 -28.020300 -28.356800
H -35.734800 -30.081100 -26.656700
C -35.636800 -28.083700 -26.980200
C -35.573500 -29.244800 -26.236200
O -35.474500 -31.528000 -24.773500
H -35.430000 -32.195200 -24.266500
H -35.380900 -26.066300 -26.856200
C -35.365200 -26.869200 -26.347600
C -35.274900 -29.200900 -24.870300
C -35.228400 -30.442900 -24.088600
C -35.080500 -26.812700 -25.012300
C -35.057900 -27.982000 -24.246700
O -34.996700 -30.456100 -22.876800
H -34.896800 -25.975000 -24.602600
O -34.799200 -27.858400 -22.918100
H -34.794300 -28.618800 -22.561000
28
Fragment
H -38.783100 -25.169600 -24.343800
N -38.573600 -22.133000 -24.473200
C -38.322900 -23.239600 -24.552300
C -38.016800 -24.644300 -24.656500
H -37.829400 -24.868900 -25.592800
H -37.231800 -24.851000 -24.108400
H -36.664700 -29.329100 -31.057800
H -36.554900 -27.855700 -30.684000
N -36.506700 -28.704300 -30.457600
C -36.194700 -29.045400 -29.205000
O -36.116800 -30.236200 -28.843800
H -35.998700 -27.213800 -28.703600
N -35.953200 -28.020300 -28.356800
H -35.734800 -30.081100 -26.656700
C -35.636800 -28.083700 -26.980200
C -35.573500 -29.244800 -26.236200
O -35.474500 -31.528000 -24.773500
H -35.430000 -32.195200 -24.266500
H -35.380900 -26.066300 -26.856200
C -35.365200 -26.869200 -26.347600
C -35.274900 -29.200900 -24.870300
C -35.228400 -30.442900 -24.088600
C -35.080500 -26.812700 -25.012300
C -35.057900 -27.982000 -24.246700
O -34.996700 -30.456100 -22.876800
H -34.896800 -25.975000 -24.602600
O -34.799200 -27.858400 -22.918100
H -34.794300 -28.618800 -22.561000
