6
Fragment
H -38.783100 -25.169600 -24.343800
N -38.573600 -22.133000 -24.473200
C -38.322900 -23.239600 -24.552300
C -38.016800 -24.644300 -24.656500
H -37.829400 -24.868900 -25.592800
H -37.231800 -24.851000 -24.108400
22
Fragment
H -37.899600 -21.851300 -21.856600
O -37.835800 -21.024500 -21.721400
O -37.618700 -23.565700 -21.124600
C -37.366600 -20.804100 -20.467400
H -37.350400 -18.775500 -20.659700
C -37.232200 -23.238300 -19.994800
C -37.191600 -19.488700 -20.052300
H -37.070400 -24.899500 -19.371200
C -37.063400 -21.845900 -19.572400
O -36.954000 -24.126200 -19.064000
C -36.792200 -19.214800 -18.772700
H -36.696200 -18.310900 -18.497800
C -36.628600 -21.539000 -18.278500
C -36.522300 -20.237900 -17.858000
H -36.403900 -22.244000 -17.681900
N -36.130700 -19.843100 -16.567600
O -36.023600 -21.857900 -15.495300
H -36.014600 -18.978900 -16.449000
C -35.904300 -20.622600 -15.475000
N -35.513700 -19.960500 -14.375200
H -35.439000 -19.084700 -14.393100
H -35.331300 -20.403300 -13.636500
28
Fragment
H -38.783100 -25.169600 -24.343800
N -38.573600 -22.133000 -24.473200
C -38.322900 -23.239600 -24.552300
C -38.016800 -24.644300 -24.656500
H -37.829400 -24.868900 -25.592800
H -37.231800 -24.851000 -24.108400
H -37.899600 -21.851300 -21.856600
O -37.835800 -21.024500 -21.721400
O -37.618700 -23.565700 -21.124600
C -37.366600 -20.804100 -20.467400
H -37.350400 -18.775500 -20.659700
C -37.232200 -23.238300 -19.994800
C -37.191600 -19.488700 -20.052300
H -37.070400 -24.899500 -19.371200
C -37.063400 -21.845900 -19.572400
O -36.954000 -24.126200 -19.064000
C -36.792200 -19.214800 -18.772700
H -36.696200 -18.310900 -18.497800
C -36.628600 -21.539000 -18.278500
C -36.522300 -20.237900 -17.858000
H -36.403900 -22.244000 -17.681900
N -36.130700 -19.843100 -16.567600
O -36.023600 -21.857900 -15.495300
H -36.014600 -18.978900 -16.449000
C -35.904300 -20.622600 -15.475000
N -35.513700 -19.960500 -14.375200
H -35.439000 -19.084700 -14.393100
H -35.331300 -20.403300 -13.636500
