6
Fragment
H -38.783100 -25.169600 -24.343800
N -38.573600 -22.133000 -24.473200
C -38.322900 -23.239600 -24.552300
C -38.016800 -24.644300 -24.656500
H -37.829400 -24.868900 -25.592800
H -37.231800 -24.851000 -24.108400
22
Fragment
H -35.894900 -20.531200 -27.619900
H -35.850300 -18.353000 -26.888500
H -35.779400 -16.839100 -25.199200
C -35.734300 -20.349600 -26.701600
C -35.721100 -19.057300 -26.264900
O -35.528200 -22.672800 -26.309500
N -35.526400 -17.394000 -24.564800
C -35.520300 -18.751000 -24.920700
C -35.516500 -21.405600 -25.822800
H -35.485300 -15.028400 -24.032900
H -35.386000 -23.215200 -25.684400
C -35.298700 -19.792300 -24.032900
C -35.282300 -21.107400 -24.478600
N -35.237500 -15.494500 -23.328400
C -35.200400 -16.813400 -23.387700
H -35.156300 -19.605100 -23.112800
O -35.048500 -23.384700 -23.835700
C -35.025600 -22.197900 -23.515300
H -35.014000 -15.080300 -22.584400
O -34.851500 -17.503900 -22.399700
O -34.765700 -21.796100 -22.299900
H -34.494900 -22.446200 -21.842200
28
Fragment
H -38.783100 -25.169600 -24.343800
N -38.573600 -22.133000 -24.473200
C -38.322900 -23.239600 -24.552300
C -38.016800 -24.644300 -24.656500
H -37.829400 -24.868900 -25.592800
H -37.231800 -24.851000 -24.108400
H -35.894900 -20.531200 -27.619900
H -35.850300 -18.353000 -26.888500
H -35.779400 -16.839100 -25.199200
C -35.734300 -20.349600 -26.701600
C -35.721100 -19.057300 -26.264900
O -35.528200 -22.672800 -26.309500
N -35.526400 -17.394000 -24.564800
C -35.520300 -18.751000 -24.920700
C -35.516500 -21.405600 -25.822800
H -35.485300 -15.028400 -24.032900
H -35.386000 -23.215200 -25.684400
C -35.298700 -19.792300 -24.032900
C -35.282300 -21.107400 -24.478600
N -35.237500 -15.494500 -23.328400
C -35.200400 -16.813400 -23.387700
H -35.156300 -19.605100 -23.112800
O -35.048500 -23.384700 -23.835700
C -35.025600 -22.197900 -23.515300
H -35.014000 -15.080300 -22.584400
O -34.851500 -17.503900 -22.399700
O -34.765700 -21.796100 -22.299900
H -34.494900 -22.446200 -21.842200
