34
Fragment
H -14.604200 -24.644600 -20.798800
H -14.477000 -19.974300 -18.940300
H -14.403800 -18.488800 -17.165900
O -14.043100 -21.771300 -20.354000
H -13.995800 -22.078900 -21.297400
C -13.766200 -20.010500 -18.342000
C -13.729100 -19.118900 -17.279700
C -13.714200 -24.883800 -20.922500
H -13.418900 -23.533400 -18.593700
N -13.296200 -25.788600 -21.784400
H -13.205400 -19.946100 -22.365900
C -12.791100 -21.915000 -19.716900
C -12.766100 -20.954600 -18.530800
N -12.692900 -24.360800 -20.254500
C -12.685500 -19.183000 -16.405300
C -12.680300 -23.360400 -19.198000
F -12.643600 -18.322100 -15.358000
C -12.525300 -19.535200 -21.882200
N -12.277900 -18.247600 -21.908700
C -11.966500 -25.784600 -21.586700
H -11.858000 -23.449800 -18.691600
H -11.743400 -22.129300 -21.490800
C -11.729600 -20.932400 -17.611300
N -11.689400 -20.178400 -21.083000
C -11.665900 -20.072500 -16.539500
C -11.657900 -21.576600 -20.698800
N -11.536800 -24.939800 -20.675900
H -11.391200 -26.339800 -22.060800
C -11.238700 -18.159900 -21.074700
H -10.959000 -20.098200 -15.936200
N -10.834500 -19.283300 -20.540900
H -10.826600 -17.347700 -20.885200
H -10.803700 -21.777200 -20.285200
F -10.691300 -21.801300 -17.758700
3
Fragment
O -14.855800 -27.765800 -23.068800
H -14.382700 -28.567400 -22.718300
H -14.351100 -26.982300 -22.721700
37
Fragment
H -14.604200 -24.644600 -20.798800
H -14.477000 -19.974300 -18.940300
H -14.403800 -18.488800 -17.165900
O -14.043100 -21.771300 -20.354000
H -13.995800 -22.078900 -21.297400
C -13.766200 -20.010500 -18.342000
C -13.729100 -19.118900 -17.279700
C -13.714200 -24.883800 -20.922500
H -13.418900 -23.533400 -18.593700
N -13.296200 -25.788600 -21.784400
H -13.205400 -19.946100 -22.365900
C -12.791100 -21.915000 -19.716900
C -12.766100 -20.954600 -18.530800
N -12.692900 -24.360800 -20.254500
C -12.685500 -19.183000 -16.405300
C -12.680300 -23.360400 -19.198000
F -12.643600 -18.322100 -15.358000
C -12.525300 -19.535200 -21.882200
N -12.277900 -18.247600 -21.908700
C -11.966500 -25.784600 -21.586700
H -11.858000 -23.449800 -18.691600
H -11.743400 -22.129300 -21.490800
C -11.729600 -20.932400 -17.611300
N -11.689400 -20.178400 -21.083000
C -11.665900 -20.072500 -16.539500
C -11.657900 -21.576600 -20.698800
N -11.536800 -24.939800 -20.675900
H -11.391200 -26.339800 -22.060800
C -11.238700 -18.159900 -21.074700
H -10.959000 -20.098200 -15.936200
N -10.834500 -19.283300 -20.540900
H -10.826600 -17.347700 -20.885200
H -10.803700 -21.777200 -20.285200
F -10.691300 -21.801300 -17.758700
O -14.855800 -27.765800 -23.068800
H -14.382700 -28.567400 -22.718300
H -14.351100 -26.982300 -22.721700
