44
Fragment
H -10.247000 -11.443200 -23.894200
H -10.125100 -10.578900 -22.551800
H -9.931400 -12.166600 -22.502100
C -9.780900 -11.358700 -23.035700
O -8.964000 -11.141300 -20.392000
C -8.308100 -11.187600 -23.281200
O -7.917000 -11.044600 -24.432000
C -7.815500 -11.166100 -20.779400
C -7.342600 -11.193600 -22.162900
H -6.989000 -11.179500 -19.029700
N -6.793000 -11.150000 -19.827200
C -5.965900 -11.205000 -22.388600
H -5.684000 -11.982100 -24.270300
H -5.535700 -10.389700 -24.226300
C -5.481500 -11.180900 -20.123800
C -5.330100 -11.225800 -23.758000
N -5.044300 -11.214400 -21.393800
N -4.829700 -11.027200 -17.722700
C -4.517500 -11.149300 -19.094900
H -4.359700 -11.318400 -23.665700
C -3.669600 -11.003700 -17.119600
H -3.568400 -10.922500 -16.177300
C -3.137400 -11.218400 -19.263800
H -2.819500 -11.427800 -21.162500
N -2.597900 -11.109700 -18.003700
N -2.415300 -11.364100 -20.383400
H -2.160600 -13.058400 -14.758300
H -1.536600 -11.394900 -20.339400
H -1.339700 -10.265600 -15.821100
O -1.272300 -12.765200 -14.326900
C -1.211100 -11.275500 -17.657400
O -1.033000 -12.605500 -17.145100
C -0.682400 -10.367600 -16.553400
H -0.649200 -11.160100 -18.477600
H -0.447800 -14.303200 -15.262000
H -0.438700 -9.473700 -16.903900
C -0.201200 -13.371800 -15.032100
C 0.139500 -12.616900 -16.306500
C 0.546200 -11.144600 -16.100700
H 0.597700 -13.403400 -14.448900
H 0.755600 -10.959400 -15.140000
H 0.876400 -13.095300 -16.783300
O 1.683200 -10.889000 -16.936500
H 2.090200 -10.209900 -16.655600
44
Fragment
H -13.646300 -6.854700 -25.916400
O -13.239400 -7.533800 -25.635400
H -12.432500 -9.740100 -25.788700
H -12.311700 -7.604200 -27.431900
H -12.153900 -10.048200 -28.123000
C -12.102300 -7.789400 -26.471200
C -11.695600 -9.261700 -26.265500
C -11.355000 -10.016600 -27.539800
H -11.117400 -6.118500 -25.668000
H -11.108300 -10.948000 -27.309900
H -10.906900 -7.804900 -24.094300
C -10.873700 -7.012400 -26.018500
O -10.523200 -9.250300 -25.426800
C -10.345000 -7.920300 -24.914500
O -10.283900 -9.410000 -28.245100
H -10.216500 -6.910400 -26.750800
H -10.019500 -8.039700 -22.232500
H -9.395500 -9.703200 -27.813700
N -9.140900 -8.008900 -22.188500
N -8.958300 -7.754500 -24.568300
H -8.736600 -8.072600 -21.409400
C -8.418700 -7.863200 -23.308100
H -7.987700 -7.567300 -26.394600
C -7.886600 -7.648500 -25.452300
H -7.196400 -7.963200 -18.906200
C -7.038600 -7.794100 -23.477000
N -6.726400 -7.672000 -24.849200
N -6.511900 -7.859200 -21.178100
C -6.226000 -7.870600 -18.814000
C -6.074600 -7.825700 -22.448200
H -6.020400 -7.034500 -18.345700
H -5.872100 -8.626900 -18.301700
C -5.590200 -7.849800 -20.183400
N -4.763200 -7.794800 -22.744800
H -4.567100 -7.824300 -23.542300
C -4.213500 -7.838400 -20.409000
C -3.740700 -7.810900 -21.792600
O -3.639100 -7.689400 -18.139900
C -3.248000 -7.832400 -19.290800
O -2.592100 -7.786100 -22.180000
C -1.775300 -8.003500 -19.536300
H -1.624700 -8.811400 -20.069800
H -1.431100 -7.223700 -20.020200
H -1.309200 -8.088000 -18.677700
88
Fragment
H -10.247000 -11.443200 -23.894200
H -10.125100 -10.578900 -22.551800
H -9.931400 -12.166600 -22.502100
C -9.780900 -11.358700 -23.035700
O -8.964000 -11.141300 -20.392000
C -8.308100 -11.187600 -23.281200
O -7.917000 -11.044600 -24.432000
C -7.815500 -11.166100 -20.779400
C -7.342600 -11.193600 -22.162900
H -6.989000 -11.179500 -19.029700
N -6.793000 -11.150000 -19.827200
C -5.965900 -11.205000 -22.388600
H -5.684000 -11.982100 -24.270300
H -5.535700 -10.389700 -24.226300
C -5.481500 -11.180900 -20.123800
C -5.330100 -11.225800 -23.758000
N -5.044300 -11.214400 -21.393800
N -4.829700 -11.027200 -17.722700
C -4.517500 -11.149300 -19.094900
H -4.359700 -11.318400 -23.665700
C -3.669600 -11.003700 -17.119600
H -3.568400 -10.922500 -16.177300
C -3.137400 -11.218400 -19.263800
H -2.819500 -11.427800 -21.162500
N -2.597900 -11.109700 -18.003700
N -2.415300 -11.364100 -20.383400
H -2.160600 -13.058400 -14.758300
H -1.536600 -11.394900 -20.339400
H -1.339700 -10.265600 -15.821100
O -1.272300 -12.765200 -14.326900
C -1.211100 -11.275500 -17.657400
O -1.033000 -12.605500 -17.145100
C -0.682400 -10.367600 -16.553400
H -0.649200 -11.160100 -18.477600
H -0.447800 -14.303200 -15.262000
H -0.438700 -9.473700 -16.903900
C -0.201200 -13.371800 -15.032100
C 0.139500 -12.616900 -16.306500
C 0.546200 -11.144600 -16.100700
H 0.597700 -13.403400 -14.448900
H 0.755600 -10.959400 -15.140000
H 0.876400 -13.095300 -16.783300
O 1.683200 -10.889000 -16.936500
H 2.090200 -10.209900 -16.655600
H -13.646300 -6.854700 -25.916400
O -13.239400 -7.533800 -25.635400
H -12.432500 -9.740100 -25.788700
H -12.311700 -7.604200 -27.431900
H -12.153900 -10.048200 -28.123000
C -12.102300 -7.789400 -26.471200
C -11.695600 -9.261700 -26.265500
C -11.355000 -10.016600 -27.539800
H -11.117400 -6.118500 -25.668000
H -11.108300 -10.948000 -27.309900
H -10.906900 -7.804900 -24.094300
C -10.873700 -7.012400 -26.018500
O -10.523200 -9.250300 -25.426800
C -10.345000 -7.920300 -24.914500
O -10.283900 -9.410000 -28.245100
H -10.216500 -6.910400 -26.750800
H -10.019500 -8.039700 -22.232500
H -9.395500 -9.703200 -27.813700
N -9.140900 -8.008900 -22.188500
N -8.958300 -7.754500 -24.568300
H -8.736600 -8.072600 -21.409400
C -8.418700 -7.863200 -23.308100
H -7.987700 -7.567300 -26.394600
C -7.886600 -7.648500 -25.452300
H -7.196400 -7.963200 -18.906200
C -7.038600 -7.794100 -23.477000
N -6.726400 -7.672000 -24.849200
N -6.511900 -7.859200 -21.178100
C -6.226000 -7.870600 -18.814000
C -6.074600 -7.825700 -22.448200
H -6.020400 -7.034500 -18.345700
H -5.872100 -8.626900 -18.301700
C -5.590200 -7.849800 -20.183400
N -4.763200 -7.794800 -22.744800
H -4.567100 -7.824300 -23.542300
C -4.213500 -7.838400 -20.409000
C -3.740700 -7.810900 -21.792600
O -3.639100 -7.689400 -18.139900
C -3.248000 -7.832400 -19.290800
O -2.592100 -7.786100 -22.180000
C -1.775300 -8.003500 -19.536300
H -1.624700 -8.811400 -20.069800
H -1.431100 -7.223700 -20.020200
H -1.309200 -8.088000 -18.677700
