27
Fragment
H -16.482600 -10.302600 -19.833800
N -15.659900 -9.865600 -19.499000
H -15.578700 -9.948000 -18.525700
N -15.043700 -8.613700 -21.351800
C -14.910600 -8.899300 -20.038100
H -14.888300 -7.486000 -23.792000
N -14.297300 -7.177400 -23.084100
C -14.245900 -7.644300 -21.787400
N -14.044600 -8.228100 -19.226600
H -13.988800 -8.399900 -18.250500
C -13.356100 -6.138600 -23.265700
C -13.248000 -6.977600 -21.045400
O -13.238800 -5.492900 -24.284300
C -13.199000 -7.188400 -19.684800
H -12.672000 -5.093400 -21.627100
C -12.549200 -5.973800 -21.963300
O -12.492400 -6.605100 -18.812300
H -11.074600 -7.658300 -23.604800
C -11.073600 -6.211000 -22.186000
H -11.059800 -8.220600 -22.159100
H -10.768100 -5.563300 -22.811700
C -10.703500 -7.556400 -22.736500
H -10.621000 -6.088700 -21.358900
C -9.171000 -7.753700 -22.867000
H -8.969800 -8.674600 -22.747800
H -8.863400 -7.472500 -23.722500
H -8.736400 -7.244300 -22.193100
27
Fragment
H -12.201900 -7.244300 -27.462300
H -12.074900 -7.472500 -25.932900
H -11.968400 -8.674600 -26.907600
C -11.767300 -7.753700 -26.788400
H -10.317300 -6.088700 -28.296500
C -10.234700 -7.556400 -26.918900
H -10.170200 -5.563300 -26.843700
H -9.878400 -8.220600 -27.496300
C -9.864600 -6.211000 -27.469400
H -9.863700 -7.658300 -26.050600
O -8.445800 -6.605100 -30.843100
C -8.389100 -5.973800 -27.692100
H -8.266200 -5.093400 -28.028300
C -7.739200 -7.188400 -29.970600
O -7.699400 -5.492900 -25.371100
C -7.690300 -6.977600 -28.610000
C -7.582100 -6.138600 -26.389700
H -6.949500 -8.399900 -31.404900
N -6.893600 -8.228100 -30.428800
C -6.692400 -7.644300 -27.868000
N -6.641000 -7.177400 -26.571300
H -6.049900 -7.486000 -25.863400
C -6.027600 -8.899300 -29.617300
N -5.894600 -8.613700 -28.303600
H -5.359500 -9.948000 -31.129700
N -5.278400 -9.865600 -30.156400
H -4.455600 -10.302600 -29.821600
54
Fragment
H -16.482600 -10.302600 -19.833800
N -15.659900 -9.865600 -19.499000
H -15.578700 -9.948000 -18.525700
N -15.043700 -8.613700 -21.351800
C -14.910600 -8.899300 -20.038100
H -14.888300 -7.486000 -23.792000
N -14.297300 -7.177400 -23.084100
C -14.245900 -7.644300 -21.787400
N -14.044600 -8.228100 -19.226600
H -13.988800 -8.399900 -18.250500
C -13.356100 -6.138600 -23.265700
C -13.248000 -6.977600 -21.045400
O -13.238800 -5.492900 -24.284300
C -13.199000 -7.188400 -19.684800
H -12.672000 -5.093400 -21.627100
C -12.549200 -5.973800 -21.963300
O -12.492400 -6.605100 -18.812300
H -11.074600 -7.658300 -23.604800
C -11.073600 -6.211000 -22.186000
H -11.059800 -8.220600 -22.159100
H -10.768100 -5.563300 -22.811700
C -10.703500 -7.556400 -22.736500
H -10.621000 -6.088700 -21.358900
C -9.171000 -7.753700 -22.867000
H -8.969800 -8.674600 -22.747800
H -8.863400 -7.472500 -23.722500
H -8.736400 -7.244300 -22.193100
H -12.201900 -7.244300 -27.462300
H -12.074900 -7.472500 -25.932900
H -11.968400 -8.674600 -26.907600
C -11.767300 -7.753700 -26.788400
H -10.317300 -6.088700 -28.296500
C -10.234700 -7.556400 -26.918900
H -10.170200 -5.563300 -26.843700
H -9.878400 -8.220600 -27.496300
C -9.864600 -6.211000 -27.469400
H -9.863700 -7.658300 -26.050600
O -8.445800 -6.605100 -30.843100
C -8.389100 -5.973800 -27.692100
H -8.266200 -5.093400 -28.028300
C -7.739200 -7.188400 -29.970600
O -7.699400 -5.492900 -25.371100
C -7.690300 -6.977600 -28.610000
C -7.582100 -6.138600 -26.389700
H -6.949500 -8.399900 -31.404900
N -6.893600 -8.228100 -30.428800
C -6.692400 -7.644300 -27.868000
N -6.641000 -7.177400 -26.571300
H -6.049900 -7.486000 -25.863400
C -6.027600 -8.899300 -29.617300
N -5.894600 -8.613700 -28.303600
H -5.359500 -9.948000 -31.129700
N -5.278400 -9.865600 -30.156400
H -4.455600 -10.302600 -29.821600
