27
Fragment
H -16.482600 -10.302600 -19.833800
N -15.659900 -9.865600 -19.499000
H -15.578700 -9.948000 -18.525700
N -15.043700 -8.613700 -21.351800
C -14.910600 -8.899300 -20.038100
H -14.888300 -7.486000 -23.792000
N -14.297300 -7.177400 -23.084100
C -14.245900 -7.644300 -21.787400
N -14.044600 -8.228100 -19.226600
H -13.988800 -8.399900 -18.250500
C -13.356100 -6.138600 -23.265700
C -13.248000 -6.977600 -21.045400
O -13.238800 -5.492900 -24.284300
C -13.199000 -7.188400 -19.684800
H -12.672000 -5.093400 -21.627100
C -12.549200 -5.973800 -21.963300
O -12.492400 -6.605100 -18.812300
H -11.074600 -7.658300 -23.604800
C -11.073600 -6.211000 -22.186000
H -11.059800 -8.220600 -22.159100
H -10.768100 -5.563300 -22.811700
C -10.703500 -7.556400 -22.736500
H -10.621000 -6.088700 -21.358900
C -9.171000 -7.753700 -22.867000
H -8.969800 -8.674600 -22.747800
H -8.863400 -7.472500 -23.722500
H -8.736400 -7.244300 -22.193100
27
Fragment
H -16.482600 -5.308600 -19.833800
N -15.659900 -4.871600 -19.499000
H -15.578700 -4.954000 -18.525700
N -15.043700 -3.619700 -21.351800
C -14.910600 -3.905300 -20.038100
H -14.888300 -2.492000 -23.792000
N -14.297300 -2.183400 -23.084100
C -14.245900 -2.650300 -21.787400
N -14.044600 -3.234100 -19.226600
H -13.988800 -3.405900 -18.250500
C -13.356100 -1.144600 -23.265700
C -13.248000 -1.983600 -21.045400
O -13.238800 -0.498900 -24.284300
C -13.199000 -2.194400 -19.684800
H -12.672000 -0.099400 -21.627100
C -12.549200 -0.979800 -21.963300
O -12.492400 -1.611100 -18.812300
H -11.074600 -2.664300 -23.604800
C -11.073600 -1.217000 -22.186000
H -11.059800 -3.226600 -22.159100
H -10.768100 -0.569300 -22.811700
C -10.703500 -2.562400 -22.736500
H -10.621000 -1.094700 -21.358900
C -9.171000 -2.759700 -22.867000
H -8.969800 -3.680600 -22.747800
H -8.863400 -2.478500 -23.722500
H -8.736400 -2.250300 -22.193100
54
Fragment
H -16.482600 -10.302600 -19.833800
N -15.659900 -9.865600 -19.499000
H -15.578700 -9.948000 -18.525700
N -15.043700 -8.613700 -21.351800
C -14.910600 -8.899300 -20.038100
H -14.888300 -7.486000 -23.792000
N -14.297300 -7.177400 -23.084100
C -14.245900 -7.644300 -21.787400
N -14.044600 -8.228100 -19.226600
H -13.988800 -8.399900 -18.250500
C -13.356100 -6.138600 -23.265700
C -13.248000 -6.977600 -21.045400
O -13.238800 -5.492900 -24.284300
C -13.199000 -7.188400 -19.684800
H -12.672000 -5.093400 -21.627100
C -12.549200 -5.973800 -21.963300
O -12.492400 -6.605100 -18.812300
H -11.074600 -7.658300 -23.604800
C -11.073600 -6.211000 -22.186000
H -11.059800 -8.220600 -22.159100
H -10.768100 -5.563300 -22.811700
C -10.703500 -7.556400 -22.736500
H -10.621000 -6.088700 -21.358900
C -9.171000 -7.753700 -22.867000
H -8.969800 -8.674600 -22.747800
H -8.863400 -7.472500 -23.722500
H -8.736400 -7.244300 -22.193100
H -16.482600 -5.308600 -19.833800
N -15.659900 -4.871600 -19.499000
H -15.578700 -4.954000 -18.525700
N -15.043700 -3.619700 -21.351800
C -14.910600 -3.905300 -20.038100
H -14.888300 -2.492000 -23.792000
N -14.297300 -2.183400 -23.084100
C -14.245900 -2.650300 -21.787400
N -14.044600 -3.234100 -19.226600
H -13.988800 -3.405900 -18.250500
C -13.356100 -1.144600 -23.265700
C -13.248000 -1.983600 -21.045400
O -13.238800 -0.498900 -24.284300
C -13.199000 -2.194400 -19.684800
H -12.672000 -0.099400 -21.627100
C -12.549200 -0.979800 -21.963300
O -12.492400 -1.611100 -18.812300
H -11.074600 -2.664300 -23.604800
C -11.073600 -1.217000 -22.186000
H -11.059800 -3.226600 -22.159100
H -10.768100 -0.569300 -22.811700
C -10.703500 -2.562400 -22.736500
H -10.621000 -1.094700 -21.358900
C -9.171000 -2.759700 -22.867000
H -8.969800 -3.680600 -22.747800
H -8.863400 -2.478500 -23.722500
H -8.736400 -2.250300 -22.193100
