17
Fragment
H -5.843400 -16.766100 -22.333600
O -5.712700 -17.526600 -22.612000
C -5.592700 -18.381000 -21.560800
O -5.568600 -16.582800 -20.072500
H -5.537300 -20.047300 -22.697700
C -5.518400 -17.938100 -20.248500
C -5.514500 -19.741300 -21.819400
H -5.478100 -16.406400 -19.276500
H -5.469600 -22.877500 -18.043900
C -5.421700 -18.831500 -19.204500
C -5.403500 -20.646100 -20.778900
H -5.388100 -18.524600 -18.327700
C -5.375400 -20.201900 -19.472700
H -5.347200 -21.556100 -20.961000
C -5.287500 -21.124300 -18.323300
O -5.268600 -22.409100 -18.686100
O -5.241100 -20.771900 -17.164300
38
Fragment
H -8.227700 -19.889400 -25.784200
H -7.928200 -21.120200 -24.860700
H -7.892500 -21.282800 -26.419500
C -7.705100 -20.688900 -25.689000
H -6.421400 -18.576800 -26.667300
C -6.230400 -20.332700 -25.692600
H -6.156500 -18.394500 -25.137100
C -5.891800 -18.899500 -25.921300
O -5.372600 -21.180900 -25.519000
H -4.831400 -16.925000 -27.309700
H -4.604400 -16.607200 -25.794700
C -4.416600 -18.600000 -26.212200
C -4.270500 -17.125200 -26.543900
H -4.111300 -19.138000 -26.959800
H -3.975500 -13.910300 -30.870200
H -3.875800 -18.819700 -25.437900
H -3.449500 -11.958500 -24.352700
H -3.248200 -12.535800 -30.672600
C -3.185500 -13.483400 -30.530800
H -3.153000 -10.461100 -24.709400
O -3.123800 -15.997700 -29.422200
N -3.079600 -11.412200 -28.475100
H -3.070500 -9.915300 -27.166300
N -3.062500 -13.755200 -29.094100
C -3.038100 -10.837100 -27.285000
C -3.033600 -15.047600 -28.661900
C -3.023700 -12.739700 -28.189000
N -2.944900 -11.695300 -26.270900
C -2.925100 -12.968800 -26.851600
N -2.884500 -15.257700 -27.293400
C -2.873300 -11.369400 -24.844900
C -2.861600 -16.669600 -26.850400
C -2.851600 -14.263600 -26.298400
O -2.757400 -14.551800 -25.111900
H -2.481500 -17.226000 -27.548000
H -2.414600 -13.825300 -30.988200
H -2.309100 -16.756100 -26.058100
H -1.969800 -11.475100 -24.537600
55
Fragment
H -5.843400 -16.766100 -22.333600
O -5.712700 -17.526600 -22.612000
C -5.592700 -18.381000 -21.560800
O -5.568600 -16.582800 -20.072500
H -5.537300 -20.047300 -22.697700
C -5.518400 -17.938100 -20.248500
C -5.514500 -19.741300 -21.819400
H -5.478100 -16.406400 -19.276500
H -5.469600 -22.877500 -18.043900
C -5.421700 -18.831500 -19.204500
C -5.403500 -20.646100 -20.778900
H -5.388100 -18.524600 -18.327700
C -5.375400 -20.201900 -19.472700
H -5.347200 -21.556100 -20.961000
C -5.287500 -21.124300 -18.323300
O -5.268600 -22.409100 -18.686100
O -5.241100 -20.771900 -17.164300
H -8.227700 -19.889400 -25.784200
H -7.928200 -21.120200 -24.860700
H -7.892500 -21.282800 -26.419500
C -7.705100 -20.688900 -25.689000
H -6.421400 -18.576800 -26.667300
C -6.230400 -20.332700 -25.692600
H -6.156500 -18.394500 -25.137100
C -5.891800 -18.899500 -25.921300
O -5.372600 -21.180900 -25.519000
H -4.831400 -16.925000 -27.309700
H -4.604400 -16.607200 -25.794700
C -4.416600 -18.600000 -26.212200
C -4.270500 -17.125200 -26.543900
H -4.111300 -19.138000 -26.959800
H -3.975500 -13.910300 -30.870200
H -3.875800 -18.819700 -25.437900
H -3.449500 -11.958500 -24.352700
H -3.248200 -12.535800 -30.672600
C -3.185500 -13.483400 -30.530800
H -3.153000 -10.461100 -24.709400
O -3.123800 -15.997700 -29.422200
N -3.079600 -11.412200 -28.475100
H -3.070500 -9.915300 -27.166300
N -3.062500 -13.755200 -29.094100
C -3.038100 -10.837100 -27.285000
C -3.033600 -15.047600 -28.661900
C -3.023700 -12.739700 -28.189000
N -2.944900 -11.695300 -26.270900
C -2.925100 -12.968800 -26.851600
N -2.884500 -15.257700 -27.293400
C -2.873300 -11.369400 -24.844900
C -2.861600 -16.669600 -26.850400
C -2.851600 -14.263600 -26.298400
O -2.757400 -14.551800 -25.111900
H -2.481500 -17.226000 -27.548000
H -2.414600 -13.825300 -30.988200
H -2.309100 -16.756100 -26.058100
H -1.969800 -11.475100 -24.537600
