17
Fragment
H -5.843400 -16.766100 -22.333600
O -5.712700 -17.526600 -22.612000
C -5.592700 -18.381000 -21.560800
O -5.568600 -16.582800 -20.072500
H -5.537300 -20.047300 -22.697700
C -5.518400 -17.938100 -20.248500
C -5.514500 -19.741300 -21.819400
H -5.478100 -16.406400 -19.276500
H -5.469600 -22.877500 -18.043900
C -5.421700 -18.831500 -19.204500
C -5.403500 -20.646100 -20.778900
H -5.388100 -18.524600 -18.327700
C -5.375400 -20.201900 -19.472700
H -5.347200 -21.556100 -20.961000
C -5.287500 -21.124300 -18.323300
O -5.268600 -22.409100 -18.686100
O -5.241100 -20.771900 -17.164300
38
Fragment
H -9.941600 -5.183200 -23.353900
H -9.602300 -10.464200 -21.833400
H -9.496800 -7.533500 -16.903300
H -9.429900 -10.934100 -20.343500
O -9.154000 -8.259900 -22.779600
C -9.059800 -7.971800 -21.593100
C -9.049700 -10.377800 -21.041100
C -9.038000 -5.077500 -23.046600
N -9.026900 -8.965900 -20.598100
C -8.986300 -6.676900 -21.039900
N -8.966400 -5.403400 -21.620600
C -8.887700 -6.447900 -19.702600
C -8.877800 -8.755700 -19.229600
C -8.873300 -4.545200 -20.606500
N -8.848900 -7.463400 -18.797400
H -8.840900 -3.623500 -20.725200
N -8.831800 -5.120300 -19.416400
O -8.787500 -9.705800 -18.469400
H -8.758400 -4.169200 -23.182100
C -8.725900 -7.191600 -17.360700
H -8.663200 -6.243900 -17.218900
H -8.461900 -5.666700 -23.538800
H -8.035600 -12.527800 -22.453600
H -7.935900 -7.618400 -17.021400
H -7.800000 -12.846200 -20.931700
C -7.640900 -10.833300 -21.347600
C -7.494800 -12.308100 -21.679300
H -7.307000 -10.315400 -22.096800
H -7.080000 -10.633100 -20.581900
O -6.538800 -14.889000 -22.372500
C -6.019500 -12.607600 -21.970200
H -5.754800 -12.102600 -22.754500
C -5.681000 -14.040900 -22.198900
H -5.489900 -12.285000 -21.224200
C -4.206200 -14.397000 -22.202500
H -4.018900 -14.991000 -21.472000
H -3.983200 -14.828400 -23.030800
H -3.683700 -13.597600 -22.107300
55
Fragment
H -5.843400 -16.766100 -22.333600
O -5.712700 -17.526600 -22.612000
C -5.592700 -18.381000 -21.560800
O -5.568600 -16.582800 -20.072500
H -5.537300 -20.047300 -22.697700
C -5.518400 -17.938100 -20.248500
C -5.514500 -19.741300 -21.819400
H -5.478100 -16.406400 -19.276500
H -5.469600 -22.877500 -18.043900
C -5.421700 -18.831500 -19.204500
C -5.403500 -20.646100 -20.778900
H -5.388100 -18.524600 -18.327700
C -5.375400 -20.201900 -19.472700
H -5.347200 -21.556100 -20.961000
C -5.287500 -21.124300 -18.323300
O -5.268600 -22.409100 -18.686100
O -5.241100 -20.771900 -17.164300
H -9.941600 -5.183200 -23.353900
H -9.602300 -10.464200 -21.833400
H -9.496800 -7.533500 -16.903300
H -9.429900 -10.934100 -20.343500
O -9.154000 -8.259900 -22.779600
C -9.059800 -7.971800 -21.593100
C -9.049700 -10.377800 -21.041100
C -9.038000 -5.077500 -23.046600
N -9.026900 -8.965900 -20.598100
C -8.986300 -6.676900 -21.039900
N -8.966400 -5.403400 -21.620600
C -8.887700 -6.447900 -19.702600
C -8.877800 -8.755700 -19.229600
C -8.873300 -4.545200 -20.606500
N -8.848900 -7.463400 -18.797400
H -8.840900 -3.623500 -20.725200
N -8.831800 -5.120300 -19.416400
O -8.787500 -9.705800 -18.469400
H -8.758400 -4.169200 -23.182100
C -8.725900 -7.191600 -17.360700
H -8.663200 -6.243900 -17.218900
H -8.461900 -5.666700 -23.538800
H -8.035600 -12.527800 -22.453600
H -7.935900 -7.618400 -17.021400
H -7.800000 -12.846200 -20.931700
C -7.640900 -10.833300 -21.347600
C -7.494800 -12.308100 -21.679300
H -7.307000 -10.315400 -22.096800
H -7.080000 -10.633100 -20.581900
O -6.538800 -14.889000 -22.372500
C -6.019500 -12.607600 -21.970200
H -5.754800 -12.102600 -22.754500
C -5.681000 -14.040900 -22.198900
H -5.489900 -12.285000 -21.224200
C -4.206200 -14.397000 -22.202500
H -4.018900 -14.991000 -21.472000
H -3.983200 -14.828400 -23.030800
H -3.683700 -13.597600 -22.107300
