14
Fragment
H -11.087800 -6.604900 -7.070900
N -10.368300 -6.463800 -7.497200
N -10.203300 -8.777000 -7.871800
H -9.905000 -5.764700 -7.270900
C -9.710200 -7.564600 -7.886900
O -9.195200 -9.598900 -8.387100
C -8.378600 -7.625300 -8.427800
N -8.085100 -8.855600 -8.715400
N -7.838900 -5.236400 -8.517500
C -7.477400 -6.509000 -8.680300
N -6.752700 -4.539100 -8.878900
N -6.228500 -6.624400 -9.119000
H -5.795300 -7.347300 -9.290100
N -5.794900 -5.363100 -9.235600
14
Fragment
N -17.305600 -10.890200 -4.561200
H -17.305200 -8.906100 -4.506700
N -16.872000 -9.629000 -4.677800
N -16.347800 -11.714300 -4.917900
C -15.623100 -9.744400 -5.116500
N -15.261600 -11.017000 -5.279300
N -15.015400 -7.397800 -5.081400
C -14.721900 -8.628000 -5.369000
O -13.905300 -6.654400 -5.409700
C -13.390300 -8.688800 -5.909900
H -13.195500 -10.488600 -6.525900
N -12.897200 -7.476300 -5.925000
N -12.732200 -9.789600 -6.299600
H -12.012700 -9.648400 -6.725900
28
Fragment
H -11.087800 -6.604900 -7.070900
N -10.368300 -6.463800 -7.497200
N -10.203300 -8.777000 -7.871800
H -9.905000 -5.764700 -7.270900
C -9.710200 -7.564600 -7.886900
O -9.195200 -9.598900 -8.387100
C -8.378600 -7.625300 -8.427800
N -8.085100 -8.855600 -8.715400
N -7.838900 -5.236400 -8.517500
C -7.477400 -6.509000 -8.680300
N -6.752700 -4.539100 -8.878900
N -6.228500 -6.624400 -9.119000
H -5.795300 -7.347300 -9.290100
N -5.794900 -5.363100 -9.235600
N -17.305600 -10.890200 -4.561200
H -17.305200 -8.906100 -4.506700
N -16.872000 -9.629000 -4.677800
N -16.347800 -11.714300 -4.917900
C -15.623100 -9.744400 -5.116500
N -15.261600 -11.017000 -5.279300
N -15.015400 -7.397800 -5.081400
C -14.721900 -8.628000 -5.369000
O -13.905300 -6.654400 -5.409700
C -13.390300 -8.688800 -5.909900
H -13.195500 -10.488600 -6.525900
N -12.897200 -7.476300 -5.925000
N -12.732200 -9.789600 -6.299600
H -12.012700 -9.648400 -6.725900
