14
Fragment
H -11.087800 -6.604900 -7.070900
N -10.368300 -6.463800 -7.497200
N -10.203300 -8.777000 -7.871800
H -9.905000 -5.764700 -7.270900
C -9.710200 -7.564600 -7.886900
O -9.195200 -9.598900 -8.387100
C -8.378600 -7.625300 -8.427800
N -8.085100 -8.855600 -8.715400
N -7.838900 -5.236400 -8.517500
C -7.477400 -6.509000 -8.680300
N -6.752700 -4.539100 -8.878900
N -6.228500 -6.624400 -9.119000
H -5.795300 -7.347300 -9.290100
N -5.794900 -5.363100 -9.235600
14
Fragment
N -11.845900 -3.835400 -4.561200
H -11.845500 -1.851200 -4.506700
N -11.412300 -2.574100 -4.677800
N -10.888100 -4.659400 -4.917900
C -10.163400 -2.689600 -5.116500
N -9.801900 -3.962200 -5.279300
N -9.555800 -0.342900 -5.081400
C -9.262200 -1.573200 -5.369000
O -8.445600 0.400400 -5.409700
C -7.930700 -1.634000 -5.909900
H -7.735900 -3.433800 -6.525900
N -7.437500 -0.421500 -5.925000
N -7.272500 -2.734800 -6.299600
H -6.553000 -2.593600 -6.725900
28
Fragment
H -11.087800 -6.604900 -7.070900
N -10.368300 -6.463800 -7.497200
N -10.203300 -8.777000 -7.871800
H -9.905000 -5.764700 -7.270900
C -9.710200 -7.564600 -7.886900
O -9.195200 -9.598900 -8.387100
C -8.378600 -7.625300 -8.427800
N -8.085100 -8.855600 -8.715400
N -7.838900 -5.236400 -8.517500
C -7.477400 -6.509000 -8.680300
N -6.752700 -4.539100 -8.878900
N -6.228500 -6.624400 -9.119000
H -5.795300 -7.347300 -9.290100
N -5.794900 -5.363100 -9.235600
N -11.845900 -3.835400 -4.561200
H -11.845500 -1.851200 -4.506700
N -11.412300 -2.574100 -4.677800
N -10.888100 -4.659400 -4.917900
C -10.163400 -2.689600 -5.116500
N -9.801900 -3.962200 -5.279300
N -9.555800 -0.342900 -5.081400
C -9.262200 -1.573200 -5.369000
O -8.445600 0.400400 -5.409700
C -7.930700 -1.634000 -5.909900
H -7.735900 -3.433800 -6.525900
N -7.437500 -0.421500 -5.925000
N -7.272500 -2.734800 -6.299600
H -6.553000 -2.593600 -6.725900
