14
Fragment
H -11.087800 -6.604900 -7.070900
N -10.368300 -6.463800 -7.497200
N -10.203300 -8.777000 -7.871800
H -9.905000 -5.764700 -7.270900
C -9.710200 -7.564600 -7.886900
O -9.195200 -9.598900 -8.387100
C -8.378600 -7.625300 -8.427800
N -8.085100 -8.855600 -8.715400
N -7.838900 -5.236400 -8.517500
C -7.477400 -6.509000 -8.680300
N -6.752700 -4.539100 -8.878900
N -6.228500 -6.624400 -9.119000
H -5.795300 -7.347300 -9.290100
N -5.794900 -5.363100 -9.235600
14
Fragment
N -9.789800 -8.434700 -11.459600
H -9.789400 -6.450500 -11.405100
N -9.356200 -7.173400 -11.576200
N -8.832000 -9.258700 -11.816300
C -8.107300 -7.288800 -12.014900
N -7.745800 -8.561400 -12.177700
N -7.499700 -4.942200 -11.979800
C -7.206100 -6.172500 -12.267400
O -6.389500 -4.198900 -12.308100
C -5.874600 -6.233200 -12.808300
H -5.679800 -8.033000 -13.424300
N -5.381400 -5.020700 -12.823400
N -5.216400 -7.334000 -13.198000
H -4.496900 -7.192800 -13.624300
28
Fragment
H -11.087800 -6.604900 -7.070900
N -10.368300 -6.463800 -7.497200
N -10.203300 -8.777000 -7.871800
H -9.905000 -5.764700 -7.270900
C -9.710200 -7.564600 -7.886900
O -9.195200 -9.598900 -8.387100
C -8.378600 -7.625300 -8.427800
N -8.085100 -8.855600 -8.715400
N -7.838900 -5.236400 -8.517500
C -7.477400 -6.509000 -8.680300
N -6.752700 -4.539100 -8.878900
N -6.228500 -6.624400 -9.119000
H -5.795300 -7.347300 -9.290100
N -5.794900 -5.363100 -9.235600
N -9.789800 -8.434700 -11.459600
H -9.789400 -6.450500 -11.405100
N -9.356200 -7.173400 -11.576200
N -8.832000 -9.258700 -11.816300
C -8.107300 -7.288800 -12.014900
N -7.745800 -8.561400 -12.177700
N -7.499700 -4.942200 -11.979800
C -7.206100 -6.172500 -12.267400
O -6.389500 -4.198900 -12.308100
C -5.874600 -6.233200 -12.808300
H -5.679800 -8.033000 -13.424300
N -5.381400 -5.020700 -12.823400
N -5.216400 -7.334000 -13.198000
H -4.496900 -7.192800 -13.624300
