33
Fragment
H -17.925600 -10.423200 -18.102900
H -17.708000 -11.718100 -19.974800
O -17.182500 -10.657600 -15.565300
C -16.989900 -10.669400 -18.309300
C -16.877300 -11.247800 -19.710500
C -16.754700 -11.695400 -16.064500
H -16.733800 -12.744900 -14.464200
H -16.677800 -10.543200 -20.376700
N -16.532600 -11.740100 -17.447600
N -16.486700 -12.792700 -15.374800
H -16.417000 -9.867500 -18.211500
H -16.280200 -13.481700 -15.749500
C -15.838100 -12.719800 -18.144600
O -15.789300 -15.964800 -20.870900
C -15.705900 -12.225200 -19.567500
H -15.700500 -14.171500 -20.094200
N -15.677900 -13.375900 -20.459900
O -15.444100 -13.774900 -17.724600
N -15.438700 -15.827700 -22.051200
O -15.385600 -16.773000 -22.829600
C -15.265500 -13.346100 -21.734400
H -15.141800 -11.298800 -21.881000
C -15.113500 -14.510100 -22.540000
C -15.003500 -12.103700 -22.366200
H -14.846900 -11.720500 -19.658000
C -14.625600 -14.441100 -23.848800
C -14.559700 -12.034800 -23.655100
H -14.486300 -15.231200 -24.355700
H -14.392200 -11.189000 -24.053400
C -14.350200 -13.200300 -24.384600
N -13.828900 -13.122700 -25.738700
O -13.726700 -12.009700 -26.250100
O -13.544600 -14.160500 -26.330700
33
Fragment
H -22.736200 -10.064200 -9.764700
H -22.685800 -8.748200 -7.909200
O -22.085200 -9.173000 -5.502000
C -21.853500 -9.650400 -9.592700
C -21.790900 -9.050800 -8.207900
H -21.674500 -8.967700 -10.287900
C -21.566400 -10.152800 -5.993900
H -21.437600 -11.349700 -4.489500
N -21.307100 -10.158300 -7.380600
O -21.222600 -14.384700 -10.963100
N -21.202400 -11.242300 -5.333100
H -21.165000 -8.284200 -8.178900
H -21.059400 -12.494100 -10.210100
O -21.047700 -15.147300 -12.970700
N -20.988300 -14.224800 -12.163400
H -20.984300 -11.906200 -5.666200
N -20.848400 -11.823100 -10.459900
C -20.786600 -11.170200 -8.133600
C -20.746300 -10.707000 -9.554700
C -20.647500 -12.900900 -12.652100
C -20.609900 -11.781600 -11.779600
O -20.417000 -12.264400 -7.725800
C -20.401100 -12.788000 -13.997200
H -20.394700 -13.560900 -14.549300
C -20.321600 -10.528300 -12.402300
H -20.264400 -9.749200 -11.862800
O -20.201400 -10.309600 -16.485200
C -20.161900 -11.551900 -14.540300
C -20.125000 -10.414600 -13.745600
N -20.045300 -11.417100 -15.986700
H -19.962500 -9.563400 -14.134800
H -19.869500 -10.251600 -9.714000
O -19.796000 -12.431400 -16.642600
66
Fragment
H -17.925600 -10.423200 -18.102900
H -17.708000 -11.718100 -19.974800
O -17.182500 -10.657600 -15.565300
C -16.989900 -10.669400 -18.309300
C -16.877300 -11.247800 -19.710500
C -16.754700 -11.695400 -16.064500
H -16.733800 -12.744900 -14.464200
H -16.677800 -10.543200 -20.376700
N -16.532600 -11.740100 -17.447600
N -16.486700 -12.792700 -15.374800
H -16.417000 -9.867500 -18.211500
H -16.280200 -13.481700 -15.749500
C -15.838100 -12.719800 -18.144600
O -15.789300 -15.964800 -20.870900
C -15.705900 -12.225200 -19.567500
H -15.700500 -14.171500 -20.094200
N -15.677900 -13.375900 -20.459900
O -15.444100 -13.774900 -17.724600
N -15.438700 -15.827700 -22.051200
O -15.385600 -16.773000 -22.829600
C -15.265500 -13.346100 -21.734400
H -15.141800 -11.298800 -21.881000
C -15.113500 -14.510100 -22.540000
C -15.003500 -12.103700 -22.366200
H -14.846900 -11.720500 -19.658000
C -14.625600 -14.441100 -23.848800
C -14.559700 -12.034800 -23.655100
H -14.486300 -15.231200 -24.355700
H -14.392200 -11.189000 -24.053400
C -14.350200 -13.200300 -24.384600
N -13.828900 -13.122700 -25.738700
O -13.726700 -12.009700 -26.250100
O -13.544600 -14.160500 -26.330700
H -22.736200 -10.064200 -9.764700
H -22.685800 -8.748200 -7.909200
O -22.085200 -9.173000 -5.502000
C -21.853500 -9.650400 -9.592700
C -21.790900 -9.050800 -8.207900
H -21.674500 -8.967700 -10.287900
C -21.566400 -10.152800 -5.993900
H -21.437600 -11.349700 -4.489500
N -21.307100 -10.158300 -7.380600
O -21.222600 -14.384700 -10.963100
N -21.202400 -11.242300 -5.333100
H -21.165000 -8.284200 -8.178900
H -21.059400 -12.494100 -10.210100
O -21.047700 -15.147300 -12.970700
N -20.988300 -14.224800 -12.163400
H -20.984300 -11.906200 -5.666200
N -20.848400 -11.823100 -10.459900
C -20.786600 -11.170200 -8.133600
C -20.746300 -10.707000 -9.554700
C -20.647500 -12.900900 -12.652100
C -20.609900 -11.781600 -11.779600
O -20.417000 -12.264400 -7.725800
C -20.401100 -12.788000 -13.997200
H -20.394700 -13.560900 -14.549300
C -20.321600 -10.528300 -12.402300
H -20.264400 -9.749200 -11.862800
O -20.201400 -10.309600 -16.485200
C -20.161900 -11.551900 -14.540300
C -20.125000 -10.414600 -13.745600
N -20.045300 -11.417100 -15.986700
H -19.962500 -9.563400 -14.134800
H -19.869500 -10.251600 -9.714000
O -19.796000 -12.431400 -16.642600
