33
Fragment
H -17.925600 -10.423200 -18.102900
H -17.708000 -11.718100 -19.974800
O -17.182500 -10.657600 -15.565300
C -16.989900 -10.669400 -18.309300
C -16.877300 -11.247800 -19.710500
C -16.754700 -11.695400 -16.064500
H -16.733800 -12.744900 -14.464200
H -16.677800 -10.543200 -20.376700
N -16.532600 -11.740100 -17.447600
N -16.486700 -12.792700 -15.374800
H -16.417000 -9.867500 -18.211500
H -16.280200 -13.481700 -15.749500
C -15.838100 -12.719800 -18.144600
O -15.789300 -15.964800 -20.870900
C -15.705900 -12.225200 -19.567500
H -15.700500 -14.171500 -20.094200
N -15.677900 -13.375900 -20.459900
O -15.444100 -13.774900 -17.724600
N -15.438700 -15.827700 -22.051200
O -15.385600 -16.773000 -22.829600
C -15.265500 -13.346100 -21.734400
H -15.141800 -11.298800 -21.881000
C -15.113500 -14.510100 -22.540000
C -15.003500 -12.103700 -22.366200
H -14.846900 -11.720500 -19.658000
C -14.625600 -14.441100 -23.848800
C -14.559700 -12.034800 -23.655100
H -14.486300 -15.231200 -24.355700
H -14.392200 -11.189000 -24.053400
C -14.350200 -13.200300 -24.384600
N -13.828900 -13.122700 -25.738700
O -13.726700 -12.009700 -26.250100
O -13.544600 -14.160500 -26.330700
33
Fragment
H -12.903400 -17.902400 -27.867600
H -12.853000 -16.586400 -26.012100
O -12.252400 -17.011200 -23.604900
C -12.020700 -17.488600 -27.695700
C -11.958100 -16.889000 -26.310800
H -11.841700 -16.805900 -28.390800
C -11.733600 -17.991000 -24.096800
H -11.604800 -19.187900 -22.592500
N -11.474300 -17.996500 -25.483500
O -11.389800 -22.222900 -29.066100
N -11.369600 -19.080500 -23.436000
H -11.332200 -16.122400 -26.281800
H -11.226600 -20.332300 -28.313000
O -11.214900 -22.985500 -31.073700
N -11.155500 -22.063000 -30.266300
H -11.151500 -19.744400 -23.769100
N -11.015600 -19.661300 -28.562800
C -10.953800 -19.008400 -26.236600
C -10.913500 -18.545200 -27.657700
C -10.814700 -20.739100 -30.755100
C -10.777100 -19.619800 -29.882500
O -10.584200 -20.102600 -25.828700
C -10.568300 -20.626200 -32.100100
H -10.561900 -21.399100 -32.652200
C -10.488800 -18.366500 -30.505200
H -10.431600 -17.587400 -29.965800
O -10.368600 -18.147800 -34.588200
C -10.329100 -19.390100 -32.643200
C -10.292200 -18.252800 -31.848500
N -10.212500 -19.255300 -34.089600
H -10.129700 -17.401600 -32.237700
H -10.036700 -18.089800 -27.817000
O -9.963200 -20.269600 -34.745500
66
Fragment
H -17.925600 -10.423200 -18.102900
H -17.708000 -11.718100 -19.974800
O -17.182500 -10.657600 -15.565300
C -16.989900 -10.669400 -18.309300
C -16.877300 -11.247800 -19.710500
C -16.754700 -11.695400 -16.064500
H -16.733800 -12.744900 -14.464200
H -16.677800 -10.543200 -20.376700
N -16.532600 -11.740100 -17.447600
N -16.486700 -12.792700 -15.374800
H -16.417000 -9.867500 -18.211500
H -16.280200 -13.481700 -15.749500
C -15.838100 -12.719800 -18.144600
O -15.789300 -15.964800 -20.870900
C -15.705900 -12.225200 -19.567500
H -15.700500 -14.171500 -20.094200
N -15.677900 -13.375900 -20.459900
O -15.444100 -13.774900 -17.724600
N -15.438700 -15.827700 -22.051200
O -15.385600 -16.773000 -22.829600
C -15.265500 -13.346100 -21.734400
H -15.141800 -11.298800 -21.881000
C -15.113500 -14.510100 -22.540000
C -15.003500 -12.103700 -22.366200
H -14.846900 -11.720500 -19.658000
C -14.625600 -14.441100 -23.848800
C -14.559700 -12.034800 -23.655100
H -14.486300 -15.231200 -24.355700
H -14.392200 -11.189000 -24.053400
C -14.350200 -13.200300 -24.384600
N -13.828900 -13.122700 -25.738700
O -13.726700 -12.009700 -26.250100
O -13.544600 -14.160500 -26.330700
H -12.903400 -17.902400 -27.867600
H -12.853000 -16.586400 -26.012100
O -12.252400 -17.011200 -23.604900
C -12.020700 -17.488600 -27.695700
C -11.958100 -16.889000 -26.310800
H -11.841700 -16.805900 -28.390800
C -11.733600 -17.991000 -24.096800
H -11.604800 -19.187900 -22.592500
N -11.474300 -17.996500 -25.483500
O -11.389800 -22.222900 -29.066100
N -11.369600 -19.080500 -23.436000
H -11.332200 -16.122400 -26.281800
H -11.226600 -20.332300 -28.313000
O -11.214900 -22.985500 -31.073700
N -11.155500 -22.063000 -30.266300
H -11.151500 -19.744400 -23.769100
N -11.015600 -19.661300 -28.562800
C -10.953800 -19.008400 -26.236600
C -10.913500 -18.545200 -27.657700
C -10.814700 -20.739100 -30.755100
C -10.777100 -19.619800 -29.882500
O -10.584200 -20.102600 -25.828700
C -10.568300 -20.626200 -32.100100
H -10.561900 -21.399100 -32.652200
C -10.488800 -18.366500 -30.505200
H -10.431600 -17.587400 -29.965800
O -10.368600 -18.147800 -34.588200
C -10.329100 -19.390100 -32.643200
C -10.292200 -18.252800 -31.848500
N -10.212500 -19.255300 -34.089600
H -10.129700 -17.401600 -32.237700
H -10.036700 -18.089800 -27.817000
O -9.963200 -20.269600 -34.745500
