33
Fragment
H -17.925600 -10.423200 -18.102900
H -17.708000 -11.718100 -19.974800
O -17.182500 -10.657600 -15.565300
C -16.989900 -10.669400 -18.309300
C -16.877300 -11.247800 -19.710500
C -16.754700 -11.695400 -16.064500
H -16.733800 -12.744900 -14.464200
H -16.677800 -10.543200 -20.376700
N -16.532600 -11.740100 -17.447600
N -16.486700 -12.792700 -15.374800
H -16.417000 -9.867500 -18.211500
H -16.280200 -13.481700 -15.749500
C -15.838100 -12.719800 -18.144600
O -15.789300 -15.964800 -20.870900
C -15.705900 -12.225200 -19.567500
H -15.700500 -14.171500 -20.094200
N -15.677900 -13.375900 -20.459900
O -15.444100 -13.774900 -17.724600
N -15.438700 -15.827700 -22.051200
O -15.385600 -16.773000 -22.829600
C -15.265500 -13.346100 -21.734400
H -15.141800 -11.298800 -21.881000
C -15.113500 -14.510100 -22.540000
C -15.003500 -12.103700 -22.366200
H -14.846900 -11.720500 -19.658000
C -14.625600 -14.441100 -23.848800
C -14.559700 -12.034800 -23.655100
H -14.486300 -15.231200 -24.355700
H -14.392200 -11.189000 -24.053400
C -14.350200 -13.200300 -24.384600
N -13.828900 -13.122700 -25.738700
O -13.726700 -12.009700 -26.250100
O -13.544600 -14.160500 -26.330700
33
Fragment
O -19.226200 -8.512300 -19.563300
H -19.152700 -6.332500 -26.491800
H -19.059700 -5.644300 -22.071100
N -18.976900 -7.498000 -20.219200
C -18.897200 -6.495500 -22.460300
C -18.860300 -7.632800 -21.665600
O -18.820800 -6.390500 -19.720600
H -18.757800 -5.830100 -24.343000
C -18.700600 -6.609200 -23.803500
H -18.627500 -9.641800 -21.656500
C -18.621100 -8.868900 -22.208700
O -18.605200 -8.345300 -28.480100
C -18.412300 -7.862500 -24.426300
C -18.374700 -8.981800 -23.553700
C -18.275900 -6.787900 -26.651100
C -18.235600 -7.251100 -28.072200
N -18.173800 -7.904000 -25.746000
H -18.037900 -7.987100 -30.539600
N -18.033900 -10.305700 -24.042500
O -17.974500 -11.228200 -23.235100
H -17.962800 -8.575000 -25.995800
H -17.857200 -4.365100 -28.027000
N -17.819800 -7.323200 -30.872700
O -17.799600 -10.465600 -25.242700
N -17.715100 -6.239200 -28.825300
H -17.584600 -7.430600 -31.716300
C -17.455800 -6.233700 -30.212000
H -17.347700 -5.048600 -25.918000
C -17.231300 -5.131700 -27.998000
C -17.168700 -5.731300 -26.613100
O -16.937000 -5.253900 -30.703800
H -16.336400 -4.829100 -28.296700
H -16.286000 -6.145100 -26.441100
66
Fragment
H -17.925600 -10.423200 -18.102900
H -17.708000 -11.718100 -19.974800
O -17.182500 -10.657600 -15.565300
C -16.989900 -10.669400 -18.309300
C -16.877300 -11.247800 -19.710500
C -16.754700 -11.695400 -16.064500
H -16.733800 -12.744900 -14.464200
H -16.677800 -10.543200 -20.376700
N -16.532600 -11.740100 -17.447600
N -16.486700 -12.792700 -15.374800
H -16.417000 -9.867500 -18.211500
H -16.280200 -13.481700 -15.749500
C -15.838100 -12.719800 -18.144600
O -15.789300 -15.964800 -20.870900
C -15.705900 -12.225200 -19.567500
H -15.700500 -14.171500 -20.094200
N -15.677900 -13.375900 -20.459900
O -15.444100 -13.774900 -17.724600
N -15.438700 -15.827700 -22.051200
O -15.385600 -16.773000 -22.829600
C -15.265500 -13.346100 -21.734400
H -15.141800 -11.298800 -21.881000
C -15.113500 -14.510100 -22.540000
C -15.003500 -12.103700 -22.366200
H -14.846900 -11.720500 -19.658000
C -14.625600 -14.441100 -23.848800
C -14.559700 -12.034800 -23.655100
H -14.486300 -15.231200 -24.355700
H -14.392200 -11.189000 -24.053400
C -14.350200 -13.200300 -24.384600
N -13.828900 -13.122700 -25.738700
O -13.726700 -12.009700 -26.250100
O -13.544600 -14.160500 -26.330700
O -19.226200 -8.512300 -19.563300
H -19.152700 -6.332500 -26.491800
H -19.059700 -5.644300 -22.071100
N -18.976900 -7.498000 -20.219200
C -18.897200 -6.495500 -22.460300
C -18.860300 -7.632800 -21.665600
O -18.820800 -6.390500 -19.720600
H -18.757800 -5.830100 -24.343000
C -18.700600 -6.609200 -23.803500
H -18.627500 -9.641800 -21.656500
C -18.621100 -8.868900 -22.208700
O -18.605200 -8.345300 -28.480100
C -18.412300 -7.862500 -24.426300
C -18.374700 -8.981800 -23.553700
C -18.275900 -6.787900 -26.651100
C -18.235600 -7.251100 -28.072200
N -18.173800 -7.904000 -25.746000
H -18.037900 -7.987100 -30.539600
N -18.033900 -10.305700 -24.042500
O -17.974500 -11.228200 -23.235100
H -17.962800 -8.575000 -25.995800
H -17.857200 -4.365100 -28.027000
N -17.819800 -7.323200 -30.872700
O -17.799600 -10.465600 -25.242700
N -17.715100 -6.239200 -28.825300
H -17.584600 -7.430600 -31.716300
C -17.455800 -6.233700 -30.212000
H -17.347700 -5.048600 -25.918000
C -17.231300 -5.131700 -27.998000
C -17.168700 -5.731300 -26.613100
O -16.937000 -5.253900 -30.703800
H -16.336400 -4.829100 -28.296700
H -16.286000 -6.145100 -26.441100
