48
Fragment
H -77.075400 -11.621100 -31.955100
O -76.349600 -13.884900 -31.355100
N -76.298600 -11.624300 -31.486400
H -75.948600 -10.766800 -31.184800
C -75.828000 -12.798500 -31.095100
H -74.726700 -14.723800 -30.097300
O -74.710600 -16.714800 -29.826900
H -74.501200 -12.082100 -29.628400
C -74.469400 -12.751800 -30.371400
N -74.245400 -14.081500 -29.826700
N -73.719500 -16.900500 -29.111200
H -73.604300 -11.443800 -31.718900
H -73.411100 -12.977400 -32.133100
C -73.407900 -12.344800 -31.385100
O -73.403100 -18.030000 -28.715400
C -73.189600 -14.438500 -29.078800
C -72.913300 -15.786000 -28.713100
H -72.529100 -12.350400 -30.955700
H -72.514500 -12.543000 -28.734700
C -72.293700 -13.456900 -28.597100
C -71.772300 -16.090600 -27.967600
H -71.617200 -16.986800 -27.693000
C -71.104200 -13.752700 -27.931500
C -70.882100 -15.122700 -27.630100
H -70.808300 -11.326900 -28.859900
H -70.765100 -10.878000 -27.319300
C -70.291400 -11.396200 -28.018600
N -70.184500 -12.792100 -27.614800
H -69.805200 -12.491400 -25.838700
O -69.679700 -16.384300 -26.116300
N -69.612800 -15.615100 -27.079600
N -69.471100 -13.002400 -26.411900
H -68.943900 -9.865000 -28.403400
C -68.887500 -10.836100 -28.223000
O -68.570300 -15.324800 -27.654800
H -68.475300 -11.268900 -29.011500
H -68.307100 -10.481500 -26.263500
C -68.075600 -12.535000 -26.549900
C -68.007600 -11.069800 -27.002600
O -67.948200 -12.085300 -24.229800
H -67.577500 -13.118400 -27.192400
C -67.473300 -12.641300 -25.178200
H -67.073300 -10.835300 -27.222400
H -66.399900 -13.788900 -23.140100
O -66.382500 -13.394700 -25.105800
C -65.761100 -13.435200 -23.794000
H -65.493100 -12.529300 -23.531400
H -64.971900 -14.013800 -23.824000
48
Fragment
H -88.429400 -18.253600 -37.893500
H -88.036800 -16.971400 -34.188400
O -87.863600 -15.994200 -37.166200
N -87.789800 -18.241500 -37.296700
H -87.643000 -18.491400 -34.503900
C -87.437700 -17.073800 -36.779800
H -87.398200 -18.987000 -36.954000
C -87.291600 -17.590400 -34.346900
H -86.703700 -17.602500 -33.562600
C -86.497500 -17.130200 -35.575100
H -86.427500 -15.150900 -35.854100
O -86.238900 -13.169100 -35.791300
N -85.978500 -15.778700 -35.408900
H -85.748200 -17.766100 -35.755400
N -85.227700 -12.959700 -35.076400
C -84.988800 -15.410400 -34.584800
O -84.777200 -11.814300 -34.928500
C -84.583100 -14.046800 -34.427800
H -84.458500 -17.296200 -33.985700
C -84.254500 -16.378300 -33.853100
H -83.848100 -18.542100 -32.418700
C -83.573000 -13.715600 -33.531100
H -83.311100 -12.807400 -33.437500
C -83.256800 -16.049500 -32.959500
H -83.254000 -18.428500 -30.141300
C -82.952900 -14.669000 -32.786400
C -82.897100 -18.411600 -32.185500
H -82.815200 -19.863000 -30.705400
C -82.637000 -18.891100 -30.763400
N -82.553500 -16.992600 -32.254400
O -82.428400 -14.532100 -30.543100
H -82.345300 -18.926600 -32.824100
N -82.132800 -14.191000 -31.688600
H -81.351800 -16.579800 -29.910400
O -81.237700 -13.377900 -31.946800
N -81.211900 -16.650800 -31.922700
C -81.197100 -18.610600 -30.356700
H -81.069100 -18.834700 -29.401000
C -80.861000 -17.129400 -30.588400
H -80.734000 -17.044800 -32.505100
H -80.585400 -19.178000 -30.888700
C -79.379800 -16.902900 -30.420400
O -79.054700 -16.840700 -29.134700
O -78.599000 -16.818200 -31.334100
C -77.638600 -16.672500 -28.835000
H -77.531300 -16.374300 -27.908100
H -77.255000 -16.002800 -29.438000
H -77.172600 -17.527500 -28.958600
96
Fragment
H -77.075400 -11.621100 -31.955100
O -76.349600 -13.884900 -31.355100
N -76.298600 -11.624300 -31.486400
H -75.948600 -10.766800 -31.184800
C -75.828000 -12.798500 -31.095100
H -74.726700 -14.723800 -30.097300
O -74.710600 -16.714800 -29.826900
H -74.501200 -12.082100 -29.628400
C -74.469400 -12.751800 -30.371400
N -74.245400 -14.081500 -29.826700
N -73.719500 -16.900500 -29.111200
H -73.604300 -11.443800 -31.718900
H -73.411100 -12.977400 -32.133100
C -73.407900 -12.344800 -31.385100
O -73.403100 -18.030000 -28.715400
C -73.189600 -14.438500 -29.078800
C -72.913300 -15.786000 -28.713100
H -72.529100 -12.350400 -30.955700
H -72.514500 -12.543000 -28.734700
C -72.293700 -13.456900 -28.597100
C -71.772300 -16.090600 -27.967600
H -71.617200 -16.986800 -27.693000
C -71.104200 -13.752700 -27.931500
C -70.882100 -15.122700 -27.630100
H -70.808300 -11.326900 -28.859900
H -70.765100 -10.878000 -27.319300
C -70.291400 -11.396200 -28.018600
N -70.184500 -12.792100 -27.614800
H -69.805200 -12.491400 -25.838700
O -69.679700 -16.384300 -26.116300
N -69.612800 -15.615100 -27.079600
N -69.471100 -13.002400 -26.411900
H -68.943900 -9.865000 -28.403400
C -68.887500 -10.836100 -28.223000
O -68.570300 -15.324800 -27.654800
H -68.475300 -11.268900 -29.011500
H -68.307100 -10.481500 -26.263500
C -68.075600 -12.535000 -26.549900
C -68.007600 -11.069800 -27.002600
O -67.948200 -12.085300 -24.229800
H -67.577500 -13.118400 -27.192400
C -67.473300 -12.641300 -25.178200
H -67.073300 -10.835300 -27.222400
H -66.399900 -13.788900 -23.140100
O -66.382500 -13.394700 -25.105800
C -65.761100 -13.435200 -23.794000
H -65.493100 -12.529300 -23.531400
H -64.971900 -14.013800 -23.824000
H -88.429400 -18.253600 -37.893500
H -88.036800 -16.971400 -34.188400
O -87.863600 -15.994200 -37.166200
N -87.789800 -18.241500 -37.296700
H -87.643000 -18.491400 -34.503900
C -87.437700 -17.073800 -36.779800
H -87.398200 -18.987000 -36.954000
C -87.291600 -17.590400 -34.346900
H -86.703700 -17.602500 -33.562600
C -86.497500 -17.130200 -35.575100
H -86.427500 -15.150900 -35.854100
O -86.238900 -13.169100 -35.791300
N -85.978500 -15.778700 -35.408900
H -85.748200 -17.766100 -35.755400
N -85.227700 -12.959700 -35.076400
C -84.988800 -15.410400 -34.584800
O -84.777200 -11.814300 -34.928500
C -84.583100 -14.046800 -34.427800
H -84.458500 -17.296200 -33.985700
C -84.254500 -16.378300 -33.853100
H -83.848100 -18.542100 -32.418700
C -83.573000 -13.715600 -33.531100
H -83.311100 -12.807400 -33.437500
C -83.256800 -16.049500 -32.959500
H -83.254000 -18.428500 -30.141300
C -82.952900 -14.669000 -32.786400
C -82.897100 -18.411600 -32.185500
H -82.815200 -19.863000 -30.705400
C -82.637000 -18.891100 -30.763400
N -82.553500 -16.992600 -32.254400
O -82.428400 -14.532100 -30.543100
H -82.345300 -18.926600 -32.824100
N -82.132800 -14.191000 -31.688600
H -81.351800 -16.579800 -29.910400
O -81.237700 -13.377900 -31.946800
N -81.211900 -16.650800 -31.922700
C -81.197100 -18.610600 -30.356700
H -81.069100 -18.834700 -29.401000
C -80.861000 -17.129400 -30.588400
H -80.734000 -17.044800 -32.505100
H -80.585400 -19.178000 -30.888700
C -79.379800 -16.902900 -30.420400
O -79.054700 -16.840700 -29.134700
O -78.599000 -16.818200 -31.334100
C -77.638600 -16.672500 -28.835000
H -77.531300 -16.374300 -27.908100
H -77.255000 -16.002800 -29.438000
H -77.172600 -17.527500 -28.958600
