48
Fragment
H -77.075400 -11.621100 -31.955100
O -76.349600 -13.884900 -31.355100
N -76.298600 -11.624300 -31.486400
H -75.948600 -10.766800 -31.184800
C -75.828000 -12.798500 -31.095100
H -74.726700 -14.723800 -30.097300
O -74.710600 -16.714800 -29.826900
H -74.501200 -12.082100 -29.628400
C -74.469400 -12.751800 -30.371400
N -74.245400 -14.081500 -29.826700
N -73.719500 -16.900500 -29.111200
H -73.604300 -11.443800 -31.718900
H -73.411100 -12.977400 -32.133100
C -73.407900 -12.344800 -31.385100
O -73.403100 -18.030000 -28.715400
C -73.189600 -14.438500 -29.078800
C -72.913300 -15.786000 -28.713100
H -72.529100 -12.350400 -30.955700
H -72.514500 -12.543000 -28.734700
C -72.293700 -13.456900 -28.597100
C -71.772300 -16.090600 -27.967600
H -71.617200 -16.986800 -27.693000
C -71.104200 -13.752700 -27.931500
C -70.882100 -15.122700 -27.630100
H -70.808300 -11.326900 -28.859900
H -70.765100 -10.878000 -27.319300
C -70.291400 -11.396200 -28.018600
N -70.184500 -12.792100 -27.614800
H -69.805200 -12.491400 -25.838700
O -69.679700 -16.384300 -26.116300
N -69.612800 -15.615100 -27.079600
N -69.471100 -13.002400 -26.411900
H -68.943900 -9.865000 -28.403400
C -68.887500 -10.836100 -28.223000
O -68.570300 -15.324800 -27.654800
H -68.475300 -11.268900 -29.011500
H -68.307100 -10.481500 -26.263500
C -68.075600 -12.535000 -26.549900
C -68.007600 -11.069800 -27.002600
O -67.948200 -12.085300 -24.229800
H -67.577500 -13.118400 -27.192400
C -67.473300 -12.641300 -25.178200
H -67.073300 -10.835300 -27.222400
H -66.399900 -13.788900 -23.140100
O -66.382500 -13.394700 -25.105800
C -65.761100 -13.435200 -23.794000
H -65.493100 -12.529300 -23.531400
H -64.971900 -14.013800 -23.824000
48
Fragment
H -67.754700 -9.468500 -23.920900
H -67.672400 -7.943800 -23.441500
H -67.396100 -8.315300 -24.971500
C -67.288800 -8.613500 -24.044500
O -66.328400 -8.759200 -21.545400
O -65.872600 -8.781700 -23.744900
C -65.547600 -8.843900 -22.459200
H -64.342000 -11.119000 -21.990800
H -64.193300 -8.985800 -20.374500
C -64.066300 -9.070400 -22.291200
H -63.858300 -10.775700 -23.478500
C -63.730300 -10.551600 -22.522800
N -63.715500 -8.591800 -20.956900
O -63.689700 -5.318900 -20.932700
H -63.575500 -8.520800 -22.969100
N -62.794600 -6.132000 -21.191000
H -62.582100 -10.867600 -20.055500
O -62.499000 -6.473100 -22.336500
N -62.373900 -8.933600 -20.625100
C -62.290400 -10.832100 -22.116200
H -62.112100 -11.804000 -22.174200
C -62.030300 -10.352600 -20.694100
C -61.974400 -6.610000 -20.093200
H -61.673300 -10.369500 -22.738200
C -61.670500 -7.990500 -19.920100
H -61.616300 -4.748400 -19.442000
C -61.354400 -5.656600 -19.348500
H -61.079200 -10.483100 -20.460900
C -60.672900 -8.319300 -19.026400
H -60.468800 -9.237200 -18.893900
C -60.344200 -5.987800 -18.451800
O -60.150200 -3.755300 -17.951000
C -59.938500 -7.351400 -18.294700
N -59.699700 -4.900700 -17.803100
H -59.179200 -9.707100 -17.124200
N -58.948900 -7.719700 -17.470700
O -58.688500 -5.110100 -17.088200
H -58.499900 -7.091900 -17.025500
C -58.429900 -9.071200 -17.304500
H -58.223700 -9.543500 -19.316900
C -57.635800 -9.531400 -18.532700
H -57.529200 -10.928000 -15.925600
C -57.489600 -9.014800 -16.099700
H -57.284400 -10.432400 -18.375600
N -57.137600 -10.182500 -15.582900
O -57.063700 -7.935200 -15.713300
H -56.890600 -8.912400 -18.691200
H -56.498000 -10.194600 -14.986100
96
Fragment
H -77.075400 -11.621100 -31.955100
O -76.349600 -13.884900 -31.355100
N -76.298600 -11.624300 -31.486400
H -75.948600 -10.766800 -31.184800
C -75.828000 -12.798500 -31.095100
H -74.726700 -14.723800 -30.097300
O -74.710600 -16.714800 -29.826900
H -74.501200 -12.082100 -29.628400
C -74.469400 -12.751800 -30.371400
N -74.245400 -14.081500 -29.826700
N -73.719500 -16.900500 -29.111200
H -73.604300 -11.443800 -31.718900
H -73.411100 -12.977400 -32.133100
C -73.407900 -12.344800 -31.385100
O -73.403100 -18.030000 -28.715400
C -73.189600 -14.438500 -29.078800
C -72.913300 -15.786000 -28.713100
H -72.529100 -12.350400 -30.955700
H -72.514500 -12.543000 -28.734700
C -72.293700 -13.456900 -28.597100
C -71.772300 -16.090600 -27.967600
H -71.617200 -16.986800 -27.693000
C -71.104200 -13.752700 -27.931500
C -70.882100 -15.122700 -27.630100
H -70.808300 -11.326900 -28.859900
H -70.765100 -10.878000 -27.319300
C -70.291400 -11.396200 -28.018600
N -70.184500 -12.792100 -27.614800
H -69.805200 -12.491400 -25.838700
O -69.679700 -16.384300 -26.116300
N -69.612800 -15.615100 -27.079600
N -69.471100 -13.002400 -26.411900
H -68.943900 -9.865000 -28.403400
C -68.887500 -10.836100 -28.223000
O -68.570300 -15.324800 -27.654800
H -68.475300 -11.268900 -29.011500
H -68.307100 -10.481500 -26.263500
C -68.075600 -12.535000 -26.549900
C -68.007600 -11.069800 -27.002600
O -67.948200 -12.085300 -24.229800
H -67.577500 -13.118400 -27.192400
C -67.473300 -12.641300 -25.178200
H -67.073300 -10.835300 -27.222400
H -66.399900 -13.788900 -23.140100
O -66.382500 -13.394700 -25.105800
C -65.761100 -13.435200 -23.794000
H -65.493100 -12.529300 -23.531400
H -64.971900 -14.013800 -23.824000
H -67.754700 -9.468500 -23.920900
H -67.672400 -7.943800 -23.441500
H -67.396100 -8.315300 -24.971500
C -67.288800 -8.613500 -24.044500
O -66.328400 -8.759200 -21.545400
O -65.872600 -8.781700 -23.744900
C -65.547600 -8.843900 -22.459200
H -64.342000 -11.119000 -21.990800
H -64.193300 -8.985800 -20.374500
C -64.066300 -9.070400 -22.291200
H -63.858300 -10.775700 -23.478500
C -63.730300 -10.551600 -22.522800
N -63.715500 -8.591800 -20.956900
O -63.689700 -5.318900 -20.932700
H -63.575500 -8.520800 -22.969100
N -62.794600 -6.132000 -21.191000
H -62.582100 -10.867600 -20.055500
O -62.499000 -6.473100 -22.336500
N -62.373900 -8.933600 -20.625100
C -62.290400 -10.832100 -22.116200
H -62.112100 -11.804000 -22.174200
C -62.030300 -10.352600 -20.694100
C -61.974400 -6.610000 -20.093200
H -61.673300 -10.369500 -22.738200
C -61.670500 -7.990500 -19.920100
H -61.616300 -4.748400 -19.442000
C -61.354400 -5.656600 -19.348500
H -61.079200 -10.483100 -20.460900
C -60.672900 -8.319300 -19.026400
H -60.468800 -9.237200 -18.893900
C -60.344200 -5.987800 -18.451800
O -60.150200 -3.755300 -17.951000
C -59.938500 -7.351400 -18.294700
N -59.699700 -4.900700 -17.803100
H -59.179200 -9.707100 -17.124200
N -58.948900 -7.719700 -17.470700
O -58.688500 -5.110100 -17.088200
H -58.499900 -7.091900 -17.025500
C -58.429900 -9.071200 -17.304500
H -58.223700 -9.543500 -19.316900
C -57.635800 -9.531400 -18.532700
H -57.529200 -10.928000 -15.925600
C -57.489600 -9.014800 -16.099700
H -57.284400 -10.432400 -18.375600
N -57.137600 -10.182500 -15.582900
O -57.063700 -7.935200 -15.713300
H -56.890600 -8.912400 -18.691200
H -56.498000 -10.194600 -14.986100
