48
Fragment
H -77.075400 -11.621100 -31.955100
O -76.349600 -13.884900 -31.355100
N -76.298600 -11.624300 -31.486400
H -75.948600 -10.766800 -31.184800
C -75.828000 -12.798500 -31.095100
H -74.726700 -14.723800 -30.097300
O -74.710600 -16.714800 -29.826900
H -74.501200 -12.082100 -29.628400
C -74.469400 -12.751800 -30.371400
N -74.245400 -14.081500 -29.826700
N -73.719500 -16.900500 -29.111200
H -73.604300 -11.443800 -31.718900
H -73.411100 -12.977400 -32.133100
C -73.407900 -12.344800 -31.385100
O -73.403100 -18.030000 -28.715400
C -73.189600 -14.438500 -29.078800
C -72.913300 -15.786000 -28.713100
H -72.529100 -12.350400 -30.955700
H -72.514500 -12.543000 -28.734700
C -72.293700 -13.456900 -28.597100
C -71.772300 -16.090600 -27.967600
H -71.617200 -16.986800 -27.693000
C -71.104200 -13.752700 -27.931500
C -70.882100 -15.122700 -27.630100
H -70.808300 -11.326900 -28.859900
H -70.765100 -10.878000 -27.319300
C -70.291400 -11.396200 -28.018600
N -70.184500 -12.792100 -27.614800
H -69.805200 -12.491400 -25.838700
O -69.679700 -16.384300 -26.116300
N -69.612800 -15.615100 -27.079600
N -69.471100 -13.002400 -26.411900
H -68.943900 -9.865000 -28.403400
C -68.887500 -10.836100 -28.223000
O -68.570300 -15.324800 -27.654800
H -68.475300 -11.268900 -29.011500
H -68.307100 -10.481500 -26.263500
C -68.075600 -12.535000 -26.549900
C -68.007600 -11.069800 -27.002600
O -67.948200 -12.085300 -24.229800
H -67.577500 -13.118400 -27.192400
C -67.473300 -12.641300 -25.178200
H -67.073300 -10.835300 -27.222400
H -66.399900 -13.788900 -23.140100
O -66.382500 -13.394700 -25.105800
C -65.761100 -13.435200 -23.794000
H -65.493100 -12.529300 -23.531400
H -64.971900 -14.013800 -23.824000
48
Fragment
H -89.171400 -13.498000 -41.547500
H -89.089000 -11.973300 -41.068000
H -88.812700 -12.344800 -42.598000
C -88.705400 -12.643000 -41.671000
O -87.745000 -12.788700 -39.171900
O -87.289300 -12.811200 -41.371400
C -86.964200 -12.873400 -40.085700
H -85.758600 -15.148500 -39.617400
H -85.609900 -13.015300 -38.001000
C -85.483000 -13.099900 -39.917700
H -85.274900 -14.805200 -41.105000
C -85.146900 -14.581100 -40.149300
N -85.132100 -12.621300 -38.583400
O -85.106300 -9.348400 -38.559200
H -84.992100 -12.550300 -40.595600
N -84.211200 -10.161500 -38.817500
H -83.998700 -14.897100 -37.682000
O -83.915600 -10.502600 -39.963000
N -83.790500 -12.963100 -38.251700
C -83.707000 -14.861600 -39.742700
H -83.528700 -15.833500 -39.800700
C -83.446900 -14.382100 -38.320600
C -83.391000 -10.639500 -37.719700
H -83.090000 -14.399000 -40.364700
C -83.087100 -12.020000 -37.546600
H -83.032900 -8.777900 -37.068600
C -82.771000 -9.686100 -36.975000
H -82.495900 -14.512600 -38.087400
C -82.089500 -12.348800 -36.652900
H -81.885400 -13.266700 -36.520400
C -81.760900 -10.017300 -36.078300
O -81.566800 -7.784800 -35.577500
C -81.355200 -11.380900 -35.921300
N -81.116300 -8.930200 -35.429700
H -80.595800 -13.736600 -34.750700
N -80.365500 -11.749200 -35.097200
O -80.105100 -9.139600 -34.714700
H -79.916500 -11.121400 -34.652000
C -79.846500 -13.100700 -34.931000
H -79.640300 -13.573000 -36.943400
C -79.052400 -13.560900 -36.159200
H -78.945800 -14.957500 -33.552100
C -78.906200 -13.044300 -33.726200
H -78.701000 -14.461900 -36.002200
N -78.554200 -14.212000 -33.209400
O -78.480400 -11.964700 -33.339900
H -78.307200 -12.941900 -36.317700
H -77.914600 -14.224100 -32.612600
96
Fragment
H -77.075400 -11.621100 -31.955100
O -76.349600 -13.884900 -31.355100
N -76.298600 -11.624300 -31.486400
H -75.948600 -10.766800 -31.184800
C -75.828000 -12.798500 -31.095100
H -74.726700 -14.723800 -30.097300
O -74.710600 -16.714800 -29.826900
H -74.501200 -12.082100 -29.628400
C -74.469400 -12.751800 -30.371400
N -74.245400 -14.081500 -29.826700
N -73.719500 -16.900500 -29.111200
H -73.604300 -11.443800 -31.718900
H -73.411100 -12.977400 -32.133100
C -73.407900 -12.344800 -31.385100
O -73.403100 -18.030000 -28.715400
C -73.189600 -14.438500 -29.078800
C -72.913300 -15.786000 -28.713100
H -72.529100 -12.350400 -30.955700
H -72.514500 -12.543000 -28.734700
C -72.293700 -13.456900 -28.597100
C -71.772300 -16.090600 -27.967600
H -71.617200 -16.986800 -27.693000
C -71.104200 -13.752700 -27.931500
C -70.882100 -15.122700 -27.630100
H -70.808300 -11.326900 -28.859900
H -70.765100 -10.878000 -27.319300
C -70.291400 -11.396200 -28.018600
N -70.184500 -12.792100 -27.614800
H -69.805200 -12.491400 -25.838700
O -69.679700 -16.384300 -26.116300
N -69.612800 -15.615100 -27.079600
N -69.471100 -13.002400 -26.411900
H -68.943900 -9.865000 -28.403400
C -68.887500 -10.836100 -28.223000
O -68.570300 -15.324800 -27.654800
H -68.475300 -11.268900 -29.011500
H -68.307100 -10.481500 -26.263500
C -68.075600 -12.535000 -26.549900
C -68.007600 -11.069800 -27.002600
O -67.948200 -12.085300 -24.229800
H -67.577500 -13.118400 -27.192400
C -67.473300 -12.641300 -25.178200
H -67.073300 -10.835300 -27.222400
H -66.399900 -13.788900 -23.140100
O -66.382500 -13.394700 -25.105800
C -65.761100 -13.435200 -23.794000
H -65.493100 -12.529300 -23.531400
H -64.971900 -14.013800 -23.824000
H -89.171400 -13.498000 -41.547500
H -89.089000 -11.973300 -41.068000
H -88.812700 -12.344800 -42.598000
C -88.705400 -12.643000 -41.671000
O -87.745000 -12.788700 -39.171900
O -87.289300 -12.811200 -41.371400
C -86.964200 -12.873400 -40.085700
H -85.758600 -15.148500 -39.617400
H -85.609900 -13.015300 -38.001000
C -85.483000 -13.099900 -39.917700
H -85.274900 -14.805200 -41.105000
C -85.146900 -14.581100 -40.149300
N -85.132100 -12.621300 -38.583400
O -85.106300 -9.348400 -38.559200
H -84.992100 -12.550300 -40.595600
N -84.211200 -10.161500 -38.817500
H -83.998700 -14.897100 -37.682000
O -83.915600 -10.502600 -39.963000
N -83.790500 -12.963100 -38.251700
C -83.707000 -14.861600 -39.742700
H -83.528700 -15.833500 -39.800700
C -83.446900 -14.382100 -38.320600
C -83.391000 -10.639500 -37.719700
H -83.090000 -14.399000 -40.364700
C -83.087100 -12.020000 -37.546600
H -83.032900 -8.777900 -37.068600
C -82.771000 -9.686100 -36.975000
H -82.495900 -14.512600 -38.087400
C -82.089500 -12.348800 -36.652900
H -81.885400 -13.266700 -36.520400
C -81.760900 -10.017300 -36.078300
O -81.566800 -7.784800 -35.577500
C -81.355200 -11.380900 -35.921300
N -81.116300 -8.930200 -35.429700
H -80.595800 -13.736600 -34.750700
N -80.365500 -11.749200 -35.097200
O -80.105100 -9.139600 -34.714700
H -79.916500 -11.121400 -34.652000
C -79.846500 -13.100700 -34.931000
H -79.640300 -13.573000 -36.943400
C -79.052400 -13.560900 -36.159200
H -78.945800 -14.957500 -33.552100
C -78.906200 -13.044300 -33.726200
H -78.701000 -14.461900 -36.002200
N -78.554200 -14.212000 -33.209400
O -78.480400 -11.964700 -33.339900
H -78.307200 -12.941900 -36.317700
H -77.914600 -14.224100 -32.612600
