33
Fragment
H -17.925600 -10.423200 -18.102900
H -17.708000 -11.718100 -19.974800
O -17.182500 -10.657600 -15.565300
C -16.989900 -10.669400 -18.309300
C -16.877300 -11.247800 -19.710500
C -16.754700 -11.695400 -16.064500
H -16.733800 -12.744900 -14.464200
H -16.677800 -10.543200 -20.376700
N -16.532600 -11.740100 -17.447600
N -16.486700 -12.792700 -15.374800
H -16.417000 -9.867500 -18.211500
H -16.280200 -13.481700 -15.749500
C -15.838100 -12.719800 -18.144600
O -15.789300 -15.964800 -20.870900
C -15.705900 -12.225200 -19.567500
H -15.700500 -14.171500 -20.094200
N -15.677900 -13.375900 -20.459900
O -15.444100 -13.774900 -17.724600
N -15.438700 -15.827700 -22.051200
O -15.385600 -16.773000 -22.829600
C -15.265500 -13.346100 -21.734400
H -15.141800 -11.298800 -21.881000
C -15.113500 -14.510100 -22.540000
C -15.003500 -12.103700 -22.366200
H -14.846900 -11.720500 -19.658000
C -14.625600 -14.441100 -23.848800
C -14.559700 -12.034800 -23.655100
H -14.486300 -15.231200 -24.355700
H -14.392200 -11.189000 -24.053400
C -14.350200 -13.200300 -24.384600
N -13.828900 -13.122700 -25.738700
O -13.726700 -12.009700 -26.250100
O -13.544600 -14.160500 -26.330700
33
Fragment
O -15.644800 -10.241400 -27.978100
O -15.462700 -8.090600 -28.058600
N -15.360500 -9.203600 -28.570000
C -14.839200 -9.281200 -29.924100
H -14.797200 -7.269900 -30.255400
H -14.703100 -11.312100 -29.953100
C -14.629700 -8.115700 -30.653700
C -14.563800 -10.522000 -30.460000
H -14.342500 -7.801400 -34.650800
C -14.185900 -8.184600 -31.942600
C -14.075900 -10.591000 -31.768800
H -14.047600 -7.379700 -32.427800
C -13.923900 -9.427000 -32.574400
O -13.803800 -12.853900 -31.479200
N -13.750700 -11.908600 -32.257600
O -13.745300 -9.855800 -36.584200
N -13.511400 -9.456800 -33.848900
H -13.488900 -10.252400 -34.214500
C -13.483500 -8.306100 -34.741300
O -13.400100 -12.045700 -33.437900
C -13.351300 -8.800700 -36.164200
H -12.909200 -9.562600 -38.559200
H -12.772400 -5.948400 -36.097200
N -12.702700 -8.873600 -38.934000
N -12.656800 -7.821000 -36.861200
H -12.511600 -6.624100 -33.932100
H -12.455600 -8.825800 -39.844500
C -12.434700 -7.776300 -38.244200
C -12.312100 -7.328700 -34.598300
C -12.199500 -6.750300 -35.999500
O -12.006900 -6.738500 -38.743500
H -11.481400 -7.799000 -34.334000
H -11.263800 -6.504100 -36.205900
66
Fragment
H -17.925600 -10.423200 -18.102900
H -17.708000 -11.718100 -19.974800
O -17.182500 -10.657600 -15.565300
C -16.989900 -10.669400 -18.309300
C -16.877300 -11.247800 -19.710500
C -16.754700 -11.695400 -16.064500
H -16.733800 -12.744900 -14.464200
H -16.677800 -10.543200 -20.376700
N -16.532600 -11.740100 -17.447600
N -16.486700 -12.792700 -15.374800
H -16.417000 -9.867500 -18.211500
H -16.280200 -13.481700 -15.749500
C -15.838100 -12.719800 -18.144600
O -15.789300 -15.964800 -20.870900
C -15.705900 -12.225200 -19.567500
H -15.700500 -14.171500 -20.094200
N -15.677900 -13.375900 -20.459900
O -15.444100 -13.774900 -17.724600
N -15.438700 -15.827700 -22.051200
O -15.385600 -16.773000 -22.829600
C -15.265500 -13.346100 -21.734400
H -15.141800 -11.298800 -21.881000
C -15.113500 -14.510100 -22.540000
C -15.003500 -12.103700 -22.366200
H -14.846900 -11.720500 -19.658000
C -14.625600 -14.441100 -23.848800
C -14.559700 -12.034800 -23.655100
H -14.486300 -15.231200 -24.355700
H -14.392200 -11.189000 -24.053400
C -14.350200 -13.200300 -24.384600
N -13.828900 -13.122700 -25.738700
O -13.726700 -12.009700 -26.250100
O -13.544600 -14.160500 -26.330700
O -15.644800 -10.241400 -27.978100
O -15.462700 -8.090600 -28.058600
N -15.360500 -9.203600 -28.570000
C -14.839200 -9.281200 -29.924100
H -14.797200 -7.269900 -30.255400
H -14.703100 -11.312100 -29.953100
C -14.629700 -8.115700 -30.653700
C -14.563800 -10.522000 -30.460000
H -14.342500 -7.801400 -34.650800
C -14.185900 -8.184600 -31.942600
C -14.075900 -10.591000 -31.768800
H -14.047600 -7.379700 -32.427800
C -13.923900 -9.427000 -32.574400
O -13.803800 -12.853900 -31.479200
N -13.750700 -11.908600 -32.257600
O -13.745300 -9.855800 -36.584200
N -13.511400 -9.456800 -33.848900
H -13.488900 -10.252400 -34.214500
C -13.483500 -8.306100 -34.741300
O -13.400100 -12.045700 -33.437900
C -13.351300 -8.800700 -36.164200
H -12.909200 -9.562600 -38.559200
H -12.772400 -5.948400 -36.097200
N -12.702700 -8.873600 -38.934000
N -12.656800 -7.821000 -36.861200
H -12.511600 -6.624100 -33.932100
H -12.455600 -8.825800 -39.844500
C -12.434700 -7.776300 -38.244200
C -12.312100 -7.328700 -34.598300
C -12.199500 -6.750300 -35.999500
O -12.006900 -6.738500 -38.743500
H -11.481400 -7.799000 -34.334000
H -11.263800 -6.504100 -36.205900
