33
Fragment
H -17.925600 -10.423200 -18.102900
H -17.708000 -11.718100 -19.974800
O -17.182500 -10.657600 -15.565300
C -16.989900 -10.669400 -18.309300
C -16.877300 -11.247800 -19.710500
C -16.754700 -11.695400 -16.064500
H -16.733800 -12.744900 -14.464200
H -16.677800 -10.543200 -20.376700
N -16.532600 -11.740100 -17.447600
N -16.486700 -12.792700 -15.374800
H -16.417000 -9.867500 -18.211500
H -16.280200 -13.481700 -15.749500
C -15.838100 -12.719800 -18.144600
O -15.789300 -15.964800 -20.870900
C -15.705900 -12.225200 -19.567500
H -15.700500 -14.171500 -20.094200
N -15.677900 -13.375900 -20.459900
O -15.444100 -13.774900 -17.724600
N -15.438700 -15.827700 -22.051200
O -15.385600 -16.773000 -22.829600
C -15.265500 -13.346100 -21.734400
H -15.141800 -11.298800 -21.881000
C -15.113500 -14.510100 -22.540000
C -15.003500 -12.103700 -22.366200
H -14.846900 -11.720500 -19.658000
C -14.625600 -14.441100 -23.848800
C -14.559700 -12.034800 -23.655100
H -14.486300 -15.231200 -24.355700
H -14.392200 -11.189000 -24.053400
C -14.350200 -13.200300 -24.384600
N -13.828900 -13.122700 -25.738700
O -13.726700 -12.009700 -26.250100
O -13.544600 -14.160500 -26.330700
33
Fragment
O -15.696300 -10.241400 -9.875100
O -15.514200 -8.090600 -9.955700
N -15.412000 -9.203600 -10.467100
C -14.890700 -9.281200 -11.821200
H -14.848700 -7.269900 -12.152500
H -14.754600 -11.312100 -11.850200
C -14.681200 -8.115700 -12.550800
C -14.615300 -10.522000 -12.357100
H -14.394000 -7.801400 -16.547900
C -14.237400 -8.184600 -13.839700
C -14.127400 -10.591000 -13.665900
H -14.099100 -7.379700 -14.324800
C -13.975400 -9.427000 -14.471500
O -13.855300 -12.853900 -13.376300
N -13.802200 -11.908600 -14.154700
O -13.796800 -9.855800 -18.481300
N -13.562900 -9.456800 -15.745900
H -13.540400 -10.252400 -16.111600
C -13.535000 -8.306100 -16.638400
O -13.451600 -12.045700 -15.335000
C -13.402800 -8.800700 -18.061300
H -12.960700 -9.562600 -20.456300
H -12.823900 -5.948400 -17.994300
N -12.754200 -8.873600 -20.831000
N -12.708300 -7.821000 -18.758300
H -12.563100 -6.624100 -15.829200
H -12.507100 -8.825800 -21.741600
C -12.486200 -7.776300 -20.141300
C -12.363600 -7.328700 -16.495400
C -12.251000 -6.750300 -17.896600
O -12.058400 -6.738500 -20.640600
H -11.532900 -7.799000 -16.231100
H -11.315300 -6.504100 -18.102900
66
Fragment
H -17.925600 -10.423200 -18.102900
H -17.708000 -11.718100 -19.974800
O -17.182500 -10.657600 -15.565300
C -16.989900 -10.669400 -18.309300
C -16.877300 -11.247800 -19.710500
C -16.754700 -11.695400 -16.064500
H -16.733800 -12.744900 -14.464200
H -16.677800 -10.543200 -20.376700
N -16.532600 -11.740100 -17.447600
N -16.486700 -12.792700 -15.374800
H -16.417000 -9.867500 -18.211500
H -16.280200 -13.481700 -15.749500
C -15.838100 -12.719800 -18.144600
O -15.789300 -15.964800 -20.870900
C -15.705900 -12.225200 -19.567500
H -15.700500 -14.171500 -20.094200
N -15.677900 -13.375900 -20.459900
O -15.444100 -13.774900 -17.724600
N -15.438700 -15.827700 -22.051200
O -15.385600 -16.773000 -22.829600
C -15.265500 -13.346100 -21.734400
H -15.141800 -11.298800 -21.881000
C -15.113500 -14.510100 -22.540000
C -15.003500 -12.103700 -22.366200
H -14.846900 -11.720500 -19.658000
C -14.625600 -14.441100 -23.848800
C -14.559700 -12.034800 -23.655100
H -14.486300 -15.231200 -24.355700
H -14.392200 -11.189000 -24.053400
C -14.350200 -13.200300 -24.384600
N -13.828900 -13.122700 -25.738700
O -13.726700 -12.009700 -26.250100
O -13.544600 -14.160500 -26.330700
O -15.696300 -10.241400 -9.875100
O -15.514200 -8.090600 -9.955700
N -15.412000 -9.203600 -10.467100
C -14.890700 -9.281200 -11.821200
H -14.848700 -7.269900 -12.152500
H -14.754600 -11.312100 -11.850200
C -14.681200 -8.115700 -12.550800
C -14.615300 -10.522000 -12.357100
H -14.394000 -7.801400 -16.547900
C -14.237400 -8.184600 -13.839700
C -14.127400 -10.591000 -13.665900
H -14.099100 -7.379700 -14.324800
C -13.975400 -9.427000 -14.471500
O -13.855300 -12.853900 -13.376300
N -13.802200 -11.908600 -14.154700
O -13.796800 -9.855800 -18.481300
N -13.562900 -9.456800 -15.745900
H -13.540400 -10.252400 -16.111600
C -13.535000 -8.306100 -16.638400
O -13.451600 -12.045700 -15.335000
C -13.402800 -8.800700 -18.061300
H -12.960700 -9.562600 -20.456300
H -12.823900 -5.948400 -17.994300
N -12.754200 -8.873600 -20.831000
N -12.708300 -7.821000 -18.758300
H -12.563100 -6.624100 -15.829200
H -12.507100 -8.825800 -21.741600
C -12.486200 -7.776300 -20.141300
C -12.363600 -7.328700 -16.495400
C -12.251000 -6.750300 -17.896600
O -12.058400 -6.738500 -20.640600
H -11.532900 -7.799000 -16.231100
H -11.315300 -6.504100 -18.102900
