8
Fragment
O -9.607100 -20.080200 -23.333900
H -9.065800 -20.293900 -25.653100
C -8.502400 -19.940300 -23.885400
N -8.346800 -20.198400 -25.182500
H -7.608700 -19.975600 -25.536900
H -7.521000 -19.577700 -22.268500
N -7.434100 -19.553300 -23.188000
H -6.669200 -19.630700 -23.532300
18
Fragment
H -12.407500 -17.552300 -26.158600
H -12.236600 -16.052100 -26.585700
C -11.758600 -16.842600 -26.290800
H -11.729300 -16.274900 -24.340000
C -11.076700 -16.549500 -24.988400
O -10.919300 -19.441000 -26.717700
N -10.802200 -17.248500 -27.335000
H -10.628700 -17.340000 -24.677000
H -10.511400 -15.430000 -28.067400
H -10.434700 -15.846500 -25.114200
C -10.425600 -18.558600 -27.405600
C -10.216000 -16.309400 -28.130700
N -9.420000 -18.831000 -28.297200
C -9.236800 -16.589300 -28.998100
H -9.137600 -19.683800 -28.304100
H -8.870900 -15.915500 -29.524300
C -8.760700 -17.927100 -29.107400
O -7.835500 -18.307800 -29.822300
26
Fragment
O -9.607100 -20.080200 -23.333900
H -9.065800 -20.293900 -25.653100
C -8.502400 -19.940300 -23.885400
N -8.346800 -20.198400 -25.182500
H -7.608700 -19.975600 -25.536900
H -7.521000 -19.577700 -22.268500
N -7.434100 -19.553300 -23.188000
H -6.669200 -19.630700 -23.532300
H -12.407500 -17.552300 -26.158600
H -12.236600 -16.052100 -26.585700
C -11.758600 -16.842600 -26.290800
H -11.729300 -16.274900 -24.340000
C -11.076700 -16.549500 -24.988400
O -10.919300 -19.441000 -26.717700
N -10.802200 -17.248500 -27.335000
H -10.628700 -17.340000 -24.677000
H -10.511400 -15.430000 -28.067400
H -10.434700 -15.846500 -25.114200
C -10.425600 -18.558600 -27.405600
C -10.216000 -16.309400 -28.130700
N -9.420000 -18.831000 -28.297200
C -9.236800 -16.589300 -28.998100
H -9.137600 -19.683800 -28.304100
H -8.870900 -15.915500 -29.524300
C -8.760700 -17.927100 -29.107400
O -7.835500 -18.307800 -29.822300
