26
Fragment
O -32.931900 -30.108200 -6.766800
O -32.931900 -21.264800 -6.766800
H -32.793100 -28.563400 -8.009300
H -32.793100 -22.809600 -8.009300
H -32.153000 -27.424400 -8.751300
H -32.153000 -23.948600 -8.751300
N -32.061100 -28.136300 -8.230600
N -32.061100 -23.236700 -8.230600
N -31.755600 -30.261600 -6.408400
N -31.755600 -21.111400 -6.408400
O -31.451700 -31.101900 -5.523400
O -31.451700 -20.271100 -5.523400
C -30.926900 -28.579500 -7.763100
C -30.926900 -22.793500 -7.763100
N -30.700300 -29.594200 -6.899100
N -30.700300 -21.778800 -6.899100
O -29.861300 -25.686500 -6.883500
C -29.794600 -25.686500 -8.088500
N -29.779100 -28.028700 -8.159100
N -29.779100 -23.344300 -8.159100
N -29.777300 -26.828400 -8.835800
N -29.777300 -24.544600 -8.835800
H -29.577400 -26.802000 -9.676500
H -29.577400 -24.571000 -9.676500
H -29.022700 -28.256600 -7.794800
H -29.022700 -23.116400 -7.794800
26
Fragment
O -32.931900 -30.108200 -2.297300
O -32.931900 -21.264800 -2.297300
H -32.793100 -28.563400 -3.539800
H -32.793100 -22.809600 -3.539800
H -32.153000 -27.424400 -4.281800
H -32.153000 -23.948600 -4.281800
N -32.061100 -28.136300 -3.761100
N -32.061100 -23.236700 -3.761100
N -31.755600 -30.261600 -1.938900
N -31.755600 -21.111400 -1.938900
O -31.451700 -31.101900 -1.053900
O -31.451700 -20.271100 -1.053900
C -30.926900 -28.579500 -3.293600
C -30.926900 -22.793500 -3.293600
N -30.700300 -29.594200 -2.429600
N -30.700300 -21.778800 -2.429600
O -29.861300 -25.686500 -2.414000
C -29.794600 -25.686500 -3.619000
N -29.779100 -28.028700 -3.689600
N -29.779100 -23.344300 -3.689600
N -29.777300 -26.828400 -4.366300
N -29.777300 -24.544600 -4.366300
H -29.577400 -26.802000 -5.207000
H -29.577400 -24.571000 -5.207000
H -29.022700 -28.256600 -3.325300
H -29.022700 -23.116400 -3.325300
52
Fragment
O -32.931900 -30.108200 -6.766800
O -32.931900 -21.264800 -6.766800
H -32.793100 -28.563400 -8.009300
H -32.793100 -22.809600 -8.009300
H -32.153000 -27.424400 -8.751300
H -32.153000 -23.948600 -8.751300
N -32.061100 -28.136300 -8.230600
N -32.061100 -23.236700 -8.230600
N -31.755600 -30.261600 -6.408400
N -31.755600 -21.111400 -6.408400
O -31.451700 -31.101900 -5.523400
O -31.451700 -20.271100 -5.523400
C -30.926900 -28.579500 -7.763100
C -30.926900 -22.793500 -7.763100
N -30.700300 -29.594200 -6.899100
N -30.700300 -21.778800 -6.899100
O -29.861300 -25.686500 -6.883500
C -29.794600 -25.686500 -8.088500
N -29.779100 -28.028700 -8.159100
N -29.779100 -23.344300 -8.159100
N -29.777300 -26.828400 -8.835800
N -29.777300 -24.544600 -8.835800
H -29.577400 -26.802000 -9.676500
H -29.577400 -24.571000 -9.676500
H -29.022700 -28.256600 -7.794800
H -29.022700 -23.116400 -7.794800
O -32.931900 -30.108200 -2.297300
O -32.931900 -21.264800 -2.297300
H -32.793100 -28.563400 -3.539800
H -32.793100 -22.809600 -3.539800
H -32.153000 -27.424400 -4.281800
H -32.153000 -23.948600 -4.281800
N -32.061100 -28.136300 -3.761100
N -32.061100 -23.236700 -3.761100
N -31.755600 -30.261600 -1.938900
N -31.755600 -21.111400 -1.938900
O -31.451700 -31.101900 -1.053900
O -31.451700 -20.271100 -1.053900
C -30.926900 -28.579500 -3.293600
C -30.926900 -22.793500 -3.293600
N -30.700300 -29.594200 -2.429600
N -30.700300 -21.778800 -2.429600
O -29.861300 -25.686500 -2.414000
C -29.794600 -25.686500 -3.619000
N -29.779100 -28.028700 -3.689600
N -29.779100 -23.344300 -3.689600
N -29.777300 -26.828400 -4.366300
N -29.777300 -24.544600 -4.366300
H -29.577400 -26.802000 -5.207000
H -29.577400 -24.571000 -5.207000
H -29.022700 -28.256600 -3.325300
H -29.022700 -23.116400 -3.325300
