26
Fragment
O -32.931900 -30.108200 -6.766800
O -32.931900 -21.264800 -6.766800
H -32.793100 -28.563400 -8.009300
H -32.793100 -22.809600 -8.009300
H -32.153000 -27.424400 -8.751300
H -32.153000 -23.948600 -8.751300
N -32.061100 -28.136300 -8.230600
N -32.061100 -23.236700 -8.230600
N -31.755600 -30.261600 -6.408400
N -31.755600 -21.111400 -6.408400
O -31.451700 -31.101900 -5.523400
O -31.451700 -20.271100 -5.523400
C -30.926900 -28.579500 -7.763100
C -30.926900 -22.793500 -7.763100
N -30.700300 -29.594200 -6.899100
N -30.700300 -21.778800 -6.899100
O -29.861300 -25.686500 -6.883500
C -29.794600 -25.686500 -8.088500
N -29.779100 -28.028700 -8.159100
N -29.779100 -23.344300 -8.159100
N -29.777300 -26.828400 -8.835800
N -29.777300 -24.544600 -8.835800
H -29.577400 -26.802000 -9.676500
H -29.577400 -24.571000 -9.676500
H -29.022700 -28.256600 -7.794800
H -29.022700 -23.116400 -7.794800
26
Fragment
H -38.859800 -20.917600 -10.029600
H -38.859800 -15.777400 -10.029600
H -38.305100 -19.463000 -11.911200
H -38.305100 -17.232000 -11.911200
N -38.105200 -19.489400 -11.070500
N -38.105200 -17.205600 -11.070500
N -38.103400 -20.689700 -10.393800
N -38.103400 -16.005300 -10.393800
C -38.087900 -18.347500 -10.323200
O -38.021200 -18.347500 -9.118200
N -37.182200 -22.255200 -9.133900
N -37.182200 -14.439800 -9.133900
C -36.955600 -21.240500 -9.997800
C -36.955600 -15.454500 -9.997800
O -36.430800 -23.762900 -7.758200
O -36.430800 -12.932100 -7.758200
N -36.126900 -22.922600 -8.643100
N -36.126900 -13.772400 -8.643100
N -35.821400 -20.797300 -10.465300
N -35.821400 -15.897700 -10.465300
H -35.729500 -20.085400 -10.986000
H -35.729500 -16.609600 -10.986000
H -35.089400 -21.224400 -10.244100
H -35.089400 -15.470600 -10.244100
O -34.950600 -22.769200 -9.001600
O -34.950600 -13.925800 -9.001600
52
Fragment
O -32.931900 -30.108200 -6.766800
O -32.931900 -21.264800 -6.766800
H -32.793100 -28.563400 -8.009300
H -32.793100 -22.809600 -8.009300
H -32.153000 -27.424400 -8.751300
H -32.153000 -23.948600 -8.751300
N -32.061100 -28.136300 -8.230600
N -32.061100 -23.236700 -8.230600
N -31.755600 -30.261600 -6.408400
N -31.755600 -21.111400 -6.408400
O -31.451700 -31.101900 -5.523400
O -31.451700 -20.271100 -5.523400
C -30.926900 -28.579500 -7.763100
C -30.926900 -22.793500 -7.763100
N -30.700300 -29.594200 -6.899100
N -30.700300 -21.778800 -6.899100
O -29.861300 -25.686500 -6.883500
C -29.794600 -25.686500 -8.088500
N -29.779100 -28.028700 -8.159100
N -29.779100 -23.344300 -8.159100
N -29.777300 -26.828400 -8.835800
N -29.777300 -24.544600 -8.835800
H -29.577400 -26.802000 -9.676500
H -29.577400 -24.571000 -9.676500
H -29.022700 -28.256600 -7.794800
H -29.022700 -23.116400 -7.794800
H -38.859800 -20.917600 -10.029600
H -38.859800 -15.777400 -10.029600
H -38.305100 -19.463000 -11.911200
H -38.305100 -17.232000 -11.911200
N -38.105200 -19.489400 -11.070500
N -38.105200 -17.205600 -11.070500
N -38.103400 -20.689700 -10.393800
N -38.103400 -16.005300 -10.393800
C -38.087900 -18.347500 -10.323200
O -38.021200 -18.347500 -9.118200
N -37.182200 -22.255200 -9.133900
N -37.182200 -14.439800 -9.133900
C -36.955600 -21.240500 -9.997800
C -36.955600 -15.454500 -9.997800
O -36.430800 -23.762900 -7.758200
O -36.430800 -12.932100 -7.758200
N -36.126900 -22.922600 -8.643100
N -36.126900 -13.772400 -8.643100
N -35.821400 -20.797300 -10.465300
N -35.821400 -15.897700 -10.465300
H -35.729500 -20.085400 -10.986000
H -35.729500 -16.609600 -10.986000
H -35.089400 -21.224400 -10.244100
H -35.089400 -15.470600 -10.244100
O -34.950600 -22.769200 -9.001600
O -34.950600 -13.925800 -9.001600
