43
Fragment
H -21.504600 -11.954500 -18.798800
H -21.416800 -14.182000 -19.510500
C -20.853100 -12.542200 -18.435800
C -20.796200 -13.863000 -18.865900
H -20.015300 -11.177600 -17.178400
C -19.960800 -12.078100 -17.477300
C -19.833400 -14.709400 -18.351600
H -19.793400 -15.613400 -18.640600
H -19.475900 -11.306000 -14.907500
C -18.986300 -12.923600 -16.952000
H -18.984700 -10.034300 -10.593800
H -18.936600 -12.586600 -14.106700
C -18.916000 -14.236400 -17.403100
C -18.669800 -11.835500 -14.682500
N -18.387600 -9.444300 -10.824200
H -18.242400 -14.815700 -17.067000
H -18.222500 -8.718600 -10.329500
O -18.180700 -10.739400 -12.626000
C -17.984800 -12.383600 -15.941400
C -17.762200 -10.917800 -13.929800
C -17.667600 -9.661700 -11.935800
H -17.359600 -13.115600 -15.671300
N -17.211000 -11.322300 -16.592400
H -17.087700 -11.375100 -17.493000
C -16.746800 -10.251000 -14.472400
C -16.589500 -8.968900 -12.386200
C -16.571800 -10.336300 -15.942500
C -16.066600 -7.916500 -11.584400
C -15.881900 -9.285600 -13.696700
O -15.880600 -9.487900 -16.537200
H -15.794800 -8.462500 -14.239700
N -15.605400 -7.058200 -10.962100
H -15.028200 -11.335900 -12.205100
C -14.477500 -9.840400 -13.478800
C -14.282200 -10.937300 -12.639000
H -13.496300 -8.529700 -14.692700
C -13.377800 -9.272800 -14.112400
C -13.010100 -11.453300 -12.430100
H -12.887900 -12.200200 -11.856400
C -12.100900 -9.790600 -13.899000
C -11.915600 -10.874800 -13.061400
H -11.353600 -9.395700 -14.332300
H -11.043900 -11.223600 -12.917800
43
Fragment
H -23.793300 -14.989900 -14.042900
H -23.483700 -16.817800 -12.628400
C -22.921600 -15.338700 -13.899300
C -22.736400 -16.422900 -13.061700
H -21.949300 -14.013200 -15.104300
C -21.827200 -14.760200 -14.530600
C -21.459400 -16.940600 -12.848300
H -21.340900 -17.683700 -12.268000
C -20.555100 -15.276200 -14.321700
C -20.359700 -16.373000 -13.481900
H -19.809000 -14.877600 -14.755600
N -19.231900 -19.155300 -15.998600
H -19.042500 -17.751000 -12.720900
O -18.956700 -16.725600 -10.423400
C -18.955300 -16.927900 -13.264000
C -18.770700 -18.297000 -15.376300
C -18.265400 -15.877100 -11.018200
C -18.247800 -17.244600 -14.574500
C -18.090400 -15.962500 -12.488300
H -17.749500 -14.838400 -9.467700
N -17.626300 -14.891200 -10.368300
H -17.477600 -13.097900 -11.289300
C -17.169600 -16.551800 -15.024900
C -17.075000 -15.295700 -13.030900
C -16.852500 -13.829900 -11.019300
O -16.656600 -15.474000 -14.334700
H -16.614700 -17.494900 -16.631100
H -16.594800 -11.397800 -9.893700
N -16.449700 -16.769200 -16.136500
C -16.167500 -14.378000 -12.278200
C -15.921200 -11.977000 -9.557600
H -15.900700 -13.626900 -12.854000
H -15.852600 -16.179200 -16.366900
C -15.850900 -13.289900 -10.008700
H -15.361400 -14.907500 -12.053200
H -15.043900 -10.600100 -8.320100
C -15.003800 -11.504100 -8.609100
C -14.876500 -14.135400 -9.483400
H -14.821900 -15.035900 -9.782200
C -14.041000 -12.350500 -8.094800
C -13.984200 -13.671300 -8.524900
H -13.420500 -12.031500 -7.450100
H -13.332700 -14.259000 -8.161900
86
Fragment
H -21.504600 -11.954500 -18.798800
H -21.416800 -14.182000 -19.510500
C -20.853100 -12.542200 -18.435800
C -20.796200 -13.863000 -18.865900
H -20.015300 -11.177600 -17.178400
C -19.960800 -12.078100 -17.477300
C -19.833400 -14.709400 -18.351600
H -19.793400 -15.613400 -18.640600
H -19.475900 -11.306000 -14.907500
C -18.986300 -12.923600 -16.952000
H -18.984700 -10.034300 -10.593800
H -18.936600 -12.586600 -14.106700
C -18.916000 -14.236400 -17.403100
C -18.669800 -11.835500 -14.682500
N -18.387600 -9.444300 -10.824200
H -18.242400 -14.815700 -17.067000
H -18.222500 -8.718600 -10.329500
O -18.180700 -10.739400 -12.626000
C -17.984800 -12.383600 -15.941400
C -17.762200 -10.917800 -13.929800
C -17.667600 -9.661700 -11.935800
H -17.359600 -13.115600 -15.671300
N -17.211000 -11.322300 -16.592400
H -17.087700 -11.375100 -17.493000
C -16.746800 -10.251000 -14.472400
C -16.589500 -8.968900 -12.386200
C -16.571800 -10.336300 -15.942500
C -16.066600 -7.916500 -11.584400
C -15.881900 -9.285600 -13.696700
O -15.880600 -9.487900 -16.537200
H -15.794800 -8.462500 -14.239700
N -15.605400 -7.058200 -10.962100
H -15.028200 -11.335900 -12.205100
C -14.477500 -9.840400 -13.478800
C -14.282200 -10.937300 -12.639000
H -13.496300 -8.529700 -14.692700
C -13.377800 -9.272800 -14.112400
C -13.010100 -11.453300 -12.430100
H -12.887900 -12.200200 -11.856400
C -12.100900 -9.790600 -13.899000
C -11.915600 -10.874800 -13.061400
H -11.353600 -9.395700 -14.332300
H -11.043900 -11.223600 -12.917800
H -23.793300 -14.989900 -14.042900
H -23.483700 -16.817800 -12.628400
C -22.921600 -15.338700 -13.899300
C -22.736400 -16.422900 -13.061700
H -21.949300 -14.013200 -15.104300
C -21.827200 -14.760200 -14.530600
C -21.459400 -16.940600 -12.848300
H -21.340900 -17.683700 -12.268000
C -20.555100 -15.276200 -14.321700
C -20.359700 -16.373000 -13.481900
H -19.809000 -14.877600 -14.755600
N -19.231900 -19.155300 -15.998600
H -19.042500 -17.751000 -12.720900
O -18.956700 -16.725600 -10.423400
C -18.955300 -16.927900 -13.264000
C -18.770700 -18.297000 -15.376300
C -18.265400 -15.877100 -11.018200
C -18.247800 -17.244600 -14.574500
C -18.090400 -15.962500 -12.488300
H -17.749500 -14.838400 -9.467700
N -17.626300 -14.891200 -10.368300
H -17.477600 -13.097900 -11.289300
C -17.169600 -16.551800 -15.024900
C -17.075000 -15.295700 -13.030900
C -16.852500 -13.829900 -11.019300
O -16.656600 -15.474000 -14.334700
H -16.614700 -17.494900 -16.631100
H -16.594800 -11.397800 -9.893700
N -16.449700 -16.769200 -16.136500
C -16.167500 -14.378000 -12.278200
C -15.921200 -11.977000 -9.557600
H -15.900700 -13.626900 -12.854000
H -15.852600 -16.179200 -16.366900
C -15.850900 -13.289900 -10.008700
H -15.361400 -14.907500 -12.053200
H -15.043900 -10.600100 -8.320100
C -15.003800 -11.504100 -8.609100
C -14.876500 -14.135400 -9.483400
H -14.821900 -15.035900 -9.782200
C -14.041000 -12.350500 -8.094800
C -13.984200 -13.671300 -8.524900
H -13.420500 -12.031500 -7.450100
H -13.332700 -14.259000 -8.161900
