43
Fragment
H -21.504600 -11.954500 -18.798800
H -21.416800 -14.182000 -19.510500
C -20.853100 -12.542200 -18.435800
C -20.796200 -13.863000 -18.865900
H -20.015300 -11.177600 -17.178400
C -19.960800 -12.078100 -17.477300
C -19.833400 -14.709400 -18.351600
H -19.793400 -15.613400 -18.640600
H -19.475900 -11.306000 -14.907500
C -18.986300 -12.923600 -16.952000
H -18.984700 -10.034300 -10.593800
H -18.936600 -12.586600 -14.106700
C -18.916000 -14.236400 -17.403100
C -18.669800 -11.835500 -14.682500
N -18.387600 -9.444300 -10.824200
H -18.242400 -14.815700 -17.067000
H -18.222500 -8.718600 -10.329500
O -18.180700 -10.739400 -12.626000
C -17.984800 -12.383600 -15.941400
C -17.762200 -10.917800 -13.929800
C -17.667600 -9.661700 -11.935800
H -17.359600 -13.115600 -15.671300
N -17.211000 -11.322300 -16.592400
H -17.087700 -11.375100 -17.493000
C -16.746800 -10.251000 -14.472400
C -16.589500 -8.968900 -12.386200
C -16.571800 -10.336300 -15.942500
C -16.066600 -7.916500 -11.584400
C -15.881900 -9.285600 -13.696700
O -15.880600 -9.487900 -16.537200
H -15.794800 -8.462500 -14.239700
N -15.605400 -7.058200 -10.962100
H -15.028200 -11.335900 -12.205100
C -14.477500 -9.840400 -13.478800
C -14.282200 -10.937300 -12.639000
H -13.496300 -8.529700 -14.692700
C -13.377800 -9.272800 -14.112400
C -13.010100 -11.453300 -12.430100
H -12.887900 -12.200200 -11.856400
C -12.100900 -9.790600 -13.899000
C -11.915600 -10.874800 -13.061400
H -11.353600 -9.395700 -14.332300
H -11.043900 -11.223600 -12.917800
6
Fragment
N -14.968500 -14.133200 -16.787200
C -14.348600 -13.184300 -16.644400
H -14.002400 -11.223200 -16.870200
C -13.552300 -11.986000 -16.450000
H -13.447400 -11.815300 -15.490700
H -12.669700 -12.110000 -16.858500
49
Fragment
H -21.504600 -11.954500 -18.798800
H -21.416800 -14.182000 -19.510500
C -20.853100 -12.542200 -18.435800
C -20.796200 -13.863000 -18.865900
H -20.015300 -11.177600 -17.178400
C -19.960800 -12.078100 -17.477300
C -19.833400 -14.709400 -18.351600
H -19.793400 -15.613400 -18.640600
H -19.475900 -11.306000 -14.907500
C -18.986300 -12.923600 -16.952000
H -18.984700 -10.034300 -10.593800
H -18.936600 -12.586600 -14.106700
C -18.916000 -14.236400 -17.403100
C -18.669800 -11.835500 -14.682500
N -18.387600 -9.444300 -10.824200
H -18.242400 -14.815700 -17.067000
H -18.222500 -8.718600 -10.329500
O -18.180700 -10.739400 -12.626000
C -17.984800 -12.383600 -15.941400
C -17.762200 -10.917800 -13.929800
C -17.667600 -9.661700 -11.935800
H -17.359600 -13.115600 -15.671300
N -17.211000 -11.322300 -16.592400
H -17.087700 -11.375100 -17.493000
C -16.746800 -10.251000 -14.472400
C -16.589500 -8.968900 -12.386200
C -16.571800 -10.336300 -15.942500
C -16.066600 -7.916500 -11.584400
C -15.881900 -9.285600 -13.696700
O -15.880600 -9.487900 -16.537200
H -15.794800 -8.462500 -14.239700
N -15.605400 -7.058200 -10.962100
H -15.028200 -11.335900 -12.205100
C -14.477500 -9.840400 -13.478800
C -14.282200 -10.937300 -12.639000
H -13.496300 -8.529700 -14.692700
C -13.377800 -9.272800 -14.112400
C -13.010100 -11.453300 -12.430100
H -12.887900 -12.200200 -11.856400
C -12.100900 -9.790600 -13.899000
C -11.915600 -10.874800 -13.061400
H -11.353600 -9.395700 -14.332300
H -11.043900 -11.223600 -12.917800
N -14.968500 -14.133200 -16.787200
C -14.348600 -13.184300 -16.644400
H -14.002400 -11.223200 -16.870200
C -13.552300 -11.986000 -16.450000
H -13.447400 -11.815300 -15.490700
H -12.669700 -12.110000 -16.858500
