26
Fragment
O -32.931900 -30.108200 -6.766800
O -32.931900 -21.264800 -6.766800
H -32.793100 -28.563400 -8.009300
H -32.793100 -22.809600 -8.009300
H -32.153000 -27.424400 -8.751300
H -32.153000 -23.948600 -8.751300
N -32.061100 -28.136300 -8.230600
N -32.061100 -23.236700 -8.230600
N -31.755600 -30.261600 -6.408400
N -31.755600 -21.111400 -6.408400
O -31.451700 -31.101900 -5.523400
O -31.451700 -20.271100 -5.523400
C -30.926900 -28.579500 -7.763100
C -30.926900 -22.793500 -7.763100
N -30.700300 -29.594200 -6.899100
N -30.700300 -21.778800 -6.899100
O -29.861300 -25.686500 -6.883500
C -29.794600 -25.686500 -8.088500
N -29.779100 -28.028700 -8.159100
N -29.779100 -23.344300 -8.159100
N -29.777300 -26.828400 -8.835800
N -29.777300 -24.544600 -8.835800
H -29.577400 -26.802000 -9.676500
H -29.577400 -24.571000 -9.676500
H -29.022700 -28.256600 -7.794800
H -29.022700 -23.116400 -7.794800
26
Fragment
H -38.859800 -35.595600 -5.560100
H -38.859800 -30.455400 -5.560100
H -38.305100 -34.141000 -7.441700
H -38.305100 -31.910000 -7.441700
N -38.105200 -34.167400 -6.601000
N -38.105200 -31.883600 -6.601000
N -38.103400 -35.367700 -5.924300
N -38.103400 -30.683300 -5.924300
C -38.087900 -33.025500 -5.853700
O -38.021200 -33.025500 -4.648700
N -37.182200 -36.933200 -4.664400
N -37.182200 -29.117800 -4.664400
C -36.955600 -35.918500 -5.528300
C -36.955600 -30.132500 -5.528300
O -36.430800 -38.440900 -3.288700
O -36.430800 -27.610100 -3.288700
N -36.126900 -37.600600 -4.173600
N -36.126900 -28.450400 -4.173600
N -35.821400 -35.475300 -5.995800
N -35.821400 -30.575700 -5.995800
H -35.729500 -34.763400 -6.516500
H -35.729500 -31.287600 -6.516500
H -35.089400 -35.902400 -5.774600
H -35.089400 -30.148600 -5.774600
O -34.950600 -37.447200 -4.532100
O -34.950600 -28.603800 -4.532100
52
Fragment
O -32.931900 -30.108200 -6.766800
O -32.931900 -21.264800 -6.766800
H -32.793100 -28.563400 -8.009300
H -32.793100 -22.809600 -8.009300
H -32.153000 -27.424400 -8.751300
H -32.153000 -23.948600 -8.751300
N -32.061100 -28.136300 -8.230600
N -32.061100 -23.236700 -8.230600
N -31.755600 -30.261600 -6.408400
N -31.755600 -21.111400 -6.408400
O -31.451700 -31.101900 -5.523400
O -31.451700 -20.271100 -5.523400
C -30.926900 -28.579500 -7.763100
C -30.926900 -22.793500 -7.763100
N -30.700300 -29.594200 -6.899100
N -30.700300 -21.778800 -6.899100
O -29.861300 -25.686500 -6.883500
C -29.794600 -25.686500 -8.088500
N -29.779100 -28.028700 -8.159100
N -29.779100 -23.344300 -8.159100
N -29.777300 -26.828400 -8.835800
N -29.777300 -24.544600 -8.835800
H -29.577400 -26.802000 -9.676500
H -29.577400 -24.571000 -9.676500
H -29.022700 -28.256600 -7.794800
H -29.022700 -23.116400 -7.794800
H -38.859800 -35.595600 -5.560100
H -38.859800 -30.455400 -5.560100
H -38.305100 -34.141000 -7.441700
H -38.305100 -31.910000 -7.441700
N -38.105200 -34.167400 -6.601000
N -38.105200 -31.883600 -6.601000
N -38.103400 -35.367700 -5.924300
N -38.103400 -30.683300 -5.924300
C -38.087900 -33.025500 -5.853700
O -38.021200 -33.025500 -4.648700
N -37.182200 -36.933200 -4.664400
N -37.182200 -29.117800 -4.664400
C -36.955600 -35.918500 -5.528300
C -36.955600 -30.132500 -5.528300
O -36.430800 -38.440900 -3.288700
O -36.430800 -27.610100 -3.288700
N -36.126900 -37.600600 -4.173600
N -36.126900 -28.450400 -4.173600
N -35.821400 -35.475300 -5.995800
N -35.821400 -30.575700 -5.995800
H -35.729500 -34.763400 -6.516500
H -35.729500 -31.287600 -6.516500
H -35.089400 -35.902400 -5.774600
H -35.089400 -30.148600 -5.774600
O -34.950600 -37.447200 -4.532100
O -34.950600 -28.603800 -4.532100
