43
Fragment
H -21.504600 -11.954500 -18.798800
H -21.416800 -14.182000 -19.510500
C -20.853100 -12.542200 -18.435800
C -20.796200 -13.863000 -18.865900
H -20.015300 -11.177600 -17.178400
C -19.960800 -12.078100 -17.477300
C -19.833400 -14.709400 -18.351600
H -19.793400 -15.613400 -18.640600
H -19.475900 -11.306000 -14.907500
C -18.986300 -12.923600 -16.952000
H -18.984700 -10.034300 -10.593800
H -18.936600 -12.586600 -14.106700
C -18.916000 -14.236400 -17.403100
C -18.669800 -11.835500 -14.682500
N -18.387600 -9.444300 -10.824200
H -18.242400 -14.815700 -17.067000
H -18.222500 -8.718600 -10.329500
O -18.180700 -10.739400 -12.626000
C -17.984800 -12.383600 -15.941400
C -17.762200 -10.917800 -13.929800
C -17.667600 -9.661700 -11.935800
H -17.359600 -13.115600 -15.671300
N -17.211000 -11.322300 -16.592400
H -17.087700 -11.375100 -17.493000
C -16.746800 -10.251000 -14.472400
C -16.589500 -8.968900 -12.386200
C -16.571800 -10.336300 -15.942500
C -16.066600 -7.916500 -11.584400
C -15.881900 -9.285600 -13.696700
O -15.880600 -9.487900 -16.537200
H -15.794800 -8.462500 -14.239700
N -15.605400 -7.058200 -10.962100
H -15.028200 -11.335900 -12.205100
C -14.477500 -9.840400 -13.478800
C -14.282200 -10.937300 -12.639000
H -13.496300 -8.529700 -14.692700
C -13.377800 -9.272800 -14.112400
C -13.010100 -11.453300 -12.430100
H -12.887900 -12.200200 -11.856400
C -12.100900 -9.790600 -13.899000
C -11.915600 -10.874800 -13.061400
H -11.353600 -9.395700 -14.332300
H -11.043900 -11.223600 -12.917800
43
Fragment
H -31.984500 -20.243600 -23.029800
H -31.674900 -22.071600 -21.615300
C -31.112800 -20.592400 -22.886200
C -30.927600 -21.676600 -22.048600
H -30.140500 -19.267000 -24.091200
C -30.018400 -20.013900 -23.517400
C -29.650600 -22.194400 -21.835200
H -29.532100 -22.937500 -21.254900
C -28.746300 -20.529900 -23.308600
C -28.550900 -21.626800 -22.468800
H -28.000200 -20.131300 -23.742500
N -27.423100 -24.409100 -24.985500
H -27.233700 -23.004700 -21.707800
O -27.147900 -21.979300 -19.410300
C -27.146500 -22.181600 -22.250900
C -26.961900 -23.550700 -24.363200
C -26.456600 -21.130900 -20.005100
C -26.439000 -22.498300 -23.561400
C -26.281600 -21.216200 -21.475200
H -25.940700 -20.092100 -18.454600
N -25.817500 -20.144900 -19.355200
H -25.668800 -18.351700 -20.276200
C -25.360800 -21.805500 -24.011800
C -25.266200 -20.549400 -22.017800
C -25.043700 -19.083600 -20.006200
O -24.847800 -20.727800 -23.321600
H -24.805900 -22.748600 -25.618000
H -24.786000 -16.651500 -18.880600
N -24.640900 -22.023000 -25.123400
C -24.358700 -19.631700 -21.265100
C -24.112400 -17.230800 -18.544500
H -24.091900 -18.880600 -21.840900
H -24.043800 -21.432900 -25.353800
C -24.042100 -18.543600 -18.995600
H -23.552600 -20.161200 -21.040100
H -23.235100 -15.853900 -17.307000
C -23.195000 -16.757800 -17.596000
C -23.067700 -19.389100 -18.470300
H -23.013100 -20.289600 -18.769100
C -22.232200 -17.604200 -17.081700
C -22.175300 -18.925000 -17.511800
H -21.611700 -17.285200 -16.437000
H -21.523900 -19.512700 -17.148800
86
Fragment
H -21.504600 -11.954500 -18.798800
H -21.416800 -14.182000 -19.510500
C -20.853100 -12.542200 -18.435800
C -20.796200 -13.863000 -18.865900
H -20.015300 -11.177600 -17.178400
C -19.960800 -12.078100 -17.477300
C -19.833400 -14.709400 -18.351600
H -19.793400 -15.613400 -18.640600
H -19.475900 -11.306000 -14.907500
C -18.986300 -12.923600 -16.952000
H -18.984700 -10.034300 -10.593800
H -18.936600 -12.586600 -14.106700
C -18.916000 -14.236400 -17.403100
C -18.669800 -11.835500 -14.682500
N -18.387600 -9.444300 -10.824200
H -18.242400 -14.815700 -17.067000
H -18.222500 -8.718600 -10.329500
O -18.180700 -10.739400 -12.626000
C -17.984800 -12.383600 -15.941400
C -17.762200 -10.917800 -13.929800
C -17.667600 -9.661700 -11.935800
H -17.359600 -13.115600 -15.671300
N -17.211000 -11.322300 -16.592400
H -17.087700 -11.375100 -17.493000
C -16.746800 -10.251000 -14.472400
C -16.589500 -8.968900 -12.386200
C -16.571800 -10.336300 -15.942500
C -16.066600 -7.916500 -11.584400
C -15.881900 -9.285600 -13.696700
O -15.880600 -9.487900 -16.537200
H -15.794800 -8.462500 -14.239700
N -15.605400 -7.058200 -10.962100
H -15.028200 -11.335900 -12.205100
C -14.477500 -9.840400 -13.478800
C -14.282200 -10.937300 -12.639000
H -13.496300 -8.529700 -14.692700
C -13.377800 -9.272800 -14.112400
C -13.010100 -11.453300 -12.430100
H -12.887900 -12.200200 -11.856400
C -12.100900 -9.790600 -13.899000
C -11.915600 -10.874800 -13.061400
H -11.353600 -9.395700 -14.332300
H -11.043900 -11.223600 -12.917800
H -31.984500 -20.243600 -23.029800
H -31.674900 -22.071600 -21.615300
C -31.112800 -20.592400 -22.886200
C -30.927600 -21.676600 -22.048600
H -30.140500 -19.267000 -24.091200
C -30.018400 -20.013900 -23.517400
C -29.650600 -22.194400 -21.835200
H -29.532100 -22.937500 -21.254900
C -28.746300 -20.529900 -23.308600
C -28.550900 -21.626800 -22.468800
H -28.000200 -20.131300 -23.742500
N -27.423100 -24.409100 -24.985500
H -27.233700 -23.004700 -21.707800
O -27.147900 -21.979300 -19.410300
C -27.146500 -22.181600 -22.250900
C -26.961900 -23.550700 -24.363200
C -26.456600 -21.130900 -20.005100
C -26.439000 -22.498300 -23.561400
C -26.281600 -21.216200 -21.475200
H -25.940700 -20.092100 -18.454600
N -25.817500 -20.144900 -19.355200
H -25.668800 -18.351700 -20.276200
C -25.360800 -21.805500 -24.011800
C -25.266200 -20.549400 -22.017800
C -25.043700 -19.083600 -20.006200
O -24.847800 -20.727800 -23.321600
H -24.805900 -22.748600 -25.618000
H -24.786000 -16.651500 -18.880600
N -24.640900 -22.023000 -25.123400
C -24.358700 -19.631700 -21.265100
C -24.112400 -17.230800 -18.544500
H -24.091900 -18.880600 -21.840900
H -24.043800 -21.432900 -25.353800
C -24.042100 -18.543600 -18.995600
H -23.552600 -20.161200 -21.040100
H -23.235100 -15.853900 -17.307000
C -23.195000 -16.757800 -17.596000
C -23.067700 -19.389100 -18.470300
H -23.013100 -20.289600 -18.769100
C -22.232200 -17.604200 -17.081700
C -22.175300 -18.925000 -17.511800
H -21.611700 -17.285200 -16.437000
H -21.523900 -19.512700 -17.148800
