43
Fragment
H -21.504600 -11.954500 -18.798800
H -21.416800 -14.182000 -19.510500
C -20.853100 -12.542200 -18.435800
C -20.796200 -13.863000 -18.865900
H -20.015300 -11.177600 -17.178400
C -19.960800 -12.078100 -17.477300
C -19.833400 -14.709400 -18.351600
H -19.793400 -15.613400 -18.640600
H -19.475900 -11.306000 -14.907500
C -18.986300 -12.923600 -16.952000
H -18.984700 -10.034300 -10.593800
H -18.936600 -12.586600 -14.106700
C -18.916000 -14.236400 -17.403100
C -18.669800 -11.835500 -14.682500
N -18.387600 -9.444300 -10.824200
H -18.242400 -14.815700 -17.067000
H -18.222500 -8.718600 -10.329500
O -18.180700 -10.739400 -12.626000
C -17.984800 -12.383600 -15.941400
C -17.762200 -10.917800 -13.929800
C -17.667600 -9.661700 -11.935800
H -17.359600 -13.115600 -15.671300
N -17.211000 -11.322300 -16.592400
H -17.087700 -11.375100 -17.493000
C -16.746800 -10.251000 -14.472400
C -16.589500 -8.968900 -12.386200
C -16.571800 -10.336300 -15.942500
C -16.066600 -7.916500 -11.584400
C -15.881900 -9.285600 -13.696700
O -15.880600 -9.487900 -16.537200
H -15.794800 -8.462500 -14.239700
N -15.605400 -7.058200 -10.962100
H -15.028200 -11.335900 -12.205100
C -14.477500 -9.840400 -13.478800
C -14.282200 -10.937300 -12.639000
H -13.496300 -8.529700 -14.692700
C -13.377800 -9.272800 -14.112400
C -13.010100 -11.453300 -12.430100
H -12.887900 -12.200200 -11.856400
C -12.100900 -9.790600 -13.899000
C -11.915600 -10.874800 -13.061400
H -11.353600 -9.395700 -14.332300
H -11.043900 -11.223600 -12.917800
43
Fragment
H -19.310800 -17.208200 -27.785700
H -19.223000 -19.435700 -28.497400
C -18.659300 -17.795900 -27.422700
C -18.602400 -19.116800 -27.852800
H -17.821500 -16.431400 -26.165300
C -17.767000 -17.331800 -26.464200
C -17.639600 -19.963100 -27.338500
H -17.599600 -20.867100 -27.627500
H -17.282100 -16.559700 -23.894400
C -16.792500 -18.177300 -25.938900
H -16.790900 -15.288000 -19.580600
H -16.742800 -17.840300 -23.093600
C -16.722200 -19.490200 -26.390000
C -16.476000 -17.089200 -23.669400
N -16.193800 -14.698000 -19.811100
H -16.048600 -20.069500 -26.053900
H -16.028700 -13.972300 -19.316400
O -15.986900 -15.993200 -21.612900
C -15.791000 -17.637400 -24.928300
C -15.568400 -16.171500 -22.916700
C -15.473800 -14.915400 -20.922700
H -15.165800 -18.369300 -24.658200
N -15.017200 -16.576000 -25.579300
H -14.893900 -16.628800 -26.479900
C -14.553000 -15.504800 -23.459300
C -14.395700 -14.222700 -21.373100
C -14.378000 -15.590100 -24.929400
C -13.872800 -13.170300 -20.571300
C -13.688100 -14.539300 -22.683600
O -13.686800 -14.741600 -25.524100
H -13.601000 -13.716200 -23.226600
N -13.411600 -12.311900 -19.949000
H -12.834400 -16.589600 -21.192000
C -12.283700 -15.094200 -22.465700
C -12.088400 -16.191000 -21.625900
H -11.302500 -13.783500 -23.679600
C -11.184000 -14.526600 -23.099300
C -10.816300 -16.707000 -21.417000
H -10.694100 -17.454000 -20.843300
C -9.907100 -15.044300 -22.885800
C -9.721800 -16.128600 -22.048300
H -9.159800 -14.649400 -23.319200
H -8.850100 -16.477300 -21.904700
86
Fragment
H -21.504600 -11.954500 -18.798800
H -21.416800 -14.182000 -19.510500
C -20.853100 -12.542200 -18.435800
C -20.796200 -13.863000 -18.865900
H -20.015300 -11.177600 -17.178400
C -19.960800 -12.078100 -17.477300
C -19.833400 -14.709400 -18.351600
H -19.793400 -15.613400 -18.640600
H -19.475900 -11.306000 -14.907500
C -18.986300 -12.923600 -16.952000
H -18.984700 -10.034300 -10.593800
H -18.936600 -12.586600 -14.106700
C -18.916000 -14.236400 -17.403100
C -18.669800 -11.835500 -14.682500
N -18.387600 -9.444300 -10.824200
H -18.242400 -14.815700 -17.067000
H -18.222500 -8.718600 -10.329500
O -18.180700 -10.739400 -12.626000
C -17.984800 -12.383600 -15.941400
C -17.762200 -10.917800 -13.929800
C -17.667600 -9.661700 -11.935800
H -17.359600 -13.115600 -15.671300
N -17.211000 -11.322300 -16.592400
H -17.087700 -11.375100 -17.493000
C -16.746800 -10.251000 -14.472400
C -16.589500 -8.968900 -12.386200
C -16.571800 -10.336300 -15.942500
C -16.066600 -7.916500 -11.584400
C -15.881900 -9.285600 -13.696700
O -15.880600 -9.487900 -16.537200
H -15.794800 -8.462500 -14.239700
N -15.605400 -7.058200 -10.962100
H -15.028200 -11.335900 -12.205100
C -14.477500 -9.840400 -13.478800
C -14.282200 -10.937300 -12.639000
H -13.496300 -8.529700 -14.692700
C -13.377800 -9.272800 -14.112400
C -13.010100 -11.453300 -12.430100
H -12.887900 -12.200200 -11.856400
C -12.100900 -9.790600 -13.899000
C -11.915600 -10.874800 -13.061400
H -11.353600 -9.395700 -14.332300
H -11.043900 -11.223600 -12.917800
H -19.310800 -17.208200 -27.785700
H -19.223000 -19.435700 -28.497400
C -18.659300 -17.795900 -27.422700
C -18.602400 -19.116800 -27.852800
H -17.821500 -16.431400 -26.165300
C -17.767000 -17.331800 -26.464200
C -17.639600 -19.963100 -27.338500
H -17.599600 -20.867100 -27.627500
H -17.282100 -16.559700 -23.894400
C -16.792500 -18.177300 -25.938900
H -16.790900 -15.288000 -19.580600
H -16.742800 -17.840300 -23.093600
C -16.722200 -19.490200 -26.390000
C -16.476000 -17.089200 -23.669400
N -16.193800 -14.698000 -19.811100
H -16.048600 -20.069500 -26.053900
H -16.028700 -13.972300 -19.316400
O -15.986900 -15.993200 -21.612900
C -15.791000 -17.637400 -24.928300
C -15.568400 -16.171500 -22.916700
C -15.473800 -14.915400 -20.922700
H -15.165800 -18.369300 -24.658200
N -15.017200 -16.576000 -25.579300
H -14.893900 -16.628800 -26.479900
C -14.553000 -15.504800 -23.459300
C -14.395700 -14.222700 -21.373100
C -14.378000 -15.590100 -24.929400
C -13.872800 -13.170300 -20.571300
C -13.688100 -14.539300 -22.683600
O -13.686800 -14.741600 -25.524100
H -13.601000 -13.716200 -23.226600
N -13.411600 -12.311900 -19.949000
H -12.834400 -16.589600 -21.192000
C -12.283700 -15.094200 -22.465700
C -12.088400 -16.191000 -21.625900
H -11.302500 -13.783500 -23.679600
C -11.184000 -14.526600 -23.099300
C -10.816300 -16.707000 -21.417000
H -10.694100 -17.454000 -20.843300
C -9.907100 -15.044300 -22.885800
C -9.721800 -16.128600 -22.048300
H -9.159800 -14.649400 -23.319200
H -8.850100 -16.477300 -21.904700
