43
Fragment
H -21.504600 -11.954500 -18.798800
H -21.416800 -14.182000 -19.510500
C -20.853100 -12.542200 -18.435800
C -20.796200 -13.863000 -18.865900
H -20.015300 -11.177600 -17.178400
C -19.960800 -12.078100 -17.477300
C -19.833400 -14.709400 -18.351600
H -19.793400 -15.613400 -18.640600
H -19.475900 -11.306000 -14.907500
C -18.986300 -12.923600 -16.952000
H -18.984700 -10.034300 -10.593800
H -18.936600 -12.586600 -14.106700
C -18.916000 -14.236400 -17.403100
C -18.669800 -11.835500 -14.682500
N -18.387600 -9.444300 -10.824200
H -18.242400 -14.815700 -17.067000
H -18.222500 -8.718600 -10.329500
O -18.180700 -10.739400 -12.626000
C -17.984800 -12.383600 -15.941400
C -17.762200 -10.917800 -13.929800
C -17.667600 -9.661700 -11.935800
H -17.359600 -13.115600 -15.671300
N -17.211000 -11.322300 -16.592400
H -17.087700 -11.375100 -17.493000
C -16.746800 -10.251000 -14.472400
C -16.589500 -8.968900 -12.386200
C -16.571800 -10.336300 -15.942500
C -16.066600 -7.916500 -11.584400
C -15.881900 -9.285600 -13.696700
O -15.880600 -9.487900 -16.537200
H -15.794800 -8.462500 -14.239700
N -15.605400 -7.058200 -10.962100
H -15.028200 -11.335900 -12.205100
C -14.477500 -9.840400 -13.478800
C -14.282200 -10.937300 -12.639000
H -13.496300 -8.529700 -14.692700
C -13.377800 -9.272800 -14.112400
C -13.010100 -11.453300 -12.430100
H -12.887900 -12.200200 -11.856400
C -12.100900 -9.790600 -13.899000
C -11.915600 -10.874800 -13.061400
H -11.353600 -9.395700 -14.332300
H -11.043900 -11.223600 -12.917800
43
Fragment
H -23.914700 -4.537600 -14.042900
H -23.605000 -6.365500 -12.628400
C -23.043000 -4.886400 -13.899300
C -22.857700 -5.970600 -13.061700
H -22.070700 -3.560900 -15.104300
C -21.948500 -4.307900 -14.530600
C -21.580700 -6.488300 -12.848300
H -21.462300 -7.231400 -12.268000
C -20.676400 -4.823900 -14.321700
C -20.481000 -5.920700 -13.481900
H -19.930300 -4.425300 -14.755600
N -19.353200 -8.703000 -15.998600
H -19.163800 -7.298700 -12.720900
O -19.078000 -6.273300 -10.423400
C -19.076600 -6.475600 -13.264000
C -18.892000 -7.844700 -15.376300
C -18.386700 -5.424900 -11.018200
C -18.369100 -6.792300 -14.574500
C -18.211800 -5.510200 -12.488300
H -17.870900 -4.386100 -9.467700
N -17.747600 -4.438900 -10.368300
H -17.598900 -2.645600 -11.289300
C -17.290900 -6.099500 -15.024900
C -17.196400 -4.843400 -13.030900
C -16.973800 -3.377600 -11.019300
O -16.777900 -5.021700 -14.334700
H -16.736100 -7.042600 -16.631100
H -16.716200 -0.945500 -9.893700
N -16.571000 -6.316900 -16.136500
C -16.288800 -3.925700 -12.278200
C -16.042500 -1.524700 -9.557600
H -16.022000 -3.174600 -12.854000
H -15.973900 -5.726900 -16.366900
C -15.972200 -2.837600 -10.008700
H -15.482700 -4.455200 -12.053200
H -15.165200 -0.147800 -8.320100
C -15.125200 -1.051800 -8.609100
C -14.997800 -3.683100 -9.483400
H -14.943200 -4.583600 -9.782200
C -14.162300 -1.898200 -8.094800
C -14.105500 -3.219000 -8.524900
H -13.541800 -1.579200 -7.450100
H -13.454000 -3.806700 -8.161900
86
Fragment
H -21.504600 -11.954500 -18.798800
H -21.416800 -14.182000 -19.510500
C -20.853100 -12.542200 -18.435800
C -20.796200 -13.863000 -18.865900
H -20.015300 -11.177600 -17.178400
C -19.960800 -12.078100 -17.477300
C -19.833400 -14.709400 -18.351600
H -19.793400 -15.613400 -18.640600
H -19.475900 -11.306000 -14.907500
C -18.986300 -12.923600 -16.952000
H -18.984700 -10.034300 -10.593800
H -18.936600 -12.586600 -14.106700
C -18.916000 -14.236400 -17.403100
C -18.669800 -11.835500 -14.682500
N -18.387600 -9.444300 -10.824200
H -18.242400 -14.815700 -17.067000
H -18.222500 -8.718600 -10.329500
O -18.180700 -10.739400 -12.626000
C -17.984800 -12.383600 -15.941400
C -17.762200 -10.917800 -13.929800
C -17.667600 -9.661700 -11.935800
H -17.359600 -13.115600 -15.671300
N -17.211000 -11.322300 -16.592400
H -17.087700 -11.375100 -17.493000
C -16.746800 -10.251000 -14.472400
C -16.589500 -8.968900 -12.386200
C -16.571800 -10.336300 -15.942500
C -16.066600 -7.916500 -11.584400
C -15.881900 -9.285600 -13.696700
O -15.880600 -9.487900 -16.537200
H -15.794800 -8.462500 -14.239700
N -15.605400 -7.058200 -10.962100
H -15.028200 -11.335900 -12.205100
C -14.477500 -9.840400 -13.478800
C -14.282200 -10.937300 -12.639000
H -13.496300 -8.529700 -14.692700
C -13.377800 -9.272800 -14.112400
C -13.010100 -11.453300 -12.430100
H -12.887900 -12.200200 -11.856400
C -12.100900 -9.790600 -13.899000
C -11.915600 -10.874800 -13.061400
H -11.353600 -9.395700 -14.332300
H -11.043900 -11.223600 -12.917800
H -23.914700 -4.537600 -14.042900
H -23.605000 -6.365500 -12.628400
C -23.043000 -4.886400 -13.899300
C -22.857700 -5.970600 -13.061700
H -22.070700 -3.560900 -15.104300
C -21.948500 -4.307900 -14.530600
C -21.580700 -6.488300 -12.848300
H -21.462300 -7.231400 -12.268000
C -20.676400 -4.823900 -14.321700
C -20.481000 -5.920700 -13.481900
H -19.930300 -4.425300 -14.755600
N -19.353200 -8.703000 -15.998600
H -19.163800 -7.298700 -12.720900
O -19.078000 -6.273300 -10.423400
C -19.076600 -6.475600 -13.264000
C -18.892000 -7.844700 -15.376300
C -18.386700 -5.424900 -11.018200
C -18.369100 -6.792300 -14.574500
C -18.211800 -5.510200 -12.488300
H -17.870900 -4.386100 -9.467700
N -17.747600 -4.438900 -10.368300
H -17.598900 -2.645600 -11.289300
C -17.290900 -6.099500 -15.024900
C -17.196400 -4.843400 -13.030900
C -16.973800 -3.377600 -11.019300
O -16.777900 -5.021700 -14.334700
H -16.736100 -7.042600 -16.631100
H -16.716200 -0.945500 -9.893700
N -16.571000 -6.316900 -16.136500
C -16.288800 -3.925700 -12.278200
C -16.042500 -1.524700 -9.557600
H -16.022000 -3.174600 -12.854000
H -15.973900 -5.726900 -16.366900
C -15.972200 -2.837600 -10.008700
H -15.482700 -4.455200 -12.053200
H -15.165200 -0.147800 -8.320100
C -15.125200 -1.051800 -8.609100
C -14.997800 -3.683100 -9.483400
H -14.943200 -4.583600 -9.782200
C -14.162300 -1.898200 -8.094800
C -14.105500 -3.219000 -8.524900
H -13.541800 -1.579200 -7.450100
H -13.454000 -3.806700 -8.161900
