26
Fragment
O -32.931900 -30.108200 -6.766800
O -32.931900 -21.264800 -6.766800
H -32.793100 -28.563400 -8.009300
H -32.793100 -22.809600 -8.009300
H -32.153000 -27.424400 -8.751300
H -32.153000 -23.948600 -8.751300
N -32.061100 -28.136300 -8.230600
N -32.061100 -23.236700 -8.230600
N -31.755600 -30.261600 -6.408400
N -31.755600 -21.111400 -6.408400
O -31.451700 -31.101900 -5.523400
O -31.451700 -20.271100 -5.523400
C -30.926900 -28.579500 -7.763100
C -30.926900 -22.793500 -7.763100
N -30.700300 -29.594200 -6.899100
N -30.700300 -21.778800 -6.899100
O -29.861300 -25.686500 -6.883500
C -29.794600 -25.686500 -8.088500
N -29.779100 -28.028700 -8.159100
N -29.779100 -23.344300 -8.159100
N -29.777300 -26.828400 -8.835800
N -29.777300 -24.544600 -8.835800
H -29.577400 -26.802000 -9.676500
H -29.577400 -24.571000 -9.676500
H -29.022700 -28.256600 -7.794800
H -29.022700 -23.116400 -7.794800
26
Fragment
O -32.931900 -30.108200 -11.236300
O -32.931900 -21.264800 -11.236300
H -32.793100 -28.563400 -12.478800
H -32.793100 -22.809600 -12.478800
H -32.153000 -27.424400 -13.220800
H -32.153000 -23.948600 -13.220800
N -32.061100 -28.136300 -12.700100
N -32.061100 -23.236700 -12.700100
N -31.755600 -30.261600 -10.877900
N -31.755600 -21.111400 -10.877900
O -31.451700 -31.101900 -9.992900
O -31.451700 -20.271100 -9.992900
C -30.926900 -28.579500 -12.232600
C -30.926900 -22.793500 -12.232600
N -30.700300 -29.594200 -11.368600
N -30.700300 -21.778800 -11.368600
O -29.861300 -25.686500 -11.353000
C -29.794600 -25.686500 -12.558000
N -29.779100 -28.028700 -12.628600
N -29.779100 -23.344300 -12.628600
N -29.777300 -26.828400 -13.305300
N -29.777300 -24.544600 -13.305300
H -29.577400 -26.802000 -14.146000
H -29.577400 -24.571000 -14.146000
H -29.022700 -28.256600 -12.264300
H -29.022700 -23.116400 -12.264300
52
Fragment
O -32.931900 -30.108200 -6.766800
O -32.931900 -21.264800 -6.766800
H -32.793100 -28.563400 -8.009300
H -32.793100 -22.809600 -8.009300
H -32.153000 -27.424400 -8.751300
H -32.153000 -23.948600 -8.751300
N -32.061100 -28.136300 -8.230600
N -32.061100 -23.236700 -8.230600
N -31.755600 -30.261600 -6.408400
N -31.755600 -21.111400 -6.408400
O -31.451700 -31.101900 -5.523400
O -31.451700 -20.271100 -5.523400
C -30.926900 -28.579500 -7.763100
C -30.926900 -22.793500 -7.763100
N -30.700300 -29.594200 -6.899100
N -30.700300 -21.778800 -6.899100
O -29.861300 -25.686500 -6.883500
C -29.794600 -25.686500 -8.088500
N -29.779100 -28.028700 -8.159100
N -29.779100 -23.344300 -8.159100
N -29.777300 -26.828400 -8.835800
N -29.777300 -24.544600 -8.835800
H -29.577400 -26.802000 -9.676500
H -29.577400 -24.571000 -9.676500
H -29.022700 -28.256600 -7.794800
H -29.022700 -23.116400 -7.794800
O -32.931900 -30.108200 -11.236300
O -32.931900 -21.264800 -11.236300
H -32.793100 -28.563400 -12.478800
H -32.793100 -22.809600 -12.478800
H -32.153000 -27.424400 -13.220800
H -32.153000 -23.948600 -13.220800
N -32.061100 -28.136300 -12.700100
N -32.061100 -23.236700 -12.700100
N -31.755600 -30.261600 -10.877900
N -31.755600 -21.111400 -10.877900
O -31.451700 -31.101900 -9.992900
O -31.451700 -20.271100 -9.992900
C -30.926900 -28.579500 -12.232600
C -30.926900 -22.793500 -12.232600
N -30.700300 -29.594200 -11.368600
N -30.700300 -21.778800 -11.368600
O -29.861300 -25.686500 -11.353000
C -29.794600 -25.686500 -12.558000
N -29.779100 -28.028700 -12.628600
N -29.779100 -23.344300 -12.628600
N -29.777300 -26.828400 -13.305300
N -29.777300 -24.544600 -13.305300
H -29.577400 -26.802000 -14.146000
H -29.577400 -24.571000 -14.146000
H -29.022700 -28.256600 -12.264300
H -29.022700 -23.116400 -12.264300
