43
Fragment
H -21.504600 -11.954500 -18.798800
H -21.416800 -14.182000 -19.510500
C -20.853100 -12.542200 -18.435800
C -20.796200 -13.863000 -18.865900
H -20.015300 -11.177600 -17.178400
C -19.960800 -12.078100 -17.477300
C -19.833400 -14.709400 -18.351600
H -19.793400 -15.613400 -18.640600
H -19.475900 -11.306000 -14.907500
C -18.986300 -12.923600 -16.952000
H -18.984700 -10.034300 -10.593800
H -18.936600 -12.586600 -14.106700
C -18.916000 -14.236400 -17.403100
C -18.669800 -11.835500 -14.682500
N -18.387600 -9.444300 -10.824200
H -18.242400 -14.815700 -17.067000
H -18.222500 -8.718600 -10.329500
O -18.180700 -10.739400 -12.626000
C -17.984800 -12.383600 -15.941400
C -17.762200 -10.917800 -13.929800
C -17.667600 -9.661700 -11.935800
H -17.359600 -13.115600 -15.671300
N -17.211000 -11.322300 -16.592400
H -17.087700 -11.375100 -17.493000
C -16.746800 -10.251000 -14.472400
C -16.589500 -8.968900 -12.386200
C -16.571800 -10.336300 -15.942500
C -16.066600 -7.916500 -11.584400
C -15.881900 -9.285600 -13.696700
O -15.880600 -9.487900 -16.537200
H -15.794800 -8.462500 -14.239700
N -15.605400 -7.058200 -10.962100
H -15.028200 -11.335900 -12.205100
C -14.477500 -9.840400 -13.478800
C -14.282200 -10.937300 -12.639000
H -13.496300 -8.529700 -14.692700
C -13.377800 -9.272800 -14.112400
C -13.010100 -11.453300 -12.430100
H -12.887900 -12.200200 -11.856400
C -12.100900 -9.790600 -13.899000
C -11.915600 -10.874800 -13.061400
H -11.353600 -9.395700 -14.332300
H -11.043900 -11.223600 -12.917800
43
Fragment
H -21.720900 -9.791300 -23.029800
H -21.411200 -11.619300 -21.615300
C -20.849200 -10.140100 -22.886200
C -20.663900 -11.224300 -22.048600
H -19.876900 -8.814700 -24.091200
C -19.754700 -9.561600 -23.517400
C -19.386900 -11.742100 -21.835200
H -19.268400 -12.485200 -21.254900
C -18.482600 -10.077600 -23.308600
C -18.287200 -11.174500 -22.468800
H -17.736500 -9.679100 -23.742500
N -17.159400 -13.956800 -24.985500
H -16.970000 -12.552400 -21.707800
O -16.884200 -11.527000 -19.410300
C -16.882800 -11.729300 -22.250900
C -16.698200 -13.098400 -24.363200
C -16.192900 -10.678600 -20.005100
C -16.175300 -12.046000 -23.561400
C -16.017900 -10.763900 -21.475200
H -15.677100 -9.639800 -18.454600
N -15.553800 -9.692600 -19.355200
H -15.405100 -7.899400 -20.276200
C -15.097100 -11.353200 -24.011800
C -15.002500 -10.097100 -22.017800
C -14.780000 -8.631300 -20.006200
O -14.584100 -10.275500 -23.321600
H -14.542200 -12.296300 -25.618000
H -14.522400 -6.199200 -18.880600
N -14.377200 -11.570700 -25.123400
C -14.095000 -9.179400 -21.265100
C -13.848700 -6.778500 -18.544500
H -13.828200 -8.428300 -21.840900
H -13.780100 -10.980600 -25.353800
C -13.778400 -8.091300 -18.995600
H -13.288900 -9.708900 -21.040100
H -12.971400 -5.401600 -17.307000
C -12.931300 -6.305500 -17.596000
C -12.804000 -8.936800 -18.470300
H -12.749400 -9.837300 -18.769100
C -11.968500 -7.151900 -17.081700
C -11.911700 -8.472700 -17.511800
H -11.348000 -6.832900 -16.437000
H -11.260200 -9.060400 -17.148800
86
Fragment
H -21.504600 -11.954500 -18.798800
H -21.416800 -14.182000 -19.510500
C -20.853100 -12.542200 -18.435800
C -20.796200 -13.863000 -18.865900
H -20.015300 -11.177600 -17.178400
C -19.960800 -12.078100 -17.477300
C -19.833400 -14.709400 -18.351600
H -19.793400 -15.613400 -18.640600
H -19.475900 -11.306000 -14.907500
C -18.986300 -12.923600 -16.952000
H -18.984700 -10.034300 -10.593800
H -18.936600 -12.586600 -14.106700
C -18.916000 -14.236400 -17.403100
C -18.669800 -11.835500 -14.682500
N -18.387600 -9.444300 -10.824200
H -18.242400 -14.815700 -17.067000
H -18.222500 -8.718600 -10.329500
O -18.180700 -10.739400 -12.626000
C -17.984800 -12.383600 -15.941400
C -17.762200 -10.917800 -13.929800
C -17.667600 -9.661700 -11.935800
H -17.359600 -13.115600 -15.671300
N -17.211000 -11.322300 -16.592400
H -17.087700 -11.375100 -17.493000
C -16.746800 -10.251000 -14.472400
C -16.589500 -8.968900 -12.386200
C -16.571800 -10.336300 -15.942500
C -16.066600 -7.916500 -11.584400
C -15.881900 -9.285600 -13.696700
O -15.880600 -9.487900 -16.537200
H -15.794800 -8.462500 -14.239700
N -15.605400 -7.058200 -10.962100
H -15.028200 -11.335900 -12.205100
C -14.477500 -9.840400 -13.478800
C -14.282200 -10.937300 -12.639000
H -13.496300 -8.529700 -14.692700
C -13.377800 -9.272800 -14.112400
C -13.010100 -11.453300 -12.430100
H -12.887900 -12.200200 -11.856400
C -12.100900 -9.790600 -13.899000
C -11.915600 -10.874800 -13.061400
H -11.353600 -9.395700 -14.332300
H -11.043900 -11.223600 -12.917800
H -21.720900 -9.791300 -23.029800
H -21.411200 -11.619300 -21.615300
C -20.849200 -10.140100 -22.886200
C -20.663900 -11.224300 -22.048600
H -19.876900 -8.814700 -24.091200
C -19.754700 -9.561600 -23.517400
C -19.386900 -11.742100 -21.835200
H -19.268400 -12.485200 -21.254900
C -18.482600 -10.077600 -23.308600
C -18.287200 -11.174500 -22.468800
H -17.736500 -9.679100 -23.742500
N -17.159400 -13.956800 -24.985500
H -16.970000 -12.552400 -21.707800
O -16.884200 -11.527000 -19.410300
C -16.882800 -11.729300 -22.250900
C -16.698200 -13.098400 -24.363200
C -16.192900 -10.678600 -20.005100
C -16.175300 -12.046000 -23.561400
C -16.017900 -10.763900 -21.475200
H -15.677100 -9.639800 -18.454600
N -15.553800 -9.692600 -19.355200
H -15.405100 -7.899400 -20.276200
C -15.097100 -11.353200 -24.011800
C -15.002500 -10.097100 -22.017800
C -14.780000 -8.631300 -20.006200
O -14.584100 -10.275500 -23.321600
H -14.542200 -12.296300 -25.618000
H -14.522400 -6.199200 -18.880600
N -14.377200 -11.570700 -25.123400
C -14.095000 -9.179400 -21.265100
C -13.848700 -6.778500 -18.544500
H -13.828200 -8.428300 -21.840900
H -13.780100 -10.980600 -25.353800
C -13.778400 -8.091300 -18.995600
H -13.288900 -9.708900 -21.040100
H -12.971400 -5.401600 -17.307000
C -12.931300 -6.305500 -17.596000
C -12.804000 -8.936800 -18.470300
H -12.749400 -9.837300 -18.769100
C -11.968500 -7.151900 -17.081700
C -11.911700 -8.472700 -17.511800
H -11.348000 -6.832900 -16.437000
H -11.260200 -9.060400 -17.148800
