26
Fragment
O -32.931900 -30.108200 -6.766800
O -32.931900 -21.264800 -6.766800
H -32.793100 -28.563400 -8.009300
H -32.793100 -22.809600 -8.009300
H -32.153000 -27.424400 -8.751300
H -32.153000 -23.948600 -8.751300
N -32.061100 -28.136300 -8.230600
N -32.061100 -23.236700 -8.230600
N -31.755600 -30.261600 -6.408400
N -31.755600 -21.111400 -6.408400
O -31.451700 -31.101900 -5.523400
O -31.451700 -20.271100 -5.523400
C -30.926900 -28.579500 -7.763100
C -30.926900 -22.793500 -7.763100
N -30.700300 -29.594200 -6.899100
N -30.700300 -21.778800 -6.899100
O -29.861300 -25.686500 -6.883500
C -29.794600 -25.686500 -8.088500
N -29.779100 -28.028700 -8.159100
N -29.779100 -23.344300 -8.159100
N -29.777300 -26.828400 -8.835800
N -29.777300 -24.544600 -8.835800
H -29.577400 -26.802000 -9.676500
H -29.577400 -24.571000 -9.676500
H -29.022700 -28.256600 -7.794800
H -29.022700 -23.116400 -7.794800
26
Fragment
H -29.162300 -35.595600 -5.613700
H -29.162300 -30.455400 -5.613700
H -28.607600 -34.141000 -3.732000
H -28.607600 -31.910000 -3.732000
N -28.407700 -34.167400 -4.572700
N -28.407700 -31.883600 -4.572700
N -28.405900 -35.367700 -5.249400
N -28.405900 -30.683300 -5.249400
C -28.390400 -33.025500 -5.320000
O -28.323700 -33.025500 -6.525000
N -27.484700 -36.933200 -6.509400
N -27.484700 -29.117800 -6.509400
C -27.258100 -35.918500 -5.645400
C -27.258100 -30.132500 -5.645400
O -26.733300 -38.440900 -7.885100
O -26.733300 -27.610100 -7.885100
N -26.429400 -37.600600 -7.000100
N -26.429400 -28.450400 -7.000100
N -26.123900 -35.475300 -5.177900
N -26.123900 -30.575700 -5.177900
H -26.032000 -34.763400 -4.657200
H -26.032000 -31.287600 -4.657200
H -25.391900 -35.902400 -5.399200
H -25.391900 -30.148600 -5.399200
O -25.253100 -37.447200 -6.641700
O -25.253100 -28.603800 -6.641700
52
Fragment
O -32.931900 -30.108200 -6.766800
O -32.931900 -21.264800 -6.766800
H -32.793100 -28.563400 -8.009300
H -32.793100 -22.809600 -8.009300
H -32.153000 -27.424400 -8.751300
H -32.153000 -23.948600 -8.751300
N -32.061100 -28.136300 -8.230600
N -32.061100 -23.236700 -8.230600
N -31.755600 -30.261600 -6.408400
N -31.755600 -21.111400 -6.408400
O -31.451700 -31.101900 -5.523400
O -31.451700 -20.271100 -5.523400
C -30.926900 -28.579500 -7.763100
C -30.926900 -22.793500 -7.763100
N -30.700300 -29.594200 -6.899100
N -30.700300 -21.778800 -6.899100
O -29.861300 -25.686500 -6.883500
C -29.794600 -25.686500 -8.088500
N -29.779100 -28.028700 -8.159100
N -29.779100 -23.344300 -8.159100
N -29.777300 -26.828400 -8.835800
N -29.777300 -24.544600 -8.835800
H -29.577400 -26.802000 -9.676500
H -29.577400 -24.571000 -9.676500
H -29.022700 -28.256600 -7.794800
H -29.022700 -23.116400 -7.794800
H -29.162300 -35.595600 -5.613700
H -29.162300 -30.455400 -5.613700
H -28.607600 -34.141000 -3.732000
H -28.607600 -31.910000 -3.732000
N -28.407700 -34.167400 -4.572700
N -28.407700 -31.883600 -4.572700
N -28.405900 -35.367700 -5.249400
N -28.405900 -30.683300 -5.249400
C -28.390400 -33.025500 -5.320000
O -28.323700 -33.025500 -6.525000
N -27.484700 -36.933200 -6.509400
N -27.484700 -29.117800 -6.509400
C -27.258100 -35.918500 -5.645400
C -27.258100 -30.132500 -5.645400
O -26.733300 -38.440900 -7.885100
O -26.733300 -27.610100 -7.885100
N -26.429400 -37.600600 -7.000100
N -26.429400 -28.450400 -7.000100
N -26.123900 -35.475300 -5.177900
N -26.123900 -30.575700 -5.177900
H -26.032000 -34.763400 -4.657200
H -26.032000 -31.287600 -4.657200
H -25.391900 -35.902400 -5.399200
H -25.391900 -30.148600 -5.399200
O -25.253100 -37.447200 -6.641700
O -25.253100 -28.603800 -6.641700
