26
Fragment
O -32.931900 -30.108200 -6.766800
O -32.931900 -21.264800 -6.766800
H -32.793100 -28.563400 -8.009300
H -32.793100 -22.809600 -8.009300
H -32.153000 -27.424400 -8.751300
H -32.153000 -23.948600 -8.751300
N -32.061100 -28.136300 -8.230600
N -32.061100 -23.236700 -8.230600
N -31.755600 -30.261600 -6.408400
N -31.755600 -21.111400 -6.408400
O -31.451700 -31.101900 -5.523400
O -31.451700 -20.271100 -5.523400
C -30.926900 -28.579500 -7.763100
C -30.926900 -22.793500 -7.763100
N -30.700300 -29.594200 -6.899100
N -30.700300 -21.778800 -6.899100
O -29.861300 -25.686500 -6.883500
C -29.794600 -25.686500 -8.088500
N -29.779100 -28.028700 -8.159100
N -29.779100 -23.344300 -8.159100
N -29.777300 -26.828400 -8.835800
N -29.777300 -24.544600 -8.835800
H -29.577400 -26.802000 -9.676500
H -29.577400 -24.571000 -9.676500
H -29.022700 -28.256600 -7.794800
H -29.022700 -23.116400 -7.794800
26
Fragment
H -29.162300 -20.917600 -10.083200
H -29.162300 -15.777400 -10.083200
H -28.607600 -19.463000 -8.201500
H -28.607600 -17.232000 -8.201500
N -28.407700 -19.489400 -9.042200
N -28.407700 -17.205600 -9.042200
N -28.405900 -20.689700 -9.718900
N -28.405900 -16.005300 -9.718900
C -28.390400 -18.347500 -9.789500
O -28.323700 -18.347500 -10.994500
N -27.484700 -22.255200 -10.978900
N -27.484700 -14.439800 -10.978900
C -27.258100 -21.240500 -10.114900
C -27.258100 -15.454500 -10.114900
O -26.733300 -23.762900 -12.354600
O -26.733300 -12.932100 -12.354600
N -26.429400 -22.922600 -11.469600
N -26.429400 -13.772400 -11.469600
N -26.123900 -20.797300 -9.647400
N -26.123900 -15.897700 -9.647400
H -26.032000 -20.085400 -9.126700
H -26.032000 -16.609600 -9.126700
H -25.391900 -21.224400 -9.868700
H -25.391900 -15.470600 -9.868700
O -25.253100 -22.769200 -11.111200
O -25.253100 -13.925800 -11.111200
52
Fragment
O -32.931900 -30.108200 -6.766800
O -32.931900 -21.264800 -6.766800
H -32.793100 -28.563400 -8.009300
H -32.793100 -22.809600 -8.009300
H -32.153000 -27.424400 -8.751300
H -32.153000 -23.948600 -8.751300
N -32.061100 -28.136300 -8.230600
N -32.061100 -23.236700 -8.230600
N -31.755600 -30.261600 -6.408400
N -31.755600 -21.111400 -6.408400
O -31.451700 -31.101900 -5.523400
O -31.451700 -20.271100 -5.523400
C -30.926900 -28.579500 -7.763100
C -30.926900 -22.793500 -7.763100
N -30.700300 -29.594200 -6.899100
N -30.700300 -21.778800 -6.899100
O -29.861300 -25.686500 -6.883500
C -29.794600 -25.686500 -8.088500
N -29.779100 -28.028700 -8.159100
N -29.779100 -23.344300 -8.159100
N -29.777300 -26.828400 -8.835800
N -29.777300 -24.544600 -8.835800
H -29.577400 -26.802000 -9.676500
H -29.577400 -24.571000 -9.676500
H -29.022700 -28.256600 -7.794800
H -29.022700 -23.116400 -7.794800
H -29.162300 -20.917600 -10.083200
H -29.162300 -15.777400 -10.083200
H -28.607600 -19.463000 -8.201500
H -28.607600 -17.232000 -8.201500
N -28.407700 -19.489400 -9.042200
N -28.407700 -17.205600 -9.042200
N -28.405900 -20.689700 -9.718900
N -28.405900 -16.005300 -9.718900
C -28.390400 -18.347500 -9.789500
O -28.323700 -18.347500 -10.994500
N -27.484700 -22.255200 -10.978900
N -27.484700 -14.439800 -10.978900
C -27.258100 -21.240500 -10.114900
C -27.258100 -15.454500 -10.114900
O -26.733300 -23.762900 -12.354600
O -26.733300 -12.932100 -12.354600
N -26.429400 -22.922600 -11.469600
N -26.429400 -13.772400 -11.469600
N -26.123900 -20.797300 -9.647400
N -26.123900 -15.897700 -9.647400
H -26.032000 -20.085400 -9.126700
H -26.032000 -16.609600 -9.126700
H -25.391900 -21.224400 -9.868700
H -25.391900 -15.470600 -9.868700
O -25.253100 -22.769200 -11.111200
O -25.253100 -13.925800 -11.111200
