32
Fragment
O -19.131400 -28.628100 -11.595000
O -18.810100 -24.017300 -10.147200
H -18.777100 -26.314300 -10.907000
N -17.932600 -28.738000 -11.415100
C -17.781800 -26.347900 -11.001000
N -17.648400 -23.974600 -10.464700
O -17.347700 -29.816300 -11.458100
C -17.119200 -27.526900 -11.304400
O -16.981900 -22.957400 -10.511000
C -16.977200 -25.249800 -10.811000
C -15.759800 -27.621600 -11.397000
C -15.611100 -25.277300 -10.894900
H -15.350700 -28.391400 -11.598300
H -15.083900 -24.542700 -10.759300
C -14.983800 -26.483800 -11.202300
C -13.498900 -26.647200 -11.236600
H -13.133300 -24.817600 -11.752700
O -12.983500 -27.745300 -11.085500
N -12.776000 -25.518600 -11.408400
N -11.416500 -25.617900 -11.339300
H -11.132200 -23.733300 -11.860100
C -10.750500 -24.556500 -11.597700
C -9.326300 -24.583900 -11.517100
O -8.753300 -25.775200 -11.144600
H -8.443500 -22.771100 -12.068200
C -8.352500 -23.652300 -11.699000
C -7.431900 -25.530800 -11.102300
O -7.175300 -27.698000 -10.490900
C -7.117800 -24.270900 -11.427900
N -6.629200 -26.625900 -10.691500
H -6.236500 -23.916500 -11.430500
O -5.445700 -26.407500 -10.543900
3
Fragment
H -17.908100 -25.306300 -14.229400
O -17.238900 -24.997800 -14.173700
H -16.399700 -25.230000 -14.195900
35
Fragment
O -19.131400 -28.628100 -11.595000
O -18.810100 -24.017300 -10.147200
H -18.777100 -26.314300 -10.907000
N -17.932600 -28.738000 -11.415100
C -17.781800 -26.347900 -11.001000
N -17.648400 -23.974600 -10.464700
O -17.347700 -29.816300 -11.458100
C -17.119200 -27.526900 -11.304400
O -16.981900 -22.957400 -10.511000
C -16.977200 -25.249800 -10.811000
C -15.759800 -27.621600 -11.397000
C -15.611100 -25.277300 -10.894900
H -15.350700 -28.391400 -11.598300
H -15.083900 -24.542700 -10.759300
C -14.983800 -26.483800 -11.202300
C -13.498900 -26.647200 -11.236600
H -13.133300 -24.817600 -11.752700
O -12.983500 -27.745300 -11.085500
N -12.776000 -25.518600 -11.408400
N -11.416500 -25.617900 -11.339300
H -11.132200 -23.733300 -11.860100
C -10.750500 -24.556500 -11.597700
C -9.326300 -24.583900 -11.517100
O -8.753300 -25.775200 -11.144600
H -8.443500 -22.771100 -12.068200
C -8.352500 -23.652300 -11.699000
C -7.431900 -25.530800 -11.102300
O -7.175300 -27.698000 -10.490900
C -7.117800 -24.270900 -11.427900
N -6.629200 -26.625900 -10.691500
H -6.236500 -23.916500 -11.430500
O -5.445700 -26.407500 -10.543900
H -17.908100 -25.306300 -14.229400
O -17.238900 -24.997800 -14.173700
H -16.399700 -25.230000 -14.195900
