32
Fragment
O -19.131400 -28.628100 -11.595000
O -18.810100 -24.017300 -10.147200
H -18.777100 -26.314300 -10.907000
N -17.932600 -28.738000 -11.415100
C -17.781800 -26.347900 -11.001000
N -17.648400 -23.974600 -10.464700
O -17.347700 -29.816300 -11.458100
C -17.119200 -27.526900 -11.304400
O -16.981900 -22.957400 -10.511000
C -16.977200 -25.249800 -10.811000
C -15.759800 -27.621600 -11.397000
C -15.611100 -25.277300 -10.894900
H -15.350700 -28.391400 -11.598300
H -15.083900 -24.542700 -10.759300
C -14.983800 -26.483800 -11.202300
C -13.498900 -26.647200 -11.236600
H -13.133300 -24.817600 -11.752700
O -12.983500 -27.745300 -11.085500
N -12.776000 -25.518600 -11.408400
N -11.416500 -25.617900 -11.339300
H -11.132200 -23.733300 -11.860100
C -10.750500 -24.556500 -11.597700
C -9.326300 -24.583900 -11.517100
O -8.753300 -25.775200 -11.144600
H -8.443500 -22.771100 -12.068200
C -8.352500 -23.652300 -11.699000
C -7.431900 -25.530800 -11.102300
O -7.175300 -27.698000 -10.490900
C -7.117800 -24.270900 -11.427900
N -6.629200 -26.625900 -10.691500
H -6.236500 -23.916500 -11.430500
O -5.445700 -26.407500 -10.543900
32
Fragment
O -21.992400 -27.045900 -13.899900
H -21.201600 -29.536800 -14.786500
N -20.808900 -26.827500 -14.047500
C -20.320400 -29.182500 -14.783900
O -20.262800 -25.755300 -13.846900
C -20.006200 -27.922500 -14.458300
C -19.085600 -29.801000 -15.055000
H -18.994600 -30.682200 -15.424200
O -18.684800 -27.678100 -14.500600
C -18.111800 -28.869400 -14.873100
C -16.687600 -28.896900 -14.953700
H -16.306000 -29.720000 -15.216100
N -16.021600 -27.835400 -14.695300
N -14.662100 -27.934700 -14.764400
O -14.454600 -25.708000 -14.441500
H -14.304800 -28.635700 -15.108700
C -13.939200 -26.806100 -14.592600
C -12.454300 -26.969500 -14.558300
H -12.354200 -28.910600 -14.115300
H -12.087400 -25.062000 -14.954300
C -11.827000 -28.176000 -14.250900
C -11.678300 -25.831700 -14.753000
C -10.460900 -28.203500 -14.167000
O -10.456200 -30.495900 -13.867000
C -10.318900 -25.926400 -14.660400
O -10.090400 -23.637100 -14.814100
N -9.789700 -29.478700 -13.820700
C -9.656300 -27.105400 -14.357000
N -9.505500 -24.715300 -14.771100
H -8.661000 -27.139000 -14.263000
O -8.628000 -29.436000 -13.503200
O -8.306700 -24.825300 -14.951000
64
Fragment
O -19.131400 -28.628100 -11.595000
O -18.810100 -24.017300 -10.147200
H -18.777100 -26.314300 -10.907000
N -17.932600 -28.738000 -11.415100
C -17.781800 -26.347900 -11.001000
N -17.648400 -23.974600 -10.464700
O -17.347700 -29.816300 -11.458100
C -17.119200 -27.526900 -11.304400
O -16.981900 -22.957400 -10.511000
C -16.977200 -25.249800 -10.811000
C -15.759800 -27.621600 -11.397000
C -15.611100 -25.277300 -10.894900
H -15.350700 -28.391400 -11.598300
H -15.083900 -24.542700 -10.759300
C -14.983800 -26.483800 -11.202300
C -13.498900 -26.647200 -11.236600
H -13.133300 -24.817600 -11.752700
O -12.983500 -27.745300 -11.085500
N -12.776000 -25.518600 -11.408400
N -11.416500 -25.617900 -11.339300
H -11.132200 -23.733300 -11.860100
C -10.750500 -24.556500 -11.597700
C -9.326300 -24.583900 -11.517100
O -8.753300 -25.775200 -11.144600
H -8.443500 -22.771100 -12.068200
C -8.352500 -23.652300 -11.699000
C -7.431900 -25.530800 -11.102300
O -7.175300 -27.698000 -10.490900
C -7.117800 -24.270900 -11.427900
N -6.629200 -26.625900 -10.691500
H -6.236500 -23.916500 -11.430500
O -5.445700 -26.407500 -10.543900
O -21.992400 -27.045900 -13.899900
H -21.201600 -29.536800 -14.786500
N -20.808900 -26.827500 -14.047500
C -20.320400 -29.182500 -14.783900
O -20.262800 -25.755300 -13.846900
C -20.006200 -27.922500 -14.458300
C -19.085600 -29.801000 -15.055000
H -18.994600 -30.682200 -15.424200
O -18.684800 -27.678100 -14.500600
C -18.111800 -28.869400 -14.873100
C -16.687600 -28.896900 -14.953700
H -16.306000 -29.720000 -15.216100
N -16.021600 -27.835400 -14.695300
N -14.662100 -27.934700 -14.764400
O -14.454600 -25.708000 -14.441500
H -14.304800 -28.635700 -15.108700
C -13.939200 -26.806100 -14.592600
C -12.454300 -26.969500 -14.558300
H -12.354200 -28.910600 -14.115300
H -12.087400 -25.062000 -14.954300
C -11.827000 -28.176000 -14.250900
C -11.678300 -25.831700 -14.753000
C -10.460900 -28.203500 -14.167000
O -10.456200 -30.495900 -13.867000
C -10.318900 -25.926400 -14.660400
O -10.090400 -23.637100 -14.814100
N -9.789700 -29.478700 -13.820700
C -9.656300 -27.105400 -14.357000
N -9.505500 -24.715300 -14.771100
H -8.661000 -27.139000 -14.263000
O -8.628000 -29.436000 -13.503200
O -8.306700 -24.825300 -14.951000
