32
Fragment
O -19.131400 -28.628100 -11.595000
O -18.810100 -24.017300 -10.147200
H -18.777100 -26.314300 -10.907000
N -17.932600 -28.738000 -11.415100
C -17.781800 -26.347900 -11.001000
N -17.648400 -23.974600 -10.464700
O -17.347700 -29.816300 -11.458100
C -17.119200 -27.526900 -11.304400
O -16.981900 -22.957400 -10.511000
C -16.977200 -25.249800 -10.811000
C -15.759800 -27.621600 -11.397000
C -15.611100 -25.277300 -10.894900
H -15.350700 -28.391400 -11.598300
H -15.083900 -24.542700 -10.759300
C -14.983800 -26.483800 -11.202300
C -13.498900 -26.647200 -11.236600
H -13.133300 -24.817600 -11.752700
O -12.983500 -27.745300 -11.085500
N -12.776000 -25.518600 -11.408400
N -11.416500 -25.617900 -11.339300
H -11.132200 -23.733300 -11.860100
C -10.750500 -24.556500 -11.597700
C -9.326300 -24.583900 -11.517100
O -8.753300 -25.775200 -11.144600
H -8.443500 -22.771100 -12.068200
C -8.352500 -23.652300 -11.699000
C -7.431900 -25.530800 -11.102300
O -7.175300 -27.698000 -10.490900
C -7.117800 -24.270900 -11.427900
N -6.629200 -26.625900 -10.691500
H -6.236500 -23.916500 -11.430500
O -5.445700 -26.407500 -10.543900
32
Fragment
O -21.930400 -20.991900 -11.897000
O -21.609100 -16.381200 -13.344800
H -21.576100 -18.678100 -12.585000
N -20.731600 -21.101800 -12.076900
C -20.580800 -18.711700 -12.491000
N -20.447400 -16.338400 -13.027300
O -20.146700 -22.180100 -12.033900
C -19.918200 -19.890700 -12.187600
O -19.780900 -15.321200 -12.981000
C -19.776200 -17.613600 -12.681000
C -18.558800 -19.985400 -12.095000
C -18.410100 -17.641100 -12.597100
H -18.149700 -20.755200 -11.893700
H -17.882900 -16.906500 -12.732700
C -17.782800 -18.847600 -12.289700
C -16.297900 -19.011100 -12.255400
H -15.932300 -17.181400 -11.739300
O -15.782500 -20.109100 -12.406500
N -15.575000 -17.882400 -12.083600
N -14.215500 -17.981700 -12.152700
H -13.931100 -16.097100 -11.631900
C -13.549500 -16.920300 -11.894300
C -12.125300 -16.947800 -11.974900
O -11.552300 -18.139000 -12.347400
H -11.242500 -15.134900 -11.423800
C -11.151500 -16.016100 -11.793000
C -10.230900 -17.894600 -12.389700
O -9.974300 -20.061800 -13.001100
C -9.916800 -16.634700 -12.064100
N -9.428200 -18.989700 -12.800500
H -9.035500 -16.280400 -12.061500
O -8.244700 -18.771300 -12.948100
64
Fragment
O -19.131400 -28.628100 -11.595000
O -18.810100 -24.017300 -10.147200
H -18.777100 -26.314300 -10.907000
N -17.932600 -28.738000 -11.415100
C -17.781800 -26.347900 -11.001000
N -17.648400 -23.974600 -10.464700
O -17.347700 -29.816300 -11.458100
C -17.119200 -27.526900 -11.304400
O -16.981900 -22.957400 -10.511000
C -16.977200 -25.249800 -10.811000
C -15.759800 -27.621600 -11.397000
C -15.611100 -25.277300 -10.894900
H -15.350700 -28.391400 -11.598300
H -15.083900 -24.542700 -10.759300
C -14.983800 -26.483800 -11.202300
C -13.498900 -26.647200 -11.236600
H -13.133300 -24.817600 -11.752700
O -12.983500 -27.745300 -11.085500
N -12.776000 -25.518600 -11.408400
N -11.416500 -25.617900 -11.339300
H -11.132200 -23.733300 -11.860100
C -10.750500 -24.556500 -11.597700
C -9.326300 -24.583900 -11.517100
O -8.753300 -25.775200 -11.144600
H -8.443500 -22.771100 -12.068200
C -8.352500 -23.652300 -11.699000
C -7.431900 -25.530800 -11.102300
O -7.175300 -27.698000 -10.490900
C -7.117800 -24.270900 -11.427900
N -6.629200 -26.625900 -10.691500
H -6.236500 -23.916500 -11.430500
O -5.445700 -26.407500 -10.543900
O -21.930400 -20.991900 -11.897000
O -21.609100 -16.381200 -13.344800
H -21.576100 -18.678100 -12.585000
N -20.731600 -21.101800 -12.076900
C -20.580800 -18.711700 -12.491000
N -20.447400 -16.338400 -13.027300
O -20.146700 -22.180100 -12.033900
C -19.918200 -19.890700 -12.187600
O -19.780900 -15.321200 -12.981000
C -19.776200 -17.613600 -12.681000
C -18.558800 -19.985400 -12.095000
C -18.410100 -17.641100 -12.597100
H -18.149700 -20.755200 -11.893700
H -17.882900 -16.906500 -12.732700
C -17.782800 -18.847600 -12.289700
C -16.297900 -19.011100 -12.255400
H -15.932300 -17.181400 -11.739300
O -15.782500 -20.109100 -12.406500
N -15.575000 -17.882400 -12.083600
N -14.215500 -17.981700 -12.152700
H -13.931100 -16.097100 -11.631900
C -13.549500 -16.920300 -11.894300
C -12.125300 -16.947800 -11.974900
O -11.552300 -18.139000 -12.347400
H -11.242500 -15.134900 -11.423800
C -11.151500 -16.016100 -11.793000
C -10.230900 -17.894600 -12.389700
O -9.974300 -20.061800 -13.001100
C -9.916800 -16.634700 -12.064100
N -9.428200 -18.989700 -12.800500
H -9.035500 -16.280400 -12.061500
O -8.244700 -18.771300 -12.948100
