36
Fragment
O -19.094300 -24.789400 -35.631300
O -18.848600 -23.509500 -32.288600
H -18.187900 -25.204900 -33.620100
N -17.972200 -24.536300 -36.025600
N -17.682900 -23.463000 -31.935500
O -17.672300 -24.152000 -37.151500
O -17.241800 -23.017200 -30.896300
C -17.211800 -25.035800 -33.760800
H -16.940000 -27.029400 -33.005300
N -16.936100 -24.729000 -35.130900
N -16.739700 -23.915500 -32.914200
C -16.355700 -26.280600 -33.322100
O -16.244400 -21.898200 -35.736500
O -16.032600 -28.841800 -34.120600
N -15.579800 -25.698000 -32.205600
C -15.562400 -24.492300 -35.522400
N -15.549800 -26.686200 -34.454600
N -15.497600 -22.130600 -34.812900
H -15.482100 -24.350700 -36.508800
C -15.415400 -24.243400 -32.398900
N -15.357300 -28.054800 -34.734100
H -15.219900 -23.771600 -31.538800
O -15.141600 -21.374500 -33.921600
N -14.937500 -23.403000 -34.771400
C -14.685000 -25.709600 -35.041700
O -14.587300 -27.634300 -31.838200
O -14.542800 -28.298700 -35.616000
N -14.516700 -26.415600 -31.711600
C -14.344500 -23.896700 -33.528500
H -14.164500 -26.099700 -35.802700
N -13.785300 -25.146000 -34.019100
H -13.633400 -23.281500 -33.188000
O -13.620900 -25.790200 -31.170900
N -12.391300 -25.162800 -34.328700
O -12.014000 -26.123900 -34.948900
O -11.719000 -24.261600 -33.856900
36
Fragment
O -22.139700 -14.577100 -33.856900
O -21.844600 -16.439400 -34.948900
N -21.467400 -15.478300 -34.328700
O -20.237800 -16.105700 -31.170900
H -20.225200 -13.597000 -33.188000
N -20.073300 -15.461500 -34.019100
H -19.694100 -16.415200 -35.802700
C -19.514200 -14.212200 -33.528500
N -19.342000 -16.731100 -31.711600
O -19.315900 -18.614200 -35.616000
O -19.271400 -17.949800 -31.838200
C -19.173700 -16.025100 -35.041700
N -18.921200 -13.718500 -34.771400
O -18.717100 -11.690000 -33.921600
H -18.638700 -14.087100 -31.538800
N -18.501300 -18.370300 -34.734100
C -18.443300 -14.558900 -32.398900
H -18.376500 -14.666200 -36.508800
N -18.361100 -12.446100 -34.812900
N -18.308800 -17.001700 -34.454600
C -18.296200 -14.807800 -35.522400
N -18.278800 -16.013500 -32.205600
O -17.826100 -19.157300 -34.120600
O -17.614200 -12.213700 -35.736500
C -17.503000 -16.596100 -33.322100
N -17.118900 -14.231000 -32.914200
N -16.922600 -15.044500 -35.130900
H -16.918700 -17.344900 -33.005300
C -16.646800 -15.351300 -33.760800
O -16.616900 -13.332700 -30.896300
O -16.186400 -14.467500 -37.151500
N -16.175700 -13.778500 -31.935500
N -15.886500 -14.851800 -36.025600
H -15.670800 -15.520400 -33.620100
O -15.010000 -13.825000 -32.288600
O -14.764300 -15.104900 -35.631300
72
Fragment
O -19.094300 -24.789400 -35.631300
O -18.848600 -23.509500 -32.288600
H -18.187900 -25.204900 -33.620100
N -17.972200 -24.536300 -36.025600
N -17.682900 -23.463000 -31.935500
O -17.672300 -24.152000 -37.151500
O -17.241800 -23.017200 -30.896300
C -17.211800 -25.035800 -33.760800
H -16.940000 -27.029400 -33.005300
N -16.936100 -24.729000 -35.130900
N -16.739700 -23.915500 -32.914200
C -16.355700 -26.280600 -33.322100
O -16.244400 -21.898200 -35.736500
O -16.032600 -28.841800 -34.120600
N -15.579800 -25.698000 -32.205600
C -15.562400 -24.492300 -35.522400
N -15.549800 -26.686200 -34.454600
N -15.497600 -22.130600 -34.812900
H -15.482100 -24.350700 -36.508800
C -15.415400 -24.243400 -32.398900
N -15.357300 -28.054800 -34.734100
H -15.219900 -23.771600 -31.538800
O -15.141600 -21.374500 -33.921600
N -14.937500 -23.403000 -34.771400
C -14.685000 -25.709600 -35.041700
O -14.587300 -27.634300 -31.838200
O -14.542800 -28.298700 -35.616000
N -14.516700 -26.415600 -31.711600
C -14.344500 -23.896700 -33.528500
H -14.164500 -26.099700 -35.802700
N -13.785300 -25.146000 -34.019100
H -13.633400 -23.281500 -33.188000
O -13.620900 -25.790200 -31.170900
N -12.391300 -25.162800 -34.328700
O -12.014000 -26.123900 -34.948900
O -11.719000 -24.261600 -33.856900
O -22.139700 -14.577100 -33.856900
O -21.844600 -16.439400 -34.948900
N -21.467400 -15.478300 -34.328700
O -20.237800 -16.105700 -31.170900
H -20.225200 -13.597000 -33.188000
N -20.073300 -15.461500 -34.019100
H -19.694100 -16.415200 -35.802700
C -19.514200 -14.212200 -33.528500
N -19.342000 -16.731100 -31.711600
O -19.315900 -18.614200 -35.616000
O -19.271400 -17.949800 -31.838200
C -19.173700 -16.025100 -35.041700
N -18.921200 -13.718500 -34.771400
O -18.717100 -11.690000 -33.921600
H -18.638700 -14.087100 -31.538800
N -18.501300 -18.370300 -34.734100
C -18.443300 -14.558900 -32.398900
H -18.376500 -14.666200 -36.508800
N -18.361100 -12.446100 -34.812900
N -18.308800 -17.001700 -34.454600
C -18.296200 -14.807800 -35.522400
N -18.278800 -16.013500 -32.205600
O -17.826100 -19.157300 -34.120600
O -17.614200 -12.213700 -35.736500
C -17.503000 -16.596100 -33.322100
N -17.118900 -14.231000 -32.914200
N -16.922600 -15.044500 -35.130900
H -16.918700 -17.344900 -33.005300
C -16.646800 -15.351300 -33.760800
O -16.616900 -13.332700 -30.896300
O -16.186400 -14.467500 -37.151500
N -16.175700 -13.778500 -31.935500
N -15.886500 -14.851800 -36.025600
H -15.670800 -15.520400 -33.620100
O -15.010000 -13.825000 -32.288600
O -14.764300 -15.104900 -35.631300
