36
Fragment
O -19.094300 -24.789400 -35.631300
O -18.848600 -23.509500 -32.288600
H -18.187900 -25.204900 -33.620100
N -17.972200 -24.536300 -36.025600
N -17.682900 -23.463000 -31.935500
O -17.672300 -24.152000 -37.151500
O -17.241800 -23.017200 -30.896300
C -17.211800 -25.035800 -33.760800
H -16.940000 -27.029400 -33.005300
N -16.936100 -24.729000 -35.130900
N -16.739700 -23.915500 -32.914200
C -16.355700 -26.280600 -33.322100
O -16.244400 -21.898200 -35.736500
O -16.032600 -28.841800 -34.120600
N -15.579800 -25.698000 -32.205600
C -15.562400 -24.492300 -35.522400
N -15.549800 -26.686200 -34.454600
N -15.497600 -22.130600 -34.812900
H -15.482100 -24.350700 -36.508800
C -15.415400 -24.243400 -32.398900
N -15.357300 -28.054800 -34.734100
H -15.219900 -23.771600 -31.538800
O -15.141600 -21.374500 -33.921600
N -14.937500 -23.403000 -34.771400
C -14.685000 -25.709600 -35.041700
O -14.587300 -27.634300 -31.838200
O -14.542800 -28.298700 -35.616000
N -14.516700 -26.415600 -31.711600
C -14.344500 -23.896700 -33.528500
H -14.164500 -26.099700 -35.802700
N -13.785300 -25.146000 -34.019100
H -13.633400 -23.281500 -33.188000
O -13.620900 -25.790200 -31.170900
N -12.391300 -25.162800 -34.328700
O -12.014000 -26.123900 -34.948900
O -11.719000 -24.261600 -33.856900
21
Fragment
O -19.793800 -30.113800 -39.305700
O -19.096300 -31.111800 -41.086500
N -18.998600 -30.248600 -40.219700
H -18.369800 -28.468600 -37.459400
H -18.005100 -29.992900 -37.787700
C -17.868700 -29.294100 -40.344400
H -17.810600 -29.564800 -42.360300
C -17.674200 -29.069600 -37.799800
C -17.414000 -29.106000 -41.628000
C -17.321100 -28.680800 -39.209100
H -16.878100 -29.001200 -37.232200
O -16.383700 -26.657700 -37.464300
C -16.360500 -28.228600 -41.821100
C -16.315000 -27.745100 -39.497500
O -16.295700 -28.742400 -44.067600
C -15.805200 -27.521800 -40.783600
N -15.779100 -28.109300 -43.162000
N -15.693000 -26.961300 -38.423000
H -15.101000 -26.903500 -40.933200
O -14.776900 -27.408300 -43.275300
O -14.523400 -26.615700 -38.566200
57
Fragment
O -19.094300 -24.789400 -35.631300
O -18.848600 -23.509500 -32.288600
H -18.187900 -25.204900 -33.620100
N -17.972200 -24.536300 -36.025600
N -17.682900 -23.463000 -31.935500
O -17.672300 -24.152000 -37.151500
O -17.241800 -23.017200 -30.896300
C -17.211800 -25.035800 -33.760800
H -16.940000 -27.029400 -33.005300
N -16.936100 -24.729000 -35.130900
N -16.739700 -23.915500 -32.914200
C -16.355700 -26.280600 -33.322100
O -16.244400 -21.898200 -35.736500
O -16.032600 -28.841800 -34.120600
N -15.579800 -25.698000 -32.205600
C -15.562400 -24.492300 -35.522400
N -15.549800 -26.686200 -34.454600
N -15.497600 -22.130600 -34.812900
H -15.482100 -24.350700 -36.508800
C -15.415400 -24.243400 -32.398900
N -15.357300 -28.054800 -34.734100
H -15.219900 -23.771600 -31.538800
O -15.141600 -21.374500 -33.921600
N -14.937500 -23.403000 -34.771400
C -14.685000 -25.709600 -35.041700
O -14.587300 -27.634300 -31.838200
O -14.542800 -28.298700 -35.616000
N -14.516700 -26.415600 -31.711600
C -14.344500 -23.896700 -33.528500
H -14.164500 -26.099700 -35.802700
N -13.785300 -25.146000 -34.019100
H -13.633400 -23.281500 -33.188000
O -13.620900 -25.790200 -31.170900
N -12.391300 -25.162800 -34.328700
O -12.014000 -26.123900 -34.948900
O -11.719000 -24.261600 -33.856900
O -19.793800 -30.113800 -39.305700
O -19.096300 -31.111800 -41.086500
N -18.998600 -30.248600 -40.219700
H -18.369800 -28.468600 -37.459400
H -18.005100 -29.992900 -37.787700
C -17.868700 -29.294100 -40.344400
H -17.810600 -29.564800 -42.360300
C -17.674200 -29.069600 -37.799800
C -17.414000 -29.106000 -41.628000
C -17.321100 -28.680800 -39.209100
H -16.878100 -29.001200 -37.232200
O -16.383700 -26.657700 -37.464300
C -16.360500 -28.228600 -41.821100
C -16.315000 -27.745100 -39.497500
O -16.295700 -28.742400 -44.067600
C -15.805200 -27.521800 -40.783600
N -15.779100 -28.109300 -43.162000
N -15.693000 -26.961300 -38.423000
H -15.101000 -26.903500 -40.933200
O -14.776900 -27.408300 -43.275300
O -14.523400 -26.615700 -38.566200
