36
Fragment
O -19.094300 -24.789400 -35.631300
O -18.848600 -23.509500 -32.288600
H -18.187900 -25.204900 -33.620100
N -17.972200 -24.536300 -36.025600
N -17.682900 -23.463000 -31.935500
O -17.672300 -24.152000 -37.151500
O -17.241800 -23.017200 -30.896300
C -17.211800 -25.035800 -33.760800
H -16.940000 -27.029400 -33.005300
N -16.936100 -24.729000 -35.130900
N -16.739700 -23.915500 -32.914200
C -16.355700 -26.280600 -33.322100
O -16.244400 -21.898200 -35.736500
O -16.032600 -28.841800 -34.120600
N -15.579800 -25.698000 -32.205600
C -15.562400 -24.492300 -35.522400
N -15.549800 -26.686200 -34.454600
N -15.497600 -22.130600 -34.812900
H -15.482100 -24.350700 -36.508800
C -15.415400 -24.243400 -32.398900
N -15.357300 -28.054800 -34.734100
H -15.219900 -23.771600 -31.538800
O -15.141600 -21.374500 -33.921600
N -14.937500 -23.403000 -34.771400
C -14.685000 -25.709600 -35.041700
O -14.587300 -27.634300 -31.838200
O -14.542800 -28.298700 -35.616000
N -14.516700 -26.415600 -31.711600
C -14.344500 -23.896700 -33.528500
H -14.164500 -26.099700 -35.802700
N -13.785300 -25.146000 -34.019100
H -13.633400 -23.281500 -33.188000
O -13.620900 -25.790200 -31.170900
N -12.391300 -25.162800 -34.328700
O -12.014000 -26.123900 -34.948900
O -11.719000 -24.261600 -33.856900
21
Fragment
O -14.956800 -18.308700 -34.763700
O -14.259300 -17.310700 -32.982900
N -14.161600 -18.173900 -33.849700
H -13.532800 -19.953900 -36.610000
H -13.168100 -18.429600 -36.281700
C -13.031700 -19.128400 -33.725000
H -12.973700 -18.857700 -31.709100
C -12.837300 -19.352900 -36.269600
C -12.577000 -19.316500 -32.441400
C -12.484200 -19.741700 -34.860300
H -12.041100 -19.421300 -36.837200
O -11.546800 -21.764800 -36.605100
C -11.523500 -20.193900 -32.248300
C -11.478100 -20.677400 -34.571900
O -11.458700 -19.680100 -30.001800
C -10.968300 -20.900700 -33.285800
N -10.942100 -20.313200 -30.907400
N -10.856100 -21.461200 -35.646400
H -10.264000 -21.519000 -33.136200
O -9.939900 -21.014200 -30.794100
O -9.686500 -21.806800 -35.503200
57
Fragment
O -19.094300 -24.789400 -35.631300
O -18.848600 -23.509500 -32.288600
H -18.187900 -25.204900 -33.620100
N -17.972200 -24.536300 -36.025600
N -17.682900 -23.463000 -31.935500
O -17.672300 -24.152000 -37.151500
O -17.241800 -23.017200 -30.896300
C -17.211800 -25.035800 -33.760800
H -16.940000 -27.029400 -33.005300
N -16.936100 -24.729000 -35.130900
N -16.739700 -23.915500 -32.914200
C -16.355700 -26.280600 -33.322100
O -16.244400 -21.898200 -35.736500
O -16.032600 -28.841800 -34.120600
N -15.579800 -25.698000 -32.205600
C -15.562400 -24.492300 -35.522400
N -15.549800 -26.686200 -34.454600
N -15.497600 -22.130600 -34.812900
H -15.482100 -24.350700 -36.508800
C -15.415400 -24.243400 -32.398900
N -15.357300 -28.054800 -34.734100
H -15.219900 -23.771600 -31.538800
O -15.141600 -21.374500 -33.921600
N -14.937500 -23.403000 -34.771400
C -14.685000 -25.709600 -35.041700
O -14.587300 -27.634300 -31.838200
O -14.542800 -28.298700 -35.616000
N -14.516700 -26.415600 -31.711600
C -14.344500 -23.896700 -33.528500
H -14.164500 -26.099700 -35.802700
N -13.785300 -25.146000 -34.019100
H -13.633400 -23.281500 -33.188000
O -13.620900 -25.790200 -31.170900
N -12.391300 -25.162800 -34.328700
O -12.014000 -26.123900 -34.948900
O -11.719000 -24.261600 -33.856900
O -14.956800 -18.308700 -34.763700
O -14.259300 -17.310700 -32.982900
N -14.161600 -18.173900 -33.849700
H -13.532800 -19.953900 -36.610000
H -13.168100 -18.429600 -36.281700
C -13.031700 -19.128400 -33.725000
H -12.973700 -18.857700 -31.709100
C -12.837300 -19.352900 -36.269600
C -12.577000 -19.316500 -32.441400
C -12.484200 -19.741700 -34.860300
H -12.041100 -19.421300 -36.837200
O -11.546800 -21.764800 -36.605100
C -11.523500 -20.193900 -32.248300
C -11.478100 -20.677400 -34.571900
O -11.458700 -19.680100 -30.001800
C -10.968300 -20.900700 -33.285800
N -10.942100 -20.313200 -30.907400
N -10.856100 -21.461200 -35.646400
H -10.264000 -21.519000 -33.136200
O -9.939900 -21.014200 -30.794100
O -9.686500 -21.806800 -35.503200
