36
Fragment
O -19.094300 -24.789400 -35.631300
O -18.848600 -23.509500 -32.288600
H -18.187900 -25.204900 -33.620100
N -17.972200 -24.536300 -36.025600
N -17.682900 -23.463000 -31.935500
O -17.672300 -24.152000 -37.151500
O -17.241800 -23.017200 -30.896300
C -17.211800 -25.035800 -33.760800
H -16.940000 -27.029400 -33.005300
N -16.936100 -24.729000 -35.130900
N -16.739700 -23.915500 -32.914200
C -16.355700 -26.280600 -33.322100
O -16.244400 -21.898200 -35.736500
O -16.032600 -28.841800 -34.120600
N -15.579800 -25.698000 -32.205600
C -15.562400 -24.492300 -35.522400
N -15.549800 -26.686200 -34.454600
N -15.497600 -22.130600 -34.812900
H -15.482100 -24.350700 -36.508800
C -15.415400 -24.243400 -32.398900
N -15.357300 -28.054800 -34.734100
H -15.219900 -23.771600 -31.538800
O -15.141600 -21.374500 -33.921600
N -14.937500 -23.403000 -34.771400
C -14.685000 -25.709600 -35.041700
O -14.587300 -27.634300 -31.838200
O -14.542800 -28.298700 -35.616000
N -14.516700 -26.415600 -31.711600
C -14.344500 -23.896700 -33.528500
H -14.164500 -26.099700 -35.802700
N -13.785300 -25.146000 -34.019100
H -13.633400 -23.281500 -33.188000
O -13.620900 -25.790200 -31.170900
N -12.391300 -25.162800 -34.328700
O -12.014000 -26.123900 -34.948900
O -11.719000 -24.261600 -33.856900
36
Fragment
O -9.420400 -24.789400 -35.631300
O -9.174700 -23.509500 -32.288600
H -8.514000 -25.204900 -33.620100
N -8.298300 -24.536300 -36.025600
N -8.009000 -23.463000 -31.935500
O -7.998400 -24.152000 -37.151500
O -7.567900 -23.017200 -30.896300
C -7.537900 -25.035800 -33.760800
H -7.266100 -27.029400 -33.005300
N -7.262200 -24.729000 -35.130900
N -7.065800 -23.915500 -32.914200
C -6.681800 -26.280600 -33.322100
O -6.570500 -21.898200 -35.736500
O -6.358700 -28.841800 -34.120600
N -5.905900 -25.698000 -32.205600
C -5.888500 -24.492300 -35.522400
N -5.875900 -26.686200 -34.454600
N -5.823700 -22.130600 -34.812900
H -5.808200 -24.350700 -36.508800
C -5.741500 -24.243400 -32.398900
N -5.683400 -28.054800 -34.734100
H -5.546000 -23.771600 -31.538800
O -5.467700 -21.374500 -33.921600
N -5.263600 -23.403000 -34.771400
C -5.011100 -25.709600 -35.041700
O -4.913400 -27.634300 -31.838200
O -4.868900 -28.298700 -35.616000
N -4.842800 -26.415600 -31.711600
C -4.670600 -23.896700 -33.528500
H -4.490600 -26.099700 -35.802700
N -4.111400 -25.146000 -34.019100
H -3.959500 -23.281500 -33.188000
O -3.947000 -25.790200 -31.170900
N -2.717400 -25.162800 -34.328700
O -2.340100 -26.123900 -34.948900
O -2.045100 -24.261600 -33.856900
72
Fragment
O -19.094300 -24.789400 -35.631300
O -18.848600 -23.509500 -32.288600
H -18.187900 -25.204900 -33.620100
N -17.972200 -24.536300 -36.025600
N -17.682900 -23.463000 -31.935500
O -17.672300 -24.152000 -37.151500
O -17.241800 -23.017200 -30.896300
C -17.211800 -25.035800 -33.760800
H -16.940000 -27.029400 -33.005300
N -16.936100 -24.729000 -35.130900
N -16.739700 -23.915500 -32.914200
C -16.355700 -26.280600 -33.322100
O -16.244400 -21.898200 -35.736500
O -16.032600 -28.841800 -34.120600
N -15.579800 -25.698000 -32.205600
C -15.562400 -24.492300 -35.522400
N -15.549800 -26.686200 -34.454600
N -15.497600 -22.130600 -34.812900
H -15.482100 -24.350700 -36.508800
C -15.415400 -24.243400 -32.398900
N -15.357300 -28.054800 -34.734100
H -15.219900 -23.771600 -31.538800
O -15.141600 -21.374500 -33.921600
N -14.937500 -23.403000 -34.771400
C -14.685000 -25.709600 -35.041700
O -14.587300 -27.634300 -31.838200
O -14.542800 -28.298700 -35.616000
N -14.516700 -26.415600 -31.711600
C -14.344500 -23.896700 -33.528500
H -14.164500 -26.099700 -35.802700
N -13.785300 -25.146000 -34.019100
H -13.633400 -23.281500 -33.188000
O -13.620900 -25.790200 -31.170900
N -12.391300 -25.162800 -34.328700
O -12.014000 -26.123900 -34.948900
O -11.719000 -24.261600 -33.856900
O -9.420400 -24.789400 -35.631300
O -9.174700 -23.509500 -32.288600
H -8.514000 -25.204900 -33.620100
N -8.298300 -24.536300 -36.025600
N -8.009000 -23.463000 -31.935500
O -7.998400 -24.152000 -37.151500
O -7.567900 -23.017200 -30.896300
C -7.537900 -25.035800 -33.760800
H -7.266100 -27.029400 -33.005300
N -7.262200 -24.729000 -35.130900
N -7.065800 -23.915500 -32.914200
C -6.681800 -26.280600 -33.322100
O -6.570500 -21.898200 -35.736500
O -6.358700 -28.841800 -34.120600
N -5.905900 -25.698000 -32.205600
C -5.888500 -24.492300 -35.522400
N -5.875900 -26.686200 -34.454600
N -5.823700 -22.130600 -34.812900
H -5.808200 -24.350700 -36.508800
C -5.741500 -24.243400 -32.398900
N -5.683400 -28.054800 -34.734100
H -5.546000 -23.771600 -31.538800
O -5.467700 -21.374500 -33.921600
N -5.263600 -23.403000 -34.771400
C -5.011100 -25.709600 -35.041700
O -4.913400 -27.634300 -31.838200
O -4.868900 -28.298700 -35.616000
N -4.842800 -26.415600 -31.711600
C -4.670600 -23.896700 -33.528500
H -4.490600 -26.099700 -35.802700
N -4.111400 -25.146000 -34.019100
H -3.959500 -23.281500 -33.188000
O -3.947000 -25.790200 -31.170900
N -2.717400 -25.162800 -34.328700
O -2.340100 -26.123900 -34.948900
O -2.045100 -24.261600 -33.856900
