19
Fragment
O -15.063800 -35.363900 -15.113500
H -14.442600 -34.022600 -17.160400
H -13.924600 -35.494000 -17.476300
N -13.921600 -35.001400 -14.816600
C -13.668600 -34.584000 -17.171500
O -13.491500 -34.946900 -13.658300
N -13.107600 -34.634900 -15.823200
H -12.994200 -34.217700 -17.746300
C -11.686300 -34.503000 -15.551300
H -11.497200 -33.318300 -13.267000
H -11.447900 -35.063400 -14.789400
N -11.250000 -33.147300 -15.223900
H -11.230800 -34.780700 -16.361400
H -11.135700 -31.893900 -13.737700
C -10.931500 -32.772300 -13.852800
O -10.815500 -32.802600 -17.366600
N -10.626700 -32.450000 -16.204300
H -9.981400 -32.811300 -13.663400
O -9.933500 -31.485700 -15.883200
36
Fragment
O -13.056100 -27.723600 -21.905200
O -13.043700 -29.436900 -18.735500
H -12.398700 -29.991800 -21.956800
H -12.335800 -31.348900 -20.213900
O -11.976700 -30.096800 -24.211700
N -11.899900 -27.499600 -21.581500
N -11.856400 -29.405000 -18.464000
O -11.777600 -33.602200 -20.018400
C -11.558100 -29.943800 -21.577500
C -11.503700 -30.941800 -20.342400
O -11.336600 -26.426900 -21.541800
O -11.313400 -28.676000 -17.634800
N -11.171500 -28.617500 -21.097600
N -11.044000 -30.284800 -19.116900
N -10.796800 -30.154900 -23.903100
N -10.626500 -33.203000 -20.045300
N -10.507200 -30.307600 -22.525000
N -10.418300 -31.892600 -20.525100
O -9.844400 -30.166100 -24.655700
C -9.697500 -28.547100 -21.086500
O -9.622000 -33.840900 -19.791100
C -9.590700 -30.068100 -19.155100
H -9.375200 -27.663500 -21.393200
C -9.241500 -29.720900 -22.035200
H -9.219800 -30.142100 -18.269100
N -9.204700 -28.817100 -19.759800
C -9.159000 -31.238300 -20.103000
O -8.809800 -26.647700 -19.465800
N -8.781900 -27.748800 -18.961000
H -8.692700 -29.390700 -22.753300
H -8.590500 -31.871500 -19.657700
N -8.483500 -30.669200 -21.242300
O -8.383400 -28.037200 -17.843100
N -7.625900 -31.542400 -21.950400
O -7.277500 -31.192800 -23.053600
O -7.270300 -32.546400 -21.348300
55
Fragment
O -15.063800 -35.363900 -15.113500
H -14.442600 -34.022600 -17.160400
H -13.924600 -35.494000 -17.476300
N -13.921600 -35.001400 -14.816600
C -13.668600 -34.584000 -17.171500
O -13.491500 -34.946900 -13.658300
N -13.107600 -34.634900 -15.823200
H -12.994200 -34.217700 -17.746300
C -11.686300 -34.503000 -15.551300
H -11.497200 -33.318300 -13.267000
H -11.447900 -35.063400 -14.789400
N -11.250000 -33.147300 -15.223900
H -11.230800 -34.780700 -16.361400
H -11.135700 -31.893900 -13.737700
C -10.931500 -32.772300 -13.852800
O -10.815500 -32.802600 -17.366600
N -10.626700 -32.450000 -16.204300
H -9.981400 -32.811300 -13.663400
O -9.933500 -31.485700 -15.883200
O -13.056100 -27.723600 -21.905200
O -13.043700 -29.436900 -18.735500
H -12.398700 -29.991800 -21.956800
H -12.335800 -31.348900 -20.213900
O -11.976700 -30.096800 -24.211700
N -11.899900 -27.499600 -21.581500
N -11.856400 -29.405000 -18.464000
O -11.777600 -33.602200 -20.018400
C -11.558100 -29.943800 -21.577500
C -11.503700 -30.941800 -20.342400
O -11.336600 -26.426900 -21.541800
O -11.313400 -28.676000 -17.634800
N -11.171500 -28.617500 -21.097600
N -11.044000 -30.284800 -19.116900
N -10.796800 -30.154900 -23.903100
N -10.626500 -33.203000 -20.045300
N -10.507200 -30.307600 -22.525000
N -10.418300 -31.892600 -20.525100
O -9.844400 -30.166100 -24.655700
C -9.697500 -28.547100 -21.086500
O -9.622000 -33.840900 -19.791100
C -9.590700 -30.068100 -19.155100
H -9.375200 -27.663500 -21.393200
C -9.241500 -29.720900 -22.035200
H -9.219800 -30.142100 -18.269100
N -9.204700 -28.817100 -19.759800
C -9.159000 -31.238300 -20.103000
O -8.809800 -26.647700 -19.465800
N -8.781900 -27.748800 -18.961000
H -8.692700 -29.390700 -22.753300
H -8.590500 -31.871500 -19.657700
N -8.483500 -30.669200 -21.242300
O -8.383400 -28.037200 -17.843100
N -7.625900 -31.542400 -21.950400
O -7.277500 -31.192800 -23.053600
O -7.270300 -32.546400 -21.348300
