19
Fragment
O -15.063800 -35.363900 -15.113500
H -14.442600 -34.022600 -17.160400
H -13.924600 -35.494000 -17.476300
N -13.921600 -35.001400 -14.816600
C -13.668600 -34.584000 -17.171500
O -13.491500 -34.946900 -13.658300
N -13.107600 -34.634900 -15.823200
H -12.994200 -34.217700 -17.746300
C -11.686300 -34.503000 -15.551300
H -11.497200 -33.318300 -13.267000
H -11.447900 -35.063400 -14.789400
N -11.250000 -33.147300 -15.223900
H -11.230800 -34.780700 -16.361400
H -11.135700 -31.893900 -13.737700
C -10.931500 -32.772300 -13.852800
O -10.815500 -32.802600 -17.366600
N -10.626700 -32.450000 -16.204300
H -9.981400 -32.811300 -13.663400
O -9.933500 -31.485700 -15.883200
36
Fragment
O -14.689200 -28.352600 -15.711400
O -14.676800 -26.639400 -12.541700
H -14.031900 -26.084400 -15.763100
H -13.968900 -24.727400 -14.020200
O -13.609800 -25.979500 -18.018000
N -13.533000 -28.576700 -15.387700
N -13.489500 -26.671200 -12.270300
O -13.410700 -22.474000 -13.824700
C -13.191200 -26.132400 -15.383800
C -13.136800 -25.134500 -14.148600
O -12.969700 -29.649300 -15.348100
O -12.946500 -27.400200 -11.441100
N -12.804700 -27.458700 -14.903900
N -12.677100 -25.791500 -12.923100
N -12.429900 -25.921400 -17.709400
N -12.259600 -22.873300 -13.851600
N -12.140400 -25.768600 -16.331300
N -12.051400 -24.183700 -14.331300
O -11.477600 -25.910100 -18.461900
C -11.330600 -27.529200 -14.892700
O -11.255100 -22.235400 -13.597400
C -11.223800 -26.008200 -12.961400
H -11.008300 -28.412700 -15.199400
C -10.874600 -26.355400 -15.841500
H -10.852900 -25.934100 -12.075300
N -10.837800 -27.259100 -13.566000
C -10.792100 -24.838000 -13.909300
O -10.442900 -29.428600 -13.272100
N -10.415000 -28.327500 -12.767300
H -10.325900 -26.685600 -16.559600
H -10.223600 -24.204800 -13.464000
N -10.116700 -25.407000 -15.048600
O -10.016500 -28.039000 -11.649300
N -9.259000 -24.533800 -15.756600
O -8.910600 -24.883500 -16.859900
O -8.903400 -23.529800 -15.154600
55
Fragment
O -15.063800 -35.363900 -15.113500
H -14.442600 -34.022600 -17.160400
H -13.924600 -35.494000 -17.476300
N -13.921600 -35.001400 -14.816600
C -13.668600 -34.584000 -17.171500
O -13.491500 -34.946900 -13.658300
N -13.107600 -34.634900 -15.823200
H -12.994200 -34.217700 -17.746300
C -11.686300 -34.503000 -15.551300
H -11.497200 -33.318300 -13.267000
H -11.447900 -35.063400 -14.789400
N -11.250000 -33.147300 -15.223900
H -11.230800 -34.780700 -16.361400
H -11.135700 -31.893900 -13.737700
C -10.931500 -32.772300 -13.852800
O -10.815500 -32.802600 -17.366600
N -10.626700 -32.450000 -16.204300
H -9.981400 -32.811300 -13.663400
O -9.933500 -31.485700 -15.883200
O -14.689200 -28.352600 -15.711400
O -14.676800 -26.639400 -12.541700
H -14.031900 -26.084400 -15.763100
H -13.968900 -24.727400 -14.020200
O -13.609800 -25.979500 -18.018000
N -13.533000 -28.576700 -15.387700
N -13.489500 -26.671200 -12.270300
O -13.410700 -22.474000 -13.824700
C -13.191200 -26.132400 -15.383800
C -13.136800 -25.134500 -14.148600
O -12.969700 -29.649300 -15.348100
O -12.946500 -27.400200 -11.441100
N -12.804700 -27.458700 -14.903900
N -12.677100 -25.791500 -12.923100
N -12.429900 -25.921400 -17.709400
N -12.259600 -22.873300 -13.851600
N -12.140400 -25.768600 -16.331300
N -12.051400 -24.183700 -14.331300
O -11.477600 -25.910100 -18.461900
C -11.330600 -27.529200 -14.892700
O -11.255100 -22.235400 -13.597400
C -11.223800 -26.008200 -12.961400
H -11.008300 -28.412700 -15.199400
C -10.874600 -26.355400 -15.841500
H -10.852900 -25.934100 -12.075300
N -10.837800 -27.259100 -13.566000
C -10.792100 -24.838000 -13.909300
O -10.442900 -29.428600 -13.272100
N -10.415000 -28.327500 -12.767300
H -10.325900 -26.685600 -16.559600
H -10.223600 -24.204800 -13.464000
N -10.116700 -25.407000 -15.048600
O -10.016500 -28.039000 -11.649300
N -9.259000 -24.533800 -15.756600
O -8.910600 -24.883500 -16.859900
O -8.903400 -23.529800 -15.154600
