19
Fragment
O -15.063800 -35.363900 -15.113500
H -14.442600 -34.022600 -17.160400
H -13.924600 -35.494000 -17.476300
N -13.921600 -35.001400 -14.816600
C -13.668600 -34.584000 -17.171500
O -13.491500 -34.946900 -13.658300
N -13.107600 -34.634900 -15.823200
H -12.994200 -34.217700 -17.746300
C -11.686300 -34.503000 -15.551300
H -11.497200 -33.318300 -13.267000
H -11.447900 -35.063400 -14.789400
N -11.250000 -33.147300 -15.223900
H -11.230800 -34.780700 -16.361400
H -11.135700 -31.893900 -13.737700
C -10.931500 -32.772300 -13.852800
O -10.815500 -32.802600 -17.366600
N -10.626700 -32.450000 -16.204300
H -9.981400 -32.811300 -13.663400
O -9.933500 -31.485700 -15.883200
36
Fragment
O -16.322300 -27.723600 -9.517700
O -16.309900 -29.436900 -6.348000
H -15.665000 -29.991800 -9.569300
H -15.602100 -31.348900 -7.826400
O -15.242900 -30.096800 -11.824200
N -15.166100 -27.499600 -9.194000
N -15.122600 -29.405000 -6.076600
O -15.043800 -33.602200 -7.630900
C -14.824300 -29.943800 -9.190000
C -14.769900 -30.941800 -7.954900
O -14.602800 -26.426900 -9.154400
O -14.579600 -28.676000 -5.247300
N -14.437800 -28.617500 -8.710100
N -14.310300 -30.284800 -6.729400
N -14.063000 -30.154900 -11.515700
N -13.892700 -33.203000 -7.657800
N -13.773500 -30.307600 -10.137500
N -13.684600 -31.892600 -8.137600
O -13.110700 -30.166100 -12.268200
C -12.963800 -28.547100 -8.699000
O -12.888200 -33.840900 -7.403600
C -12.856900 -30.068100 -6.767700
H -12.641400 -27.663500 -9.005700
C -12.507700 -29.720900 -9.647700
H -12.486000 -30.142100 -5.881600
N -12.470900 -28.817100 -7.372300
C -12.425200 -31.238300 -7.715500
O -12.076000 -26.647700 -7.078300
N -12.048100 -27.748800 -6.573500
H -11.959000 -29.390700 -10.365900
H -11.856700 -31.871500 -7.270200
N -11.749800 -30.669200 -8.854800
O -11.649600 -28.037200 -5.455600
N -10.892100 -31.542400 -9.562900
O -10.543700 -31.192800 -10.666100
O -10.536500 -32.546400 -8.960900
55
Fragment
O -15.063800 -35.363900 -15.113500
H -14.442600 -34.022600 -17.160400
H -13.924600 -35.494000 -17.476300
N -13.921600 -35.001400 -14.816600
C -13.668600 -34.584000 -17.171500
O -13.491500 -34.946900 -13.658300
N -13.107600 -34.634900 -15.823200
H -12.994200 -34.217700 -17.746300
C -11.686300 -34.503000 -15.551300
H -11.497200 -33.318300 -13.267000
H -11.447900 -35.063400 -14.789400
N -11.250000 -33.147300 -15.223900
H -11.230800 -34.780700 -16.361400
H -11.135700 -31.893900 -13.737700
C -10.931500 -32.772300 -13.852800
O -10.815500 -32.802600 -17.366600
N -10.626700 -32.450000 -16.204300
H -9.981400 -32.811300 -13.663400
O -9.933500 -31.485700 -15.883200
O -16.322300 -27.723600 -9.517700
O -16.309900 -29.436900 -6.348000
H -15.665000 -29.991800 -9.569300
H -15.602100 -31.348900 -7.826400
O -15.242900 -30.096800 -11.824200
N -15.166100 -27.499600 -9.194000
N -15.122600 -29.405000 -6.076600
O -15.043800 -33.602200 -7.630900
C -14.824300 -29.943800 -9.190000
C -14.769900 -30.941800 -7.954900
O -14.602800 -26.426900 -9.154400
O -14.579600 -28.676000 -5.247300
N -14.437800 -28.617500 -8.710100
N -14.310300 -30.284800 -6.729400
N -14.063000 -30.154900 -11.515700
N -13.892700 -33.203000 -7.657800
N -13.773500 -30.307600 -10.137500
N -13.684600 -31.892600 -8.137600
O -13.110700 -30.166100 -12.268200
C -12.963800 -28.547100 -8.699000
O -12.888200 -33.840900 -7.403600
C -12.856900 -30.068100 -6.767700
H -12.641400 -27.663500 -9.005700
C -12.507700 -29.720900 -9.647700
H -12.486000 -30.142100 -5.881600
N -12.470900 -28.817100 -7.372300
C -12.425200 -31.238300 -7.715500
O -12.076000 -26.647700 -7.078300
N -12.048100 -27.748800 -6.573500
H -11.959000 -29.390700 -10.365900
H -11.856700 -31.871500 -7.270200
N -11.749800 -30.669200 -8.854800
O -11.649600 -28.037200 -5.455600
N -10.892100 -31.542400 -9.562900
O -10.543700 -31.192800 -10.666100
O -10.536500 -32.546400 -8.960900
