19
Fragment
O -15.063800 -35.363900 -15.113500
H -14.442600 -34.022600 -17.160400
H -13.924600 -35.494000 -17.476300
N -13.921600 -35.001400 -14.816600
C -13.668600 -34.584000 -17.171500
O -13.491500 -34.946900 -13.658300
N -13.107600 -34.634900 -15.823200
H -12.994200 -34.217700 -17.746300
C -11.686300 -34.503000 -15.551300
H -11.497200 -33.318300 -13.267000
H -11.447900 -35.063400 -14.789400
N -11.250000 -33.147300 -15.223900
H -11.230800 -34.780700 -16.361400
H -11.135700 -31.893900 -13.737700
C -10.931500 -32.772300 -13.852800
O -10.815500 -32.802600 -17.366600
N -10.626700 -32.450000 -16.204300
H -9.981400 -32.811300 -13.663400
O -9.933500 -31.485700 -15.883200
36
Fragment
O -17.241300 -34.907900 -10.091300
O -17.137600 -35.771500 -8.091100
N -16.764000 -35.634700 -9.238300
N -15.698700 -36.462300 -9.662500
H -15.570700 -37.398400 -7.950300
H -15.507900 -35.534400 -11.417500
O -15.138100 -40.641600 -10.692800
C -14.986700 -37.190900 -8.644000
C -14.934700 -36.029400 -10.814300
N -14.837800 -39.689000 -11.380000
H -14.708000 -39.282500 -8.917800
O -14.704600 -39.661800 -12.592600
N -14.693000 -38.456900 -10.719600
O -14.671200 -36.389700 -6.067900
O -14.662300 -33.374300 -11.328900
H -14.512600 -37.391600 -12.393700
C -14.372800 -38.475000 -9.310400
C -14.274900 -37.304400 -11.472700
N -13.816100 -36.426700 -8.136000
N -13.791300 -35.207600 -10.396800
N -13.650600 -36.465900 -6.723700
N -13.641800 -33.928600 -10.972700
N -12.939900 -38.271400 -9.021800
N -12.819700 -37.082300 -11.337400
C -12.651900 -36.840100 -8.897600
C -12.624300 -36.077200 -10.291900
O -12.510400 -33.464100 -10.967800
O -12.509900 -36.489000 -6.294600
O -12.437600 -37.613700 -13.469900
O -12.361400 -40.198800 -9.958200
N -12.069100 -36.935200 -12.530900
N -11.989800 -39.095500 -9.599200
H -11.846400 -36.673900 -8.434600
H -11.802800 -35.637600 -10.400500
O -11.101100 -36.209600 -12.487300
O -10.854400 -38.636300 -9.666500
55
Fragment
O -15.063800 -35.363900 -15.113500
H -14.442600 -34.022600 -17.160400
H -13.924600 -35.494000 -17.476300
N -13.921600 -35.001400 -14.816600
C -13.668600 -34.584000 -17.171500
O -13.491500 -34.946900 -13.658300
N -13.107600 -34.634900 -15.823200
H -12.994200 -34.217700 -17.746300
C -11.686300 -34.503000 -15.551300
H -11.497200 -33.318300 -13.267000
H -11.447900 -35.063400 -14.789400
N -11.250000 -33.147300 -15.223900
H -11.230800 -34.780700 -16.361400
H -11.135700 -31.893900 -13.737700
C -10.931500 -32.772300 -13.852800
O -10.815500 -32.802600 -17.366600
N -10.626700 -32.450000 -16.204300
H -9.981400 -32.811300 -13.663400
O -9.933500 -31.485700 -15.883200
O -17.241300 -34.907900 -10.091300
O -17.137600 -35.771500 -8.091100
N -16.764000 -35.634700 -9.238300
N -15.698700 -36.462300 -9.662500
H -15.570700 -37.398400 -7.950300
H -15.507900 -35.534400 -11.417500
O -15.138100 -40.641600 -10.692800
C -14.986700 -37.190900 -8.644000
C -14.934700 -36.029400 -10.814300
N -14.837800 -39.689000 -11.380000
H -14.708000 -39.282500 -8.917800
O -14.704600 -39.661800 -12.592600
N -14.693000 -38.456900 -10.719600
O -14.671200 -36.389700 -6.067900
O -14.662300 -33.374300 -11.328900
H -14.512600 -37.391600 -12.393700
C -14.372800 -38.475000 -9.310400
C -14.274900 -37.304400 -11.472700
N -13.816100 -36.426700 -8.136000
N -13.791300 -35.207600 -10.396800
N -13.650600 -36.465900 -6.723700
N -13.641800 -33.928600 -10.972700
N -12.939900 -38.271400 -9.021800
N -12.819700 -37.082300 -11.337400
C -12.651900 -36.840100 -8.897600
C -12.624300 -36.077200 -10.291900
O -12.510400 -33.464100 -10.967800
O -12.509900 -36.489000 -6.294600
O -12.437600 -37.613700 -13.469900
O -12.361400 -40.198800 -9.958200
N -12.069100 -36.935200 -12.530900
N -11.989800 -39.095500 -9.599200
H -11.846400 -36.673900 -8.434600
H -11.802800 -35.637600 -10.400500
O -11.101100 -36.209600 -12.487300
O -10.854400 -38.636300 -9.666500
