25
Fragment
H -12.832200 -19.734400 -14.561400
H -12.383900 -18.369600 -15.189100
O -12.292700 -22.461900 -16.861400
C -12.110900 -19.104000 -14.634900
H -12.051400 -22.051400 -14.659400
H -11.880500 -18.778500 -13.762200
N -11.334100 -23.217100 -16.689800
H -11.149500 -20.084500 -16.142400
C -11.103600 -22.207100 -14.519600
H -11.000300 -22.647500 -13.661100
O -10.987700 -24.102800 -17.474900
C -10.912900 -19.781000 -15.251400
N -10.612700 -23.082200 -15.559200
N -10.413800 -20.922800 -14.480800
H -10.236200 -25.743000 -15.422800
H -10.199700 -19.129700 -15.343200
H -10.058400 -25.181100 -13.970400
C -9.650900 -25.258300 -14.835900
N -9.627300 -20.674500 -13.400000
C -9.401600 -23.889800 -15.396300
O -9.302000 -19.506400 -13.194300
O -9.264600 -21.634100 -12.713700
H -8.969300 -23.979200 -16.259800
H -8.816800 -25.728300 -14.756300
H -8.789400 -23.418600 -14.809400
25
Fragment
H -17.404100 -29.538600 -15.811700
H -17.376800 -31.848200 -15.864800
H -17.224300 -30.099100 -14.361300
O -16.929000 -27.754100 -17.907400
O -16.891500 -25.626300 -17.426800
C -16.792000 -30.009800 -15.224800
N -16.566200 -26.794500 -17.221100
C -16.542700 -31.378200 -15.785200
H -16.135100 -31.301100 -16.650800
H -15.993900 -25.249700 -15.277900
H -15.957400 -31.862900 -15.198300
N -15.779800 -27.042700 -16.140300
N -15.580900 -29.202200 -15.061900
C -15.280600 -25.901000 -15.369800
O -15.205800 -30.222800 -13.146300
H -15.193300 -28.767400 -16.960000
C -15.090000 -28.327000 -16.101500
H -15.044000 -26.204400 -14.478700
N -14.859500 -29.337100 -13.931300
H -14.313100 -24.898400 -16.859000
H -14.142100 -28.171400 -15.961800
C -14.082700 -25.224000 -15.986300
O -13.900900 -28.581900 -13.759700
H -13.809600 -24.489600 -15.432000
H -13.361400 -25.854300 -16.059800
50
Fragment
H -12.832200 -19.734400 -14.561400
H -12.383900 -18.369600 -15.189100
O -12.292700 -22.461900 -16.861400
C -12.110900 -19.104000 -14.634900
H -12.051400 -22.051400 -14.659400
H -11.880500 -18.778500 -13.762200
N -11.334100 -23.217100 -16.689800
H -11.149500 -20.084500 -16.142400
C -11.103600 -22.207100 -14.519600
H -11.000300 -22.647500 -13.661100
O -10.987700 -24.102800 -17.474900
C -10.912900 -19.781000 -15.251400
N -10.612700 -23.082200 -15.559200
N -10.413800 -20.922800 -14.480800
H -10.236200 -25.743000 -15.422800
H -10.199700 -19.129700 -15.343200
H -10.058400 -25.181100 -13.970400
C -9.650900 -25.258300 -14.835900
N -9.627300 -20.674500 -13.400000
C -9.401600 -23.889800 -15.396300
O -9.302000 -19.506400 -13.194300
O -9.264600 -21.634100 -12.713700
H -8.969300 -23.979200 -16.259800
H -8.816800 -25.728300 -14.756300
H -8.789400 -23.418600 -14.809400
H -17.404100 -29.538600 -15.811700
H -17.376800 -31.848200 -15.864800
H -17.224300 -30.099100 -14.361300
O -16.929000 -27.754100 -17.907400
O -16.891500 -25.626300 -17.426800
C -16.792000 -30.009800 -15.224800
N -16.566200 -26.794500 -17.221100
C -16.542700 -31.378200 -15.785200
H -16.135100 -31.301100 -16.650800
H -15.993900 -25.249700 -15.277900
H -15.957400 -31.862900 -15.198300
N -15.779800 -27.042700 -16.140300
N -15.580900 -29.202200 -15.061900
C -15.280600 -25.901000 -15.369800
O -15.205800 -30.222800 -13.146300
H -15.193300 -28.767400 -16.960000
C -15.090000 -28.327000 -16.101500
H -15.044000 -26.204400 -14.478700
N -14.859500 -29.337100 -13.931300
H -14.313100 -24.898400 -16.859000
H -14.142100 -28.171400 -15.961800
C -14.082700 -25.224000 -15.986300
O -13.900900 -28.581900 -13.759700
H -13.809600 -24.489600 -15.432000
H -13.361400 -25.854300 -16.059800
