25
Fragment
H -12.832200 -19.734400 -14.561400
H -12.383900 -18.369600 -15.189100
O -12.292700 -22.461900 -16.861400
C -12.110900 -19.104000 -14.634900
H -12.051400 -22.051400 -14.659400
H -11.880500 -18.778500 -13.762200
N -11.334100 -23.217100 -16.689800
H -11.149500 -20.084500 -16.142400
C -11.103600 -22.207100 -14.519600
H -11.000300 -22.647500 -13.661100
O -10.987700 -24.102800 -17.474900
C -10.912900 -19.781000 -15.251400
N -10.612700 -23.082200 -15.559200
N -10.413800 -20.922800 -14.480800
H -10.236200 -25.743000 -15.422800
H -10.199700 -19.129700 -15.343200
H -10.058400 -25.181100 -13.970400
C -9.650900 -25.258300 -14.835900
N -9.627300 -20.674500 -13.400000
C -9.401600 -23.889800 -15.396300
O -9.302000 -19.506400 -13.194300
O -9.264600 -21.634100 -12.713700
H -8.969300 -23.979200 -16.259800
H -8.816800 -25.728300 -14.756300
H -8.789400 -23.418600 -14.809400
36
Fragment
O -14.467200 -15.326300 -20.803800
O -14.056600 -14.877600 -18.717100
N -13.740800 -15.129700 -19.859700
H -12.610400 -15.061200 -22.089100
N -12.329900 -15.337800 -20.094600
O -12.061700 -18.241600 -21.280300
H -11.909300 -14.265600 -18.396200
C -11.874600 -15.034500 -21.442000
O -11.702900 -13.143400 -23.351000
O -11.591900 -15.840000 -16.798800
C -11.412600 -14.654100 -19.146000
N -11.367800 -13.685900 -21.258500
N -11.277700 -17.919000 -20.392900
N -11.240800 -12.814600 -22.268200
O -11.208100 -18.389700 -19.270800
H -10.908900 -16.533700 -22.658600
H -10.833000 -12.647500 -19.591400
C -10.707600 -16.041900 -21.835100
O -10.682700 -11.759200 -22.000900
C -10.681200 -13.536200 -19.976400
N -10.639900 -16.240400 -17.452400
N -10.423400 -15.582200 -18.680600
N -10.375500 -16.941900 -20.726100
O -9.843000 -17.091400 -17.133800
C -9.611700 -16.240300 -19.690700
N -9.458800 -15.297900 -21.936300
N -9.265300 -13.851700 -20.035300
O -9.041400 -16.349700 -23.887700
H -8.951700 -16.836000 -19.277000
C -8.905600 -15.139800 -20.570200
O -8.694600 -11.712200 -19.780200
N -8.547600 -15.769400 -22.946100
N -8.350400 -12.804400 -20.182800
H -7.933400 -15.260700 -20.569200
O -7.388500 -15.455100 -22.803700
O -7.272400 -13.100700 -20.656000
61
Fragment
H -12.832200 -19.734400 -14.561400
H -12.383900 -18.369600 -15.189100
O -12.292700 -22.461900 -16.861400
C -12.110900 -19.104000 -14.634900
H -12.051400 -22.051400 -14.659400
H -11.880500 -18.778500 -13.762200
N -11.334100 -23.217100 -16.689800
H -11.149500 -20.084500 -16.142400
C -11.103600 -22.207100 -14.519600
H -11.000300 -22.647500 -13.661100
O -10.987700 -24.102800 -17.474900
C -10.912900 -19.781000 -15.251400
N -10.612700 -23.082200 -15.559200
N -10.413800 -20.922800 -14.480800
H -10.236200 -25.743000 -15.422800
H -10.199700 -19.129700 -15.343200
H -10.058400 -25.181100 -13.970400
C -9.650900 -25.258300 -14.835900
N -9.627300 -20.674500 -13.400000
C -9.401600 -23.889800 -15.396300
O -9.302000 -19.506400 -13.194300
O -9.264600 -21.634100 -12.713700
H -8.969300 -23.979200 -16.259800
H -8.816800 -25.728300 -14.756300
H -8.789400 -23.418600 -14.809400
O -14.467200 -15.326300 -20.803800
O -14.056600 -14.877600 -18.717100
N -13.740800 -15.129700 -19.859700
H -12.610400 -15.061200 -22.089100
N -12.329900 -15.337800 -20.094600
O -12.061700 -18.241600 -21.280300
H -11.909300 -14.265600 -18.396200
C -11.874600 -15.034500 -21.442000
O -11.702900 -13.143400 -23.351000
O -11.591900 -15.840000 -16.798800
C -11.412600 -14.654100 -19.146000
N -11.367800 -13.685900 -21.258500
N -11.277700 -17.919000 -20.392900
N -11.240800 -12.814600 -22.268200
O -11.208100 -18.389700 -19.270800
H -10.908900 -16.533700 -22.658600
H -10.833000 -12.647500 -19.591400
C -10.707600 -16.041900 -21.835100
O -10.682700 -11.759200 -22.000900
C -10.681200 -13.536200 -19.976400
N -10.639900 -16.240400 -17.452400
N -10.423400 -15.582200 -18.680600
N -10.375500 -16.941900 -20.726100
O -9.843000 -17.091400 -17.133800
C -9.611700 -16.240300 -19.690700
N -9.458800 -15.297900 -21.936300
N -9.265300 -13.851700 -20.035300
O -9.041400 -16.349700 -23.887700
H -8.951700 -16.836000 -19.277000
C -8.905600 -15.139800 -20.570200
O -8.694600 -11.712200 -19.780200
N -8.547600 -15.769400 -22.946100
N -8.350400 -12.804400 -20.182800
H -7.933400 -15.260700 -20.569200
O -7.388500 -15.455100 -22.803700
O -7.272400 -13.100700 -20.656000
