25
Fragment
H -12.832200 -19.734400 -14.561400
H -12.383900 -18.369600 -15.189100
O -12.292700 -22.461900 -16.861400
C -12.110900 -19.104000 -14.634900
H -12.051400 -22.051400 -14.659400
H -11.880500 -18.778500 -13.762200
N -11.334100 -23.217100 -16.689800
H -11.149500 -20.084500 -16.142400
C -11.103600 -22.207100 -14.519600
H -11.000300 -22.647500 -13.661100
O -10.987700 -24.102800 -17.474900
C -10.912900 -19.781000 -15.251400
N -10.612700 -23.082200 -15.559200
N -10.413800 -20.922800 -14.480800
H -10.236200 -25.743000 -15.422800
H -10.199700 -19.129700 -15.343200
H -10.058400 -25.181100 -13.970400
C -9.650900 -25.258300 -14.835900
N -9.627300 -20.674500 -13.400000
C -9.401600 -23.889800 -15.396300
O -9.302000 -19.506400 -13.194300
O -9.264600 -21.634100 -12.713700
H -8.969300 -23.979200 -16.259800
H -8.816800 -25.728300 -14.756300
H -8.789400 -23.418600 -14.809400
25
Fragment
H -7.829600 -17.298700 -15.811700
H -7.802200 -19.608300 -15.864800
H -7.649700 -17.859200 -14.361300
O -7.354400 -15.514200 -17.907400
O -7.317000 -13.386400 -17.426800
C -7.217400 -17.769900 -15.224800
N -6.991700 -14.554600 -17.221100
C -6.968100 -19.138300 -15.785200
H -6.560600 -19.061200 -16.650800
H -6.419300 -13.009800 -15.277900
H -6.382800 -19.623000 -15.198300
N -6.205200 -14.802800 -16.140300
N -6.006300 -16.962300 -15.061900
C -5.706100 -13.661100 -15.369800
O -5.631300 -17.982900 -13.146300
H -5.618700 -16.527500 -16.960000
C -5.515400 -16.087100 -16.101500
H -5.469500 -13.964500 -14.478700
N -5.284900 -17.097200 -13.931300
H -4.738600 -12.658500 -16.859000
H -4.567600 -15.931500 -15.961800
C -4.508100 -12.984100 -15.986300
O -4.326300 -16.342000 -13.759700
H -4.235100 -12.249700 -15.432000
H -3.786800 -13.614400 -16.059800
50
Fragment
H -12.832200 -19.734400 -14.561400
H -12.383900 -18.369600 -15.189100
O -12.292700 -22.461900 -16.861400
C -12.110900 -19.104000 -14.634900
H -12.051400 -22.051400 -14.659400
H -11.880500 -18.778500 -13.762200
N -11.334100 -23.217100 -16.689800
H -11.149500 -20.084500 -16.142400
C -11.103600 -22.207100 -14.519600
H -11.000300 -22.647500 -13.661100
O -10.987700 -24.102800 -17.474900
C -10.912900 -19.781000 -15.251400
N -10.612700 -23.082200 -15.559200
N -10.413800 -20.922800 -14.480800
H -10.236200 -25.743000 -15.422800
H -10.199700 -19.129700 -15.343200
H -10.058400 -25.181100 -13.970400
C -9.650900 -25.258300 -14.835900
N -9.627300 -20.674500 -13.400000
C -9.401600 -23.889800 -15.396300
O -9.302000 -19.506400 -13.194300
O -9.264600 -21.634100 -12.713700
H -8.969300 -23.979200 -16.259800
H -8.816800 -25.728300 -14.756300
H -8.789400 -23.418600 -14.809400
H -7.829600 -17.298700 -15.811700
H -7.802200 -19.608300 -15.864800
H -7.649700 -17.859200 -14.361300
O -7.354400 -15.514200 -17.907400
O -7.317000 -13.386400 -17.426800
C -7.217400 -17.769900 -15.224800
N -6.991700 -14.554600 -17.221100
C -6.968100 -19.138300 -15.785200
H -6.560600 -19.061200 -16.650800
H -6.419300 -13.009800 -15.277900
H -6.382800 -19.623000 -15.198300
N -6.205200 -14.802800 -16.140300
N -6.006300 -16.962300 -15.061900
C -5.706100 -13.661100 -15.369800
O -5.631300 -17.982900 -13.146300
H -5.618700 -16.527500 -16.960000
C -5.515400 -16.087100 -16.101500
H -5.469500 -13.964500 -14.478700
N -5.284900 -17.097200 -13.931300
H -4.738600 -12.658500 -16.859000
H -4.567600 -15.931500 -15.961800
C -4.508100 -12.984100 -15.986300
O -4.326300 -16.342000 -13.759700
H -4.235100 -12.249700 -15.432000
H -3.786800 -13.614400 -16.059800
