19
Fragment
O -15.889400 -19.747900 -28.597300
H -15.757000 -17.145800 -26.614100
H -15.715000 -17.339700 -29.020100
H -15.460300 -15.860300 -27.450900
C -15.103600 -16.726800 -27.195100
C -14.990900 -19.005100 -28.146700
C -14.980800 -17.551600 -28.421600
H -14.155200 -17.322400 -28.875700
H -14.089700 -20.316100 -27.193400
H -14.064600 -15.950800 -25.624200
N -14.031600 -19.487600 -27.416100
C -13.844200 -16.497000 -26.394900
H -13.700200 -18.181400 -25.227500
H -13.220900 -15.992800 -26.941100
C -13.144000 -17.765600 -25.906000
C -12.859400 -18.751600 -26.939400
H -12.448300 -18.300700 -27.692700
H -12.309300 -17.512700 -25.483300
H -12.215700 -19.387700 -26.591400
36
Fragment
O -16.462000 -14.478600 -19.338600
O -15.951900 -16.711100 -21.983000
H -15.694300 -14.492200 -21.452300
N -15.312700 -14.361300 -18.966300
O -15.168000 -11.280100 -20.838200
O -14.869300 -14.333500 -17.821600
H -14.802700 -12.816000 -22.804100
N -14.768200 -16.838500 -21.789900
C -14.723200 -14.405800 -21.349700
N -14.329300 -14.122900 -19.980600
O -14.125700 -17.872500 -21.788100
C -14.111100 -13.264500 -22.275200
N -14.013100 -15.647200 -21.666300
N -13.973800 -11.450900 -20.669500
O -13.871900 -12.755700 -24.879600
N -13.305000 -12.309100 -21.513200
O -13.281600 -10.902600 -19.803100
N -13.054500 -13.807800 -23.113800
C -12.981600 -14.645300 -19.766600
N -12.936200 -13.331400 -24.435900
H -12.907100 -15.087900 -18.896700
C -12.758000 -15.666000 -20.946100
H -12.576400 -16.562800 -20.594700
C -12.012600 -12.874800 -21.147900
N -12.011300 -13.590100 -19.898800
O -11.907500 -13.590700 -25.011800
C -11.806000 -13.886600 -22.323900
O -11.767700 -13.522200 -17.685900
N -11.655500 -15.207900 -21.760300
N -11.464400 -13.005800 -18.752300
H -11.315700 -12.185400 -21.154900
O -11.183000 -17.321700 -22.245700
N -11.035500 -16.169600 -22.567500
H -11.027900 -13.641500 -22.868500
O -10.715100 -12.068600 -18.917600
O -10.351000 -15.769500 -23.475600
55
Fragment
O -15.889400 -19.747900 -28.597300
H -15.757000 -17.145800 -26.614100
H -15.715000 -17.339700 -29.020100
H -15.460300 -15.860300 -27.450900
C -15.103600 -16.726800 -27.195100
C -14.990900 -19.005100 -28.146700
C -14.980800 -17.551600 -28.421600
H -14.155200 -17.322400 -28.875700
H -14.089700 -20.316100 -27.193400
H -14.064600 -15.950800 -25.624200
N -14.031600 -19.487600 -27.416100
C -13.844200 -16.497000 -26.394900
H -13.700200 -18.181400 -25.227500
H -13.220900 -15.992800 -26.941100
C -13.144000 -17.765600 -25.906000
C -12.859400 -18.751600 -26.939400
H -12.448300 -18.300700 -27.692700
H -12.309300 -17.512700 -25.483300
H -12.215700 -19.387700 -26.591400
O -16.462000 -14.478600 -19.338600
O -15.951900 -16.711100 -21.983000
H -15.694300 -14.492200 -21.452300
N -15.312700 -14.361300 -18.966300
O -15.168000 -11.280100 -20.838200
O -14.869300 -14.333500 -17.821600
H -14.802700 -12.816000 -22.804100
N -14.768200 -16.838500 -21.789900
C -14.723200 -14.405800 -21.349700
N -14.329300 -14.122900 -19.980600
O -14.125700 -17.872500 -21.788100
C -14.111100 -13.264500 -22.275200
N -14.013100 -15.647200 -21.666300
N -13.973800 -11.450900 -20.669500
O -13.871900 -12.755700 -24.879600
N -13.305000 -12.309100 -21.513200
O -13.281600 -10.902600 -19.803100
N -13.054500 -13.807800 -23.113800
C -12.981600 -14.645300 -19.766600
N -12.936200 -13.331400 -24.435900
H -12.907100 -15.087900 -18.896700
C -12.758000 -15.666000 -20.946100
H -12.576400 -16.562800 -20.594700
C -12.012600 -12.874800 -21.147900
N -12.011300 -13.590100 -19.898800
O -11.907500 -13.590700 -25.011800
C -11.806000 -13.886600 -22.323900
O -11.767700 -13.522200 -17.685900
N -11.655500 -15.207900 -21.760300
N -11.464400 -13.005800 -18.752300
H -11.315700 -12.185400 -21.154900
O -11.183000 -17.321700 -22.245700
N -11.035500 -16.169600 -22.567500
H -11.027900 -13.641500 -22.868500
O -10.715100 -12.068600 -18.917600
O -10.351000 -15.769500 -23.475600
