19
Fragment
O -15.889400 -19.747900 -28.597300
H -15.757000 -17.145800 -26.614100
H -15.715000 -17.339700 -29.020100
H -15.460300 -15.860300 -27.450900
C -15.103600 -16.726800 -27.195100
C -14.990900 -19.005100 -28.146700
C -14.980800 -17.551600 -28.421600
H -14.155200 -17.322400 -28.875700
H -14.089700 -20.316100 -27.193400
H -14.064600 -15.950800 -25.624200
N -14.031600 -19.487600 -27.416100
C -13.844200 -16.497000 -26.394900
H -13.700200 -18.181400 -25.227500
H -13.220900 -15.992800 -26.941100
C -13.144000 -17.765600 -25.906000
C -12.859400 -18.751600 -26.939400
H -12.448300 -18.300700 -27.692700
H -12.309300 -17.512700 -25.483300
H -12.215700 -19.387700 -26.591400
19
Fragment
H -11.855800 -22.779400 -27.595300
H -11.530600 -24.794500 -26.829800
H -11.098300 -25.264800 -29.143600
N -11.057400 -23.070500 -27.731000
C -10.762800 -24.444600 -27.309900
O -10.549500 -21.088100 -28.646000
H -10.512400 -26.294200 -28.122400
C -10.434200 -25.382900 -28.446000
C -10.191300 -22.229300 -28.308500
H -10.014300 -24.427500 -26.694100
H -9.440000 -23.638500 -30.295300
C -9.067100 -25.209000 -29.053100
H -8.962800 -25.856200 -29.768200
C -8.818200 -22.728600 -28.555600
C -8.785100 -23.838900 -29.608100
H -8.448200 -23.066200 -27.724000
H -8.401400 -25.410100 -28.378100
H -8.260300 -21.992600 -28.851300
H -7.910700 -23.845700 -30.027400
38
Fragment
O -15.889400 -19.747900 -28.597300
H -15.757000 -17.145800 -26.614100
H -15.715000 -17.339700 -29.020100
H -15.460300 -15.860300 -27.450900
C -15.103600 -16.726800 -27.195100
C -14.990900 -19.005100 -28.146700
C -14.980800 -17.551600 -28.421600
H -14.155200 -17.322400 -28.875700
H -14.089700 -20.316100 -27.193400
H -14.064600 -15.950800 -25.624200
N -14.031600 -19.487600 -27.416100
C -13.844200 -16.497000 -26.394900
H -13.700200 -18.181400 -25.227500
H -13.220900 -15.992800 -26.941100
C -13.144000 -17.765600 -25.906000
C -12.859400 -18.751600 -26.939400
H -12.448300 -18.300700 -27.692700
H -12.309300 -17.512700 -25.483300
H -12.215700 -19.387700 -26.591400
H -11.855800 -22.779400 -27.595300
H -11.530600 -24.794500 -26.829800
H -11.098300 -25.264800 -29.143600
N -11.057400 -23.070500 -27.731000
C -10.762800 -24.444600 -27.309900
O -10.549500 -21.088100 -28.646000
H -10.512400 -26.294200 -28.122400
C -10.434200 -25.382900 -28.446000
C -10.191300 -22.229300 -28.308500
H -10.014300 -24.427500 -26.694100
H -9.440000 -23.638500 -30.295300
C -9.067100 -25.209000 -29.053100
H -8.962800 -25.856200 -29.768200
C -8.818200 -22.728600 -28.555600
C -8.785100 -23.838900 -29.608100
H -8.448200 -23.066200 -27.724000
H -8.401400 -25.410100 -28.378100
H -8.260300 -21.992600 -28.851300
H -7.910700 -23.845700 -30.027400
