19
Fragment
O -15.889400 -19.747900 -28.597300
H -15.757000 -17.145800 -26.614100
H -15.715000 -17.339700 -29.020100
H -15.460300 -15.860300 -27.450900
C -15.103600 -16.726800 -27.195100
C -14.990900 -19.005100 -28.146700
C -14.980800 -17.551600 -28.421600
H -14.155200 -17.322400 -28.875700
H -14.089700 -20.316100 -27.193400
H -14.064600 -15.950800 -25.624200
N -14.031600 -19.487600 -27.416100
C -13.844200 -16.497000 -26.394900
H -13.700200 -18.181400 -25.227500
H -13.220900 -15.992800 -26.941100
C -13.144000 -17.765600 -25.906000
C -12.859400 -18.751600 -26.939400
H -12.448300 -18.300700 -27.692700
H -12.309300 -17.512700 -25.483300
H -12.215700 -19.387700 -26.591400
19
Fragment
H -15.320100 -22.162200 -32.732600
H -14.993300 -19.851500 -31.638300
H -14.903100 -20.241400 -33.846000
C -14.416300 -22.016000 -33.051000
H -14.346000 -22.000100 -30.457100
H -14.330600 -22.462700 -33.908700
H -14.260200 -18.781800 -32.497800
C -14.206800 -20.553500 -33.247600
C -14.185300 -19.682700 -32.146300
H -13.651600 -23.591500 -32.003700
C -13.443300 -22.646800 -32.073300
C -13.427200 -22.094300 -30.754600
H -13.363900 -20.443700 -33.717300
C -13.071100 -19.675200 -31.186000
H -13.000500 -22.736900 -30.164800
N -12.774600 -20.833100 -30.577100
H -12.549600 -22.573600 -32.442100
O -12.422500 -18.666500 -30.930300
H -12.120400 -20.816300 -30.018700
38
Fragment
O -15.889400 -19.747900 -28.597300
H -15.757000 -17.145800 -26.614100
H -15.715000 -17.339700 -29.020100
H -15.460300 -15.860300 -27.450900
C -15.103600 -16.726800 -27.195100
C -14.990900 -19.005100 -28.146700
C -14.980800 -17.551600 -28.421600
H -14.155200 -17.322400 -28.875700
H -14.089700 -20.316100 -27.193400
H -14.064600 -15.950800 -25.624200
N -14.031600 -19.487600 -27.416100
C -13.844200 -16.497000 -26.394900
H -13.700200 -18.181400 -25.227500
H -13.220900 -15.992800 -26.941100
C -13.144000 -17.765600 -25.906000
C -12.859400 -18.751600 -26.939400
H -12.448300 -18.300700 -27.692700
H -12.309300 -17.512700 -25.483300
H -12.215700 -19.387700 -26.591400
H -15.320100 -22.162200 -32.732600
H -14.993300 -19.851500 -31.638300
H -14.903100 -20.241400 -33.846000
C -14.416300 -22.016000 -33.051000
H -14.346000 -22.000100 -30.457100
H -14.330600 -22.462700 -33.908700
H -14.260200 -18.781800 -32.497800
C -14.206800 -20.553500 -33.247600
C -14.185300 -19.682700 -32.146300
H -13.651600 -23.591500 -32.003700
C -13.443300 -22.646800 -32.073300
C -13.427200 -22.094300 -30.754600
H -13.363900 -20.443700 -33.717300
C -13.071100 -19.675200 -31.186000
H -13.000500 -22.736900 -30.164800
N -12.774600 -20.833100 -30.577100
H -12.549600 -22.573600 -32.442100
O -12.422500 -18.666500 -30.930300
H -12.120400 -20.816300 -30.018700
