19
Fragment
O -15.889400 -19.747900 -28.597300
H -15.757000 -17.145800 -26.614100
H -15.715000 -17.339700 -29.020100
H -15.460300 -15.860300 -27.450900
C -15.103600 -16.726800 -27.195100
C -14.990900 -19.005100 -28.146700
C -14.980800 -17.551600 -28.421600
H -14.155200 -17.322400 -28.875700
H -14.089700 -20.316100 -27.193400
H -14.064600 -15.950800 -25.624200
N -14.031600 -19.487600 -27.416100
C -13.844200 -16.497000 -26.394900
H -13.700200 -18.181400 -25.227500
H -13.220900 -15.992800 -26.941100
C -13.144000 -17.765600 -25.906000
C -12.859400 -18.751600 -26.939400
H -12.448300 -18.300700 -27.692700
H -12.309300 -17.512700 -25.483300
H -12.215700 -19.387700 -26.591400
36
Fragment
O -11.000400 -16.445900 -28.715600
O -10.636300 -20.146900 -33.273700
H -10.323400 -18.573900 -29.322800
N -10.315800 -16.045900 -29.623800
O -10.168400 -14.893700 -29.945600
H -10.035600 -20.030000 -31.036400
N -9.887000 -19.209700 -33.438900
N -9.695900 -17.007500 -30.431000
O -9.583700 -18.693300 -34.505400
C -9.545400 -18.328800 -29.867300
O -9.443900 -18.624800 -27.179500
N -9.340100 -18.625300 -32.292500
C -9.338700 -19.340600 -31.043400
H -8.775000 -15.652700 -31.596600
C -8.593400 -16.549500 -31.245200
H -8.444300 -17.127500 -33.294500
N -8.415200 -18.884000 -27.755300
C -8.369800 -17.570200 -32.424700
N -8.296900 -18.407600 -29.077500
O -8.069800 -21.312800 -32.388200
N -8.046400 -19.906300 -30.678000
O -7.479500 -19.459700 -27.311700
N -7.377600 -20.764500 -31.521800
N -7.338300 -16.568200 -30.524900
C -7.240300 -18.950900 -29.916000
O -7.225700 -14.342900 -30.403200
N -7.022000 -18.092500 -32.210700
C -6.628200 -17.809700 -30.841600
N -6.583200 -15.376900 -30.401400
H -6.548700 -19.399500 -29.387200
O -6.482100 -17.881900 -34.369700
O -6.183400 -20.935400 -31.353000
N -6.038600 -17.854100 -33.225000
H -5.657100 -17.723300 -30.738900
O -5.399400 -15.504300 -30.208300
O -4.889400 -17.736800 -32.852700
55
Fragment
O -15.889400 -19.747900 -28.597300
H -15.757000 -17.145800 -26.614100
H -15.715000 -17.339700 -29.020100
H -15.460300 -15.860300 -27.450900
C -15.103600 -16.726800 -27.195100
C -14.990900 -19.005100 -28.146700
C -14.980800 -17.551600 -28.421600
H -14.155200 -17.322400 -28.875700
H -14.089700 -20.316100 -27.193400
H -14.064600 -15.950800 -25.624200
N -14.031600 -19.487600 -27.416100
C -13.844200 -16.497000 -26.394900
H -13.700200 -18.181400 -25.227500
H -13.220900 -15.992800 -26.941100
C -13.144000 -17.765600 -25.906000
C -12.859400 -18.751600 -26.939400
H -12.448300 -18.300700 -27.692700
H -12.309300 -17.512700 -25.483300
H -12.215700 -19.387700 -26.591400
O -11.000400 -16.445900 -28.715600
O -10.636300 -20.146900 -33.273700
H -10.323400 -18.573900 -29.322800
N -10.315800 -16.045900 -29.623800
O -10.168400 -14.893700 -29.945600
H -10.035600 -20.030000 -31.036400
N -9.887000 -19.209700 -33.438900
N -9.695900 -17.007500 -30.431000
O -9.583700 -18.693300 -34.505400
C -9.545400 -18.328800 -29.867300
O -9.443900 -18.624800 -27.179500
N -9.340100 -18.625300 -32.292500
C -9.338700 -19.340600 -31.043400
H -8.775000 -15.652700 -31.596600
C -8.593400 -16.549500 -31.245200
H -8.444300 -17.127500 -33.294500
N -8.415200 -18.884000 -27.755300
C -8.369800 -17.570200 -32.424700
N -8.296900 -18.407600 -29.077500
O -8.069800 -21.312800 -32.388200
N -8.046400 -19.906300 -30.678000
O -7.479500 -19.459700 -27.311700
N -7.377600 -20.764500 -31.521800
N -7.338300 -16.568200 -30.524900
C -7.240300 -18.950900 -29.916000
O -7.225700 -14.342900 -30.403200
N -7.022000 -18.092500 -32.210700
C -6.628200 -17.809700 -30.841600
N -6.583200 -15.376900 -30.401400
H -6.548700 -19.399500 -29.387200
O -6.482100 -17.881900 -34.369700
O -6.183400 -20.935400 -31.353000
N -6.038600 -17.854100 -33.225000
H -5.657100 -17.723300 -30.738900
O -5.399400 -15.504300 -30.208300
O -4.889400 -17.736800 -32.852700
