36
Fragment
O -15.025300 -13.130900 -13.878800
O -14.712500 -9.911900 -13.946100
O -14.085200 -14.376700 -15.399900
N -14.083900 -13.526800 -14.537400
N -13.784500 -9.898500 -14.750600
O -13.687600 -9.234400 -15.755400
H -13.573500 -11.616300 -12.893500
C -12.807900 -11.735500 -13.420100
N -12.795800 -12.983700 -14.194400
N -12.660000 -10.683100 -14.413300
H -12.304300 -13.129900 -16.172800
H -12.104200 -10.882400 -16.278500
C -11.921100 -12.749200 -15.368800
O -11.894100 -14.154400 -11.343000
H -11.844000 -11.673600 -11.577200
C -11.815000 -11.189700 -15.489900
C -11.523200 -11.736700 -12.478700
N -11.055400 -14.147100 -12.242500
O -10.933300 -14.879400 -16.592400
N -10.670300 -12.912100 -12.699400
O -10.660000 -9.223400 -16.832300
N -10.606500 -10.693400 -12.904100
N -10.599600 -13.273900 -15.105200
O -10.500300 -15.118600 -12.735600
O -10.464200 -9.957900 -10.789100
N -10.427900 -10.808900 -15.292900
N -10.195800 -14.449400 -15.733200
N -10.023300 -9.607900 -15.871900
N -9.904300 -10.021000 -11.865700
C -9.902700 -12.776800 -13.938400
C -9.815100 -11.204600 -14.039500
O -9.105800 -14.907800 -15.404800
H -9.029600 -13.256100 -13.880800
O -9.027300 -9.074900 -15.403700
H -8.912000 -10.859400 -13.998400
O -8.841600 -9.517000 -12.179800
16
Fragment
N -17.187900 -12.079500 -5.812700
N -17.122200 -12.405200 -10.298000
O -17.042100 -12.224000 -8.055200
C -16.423600 -12.119700 -6.860500
C -16.383900 -12.258400 -9.238200
O -16.317600 -11.953900 -4.746300
O -16.223200 -12.391500 -11.343400
C -15.051200 -12.027900 -6.471500
C -15.010500 -12.163300 -9.604900
N -15.000100 -11.927000 -5.178300
N -14.927700 -12.244700 -10.901700
C -13.867300 -12.023400 -7.315400
C -13.849500 -12.044000 -8.726900
N -12.641400 -11.966000 -6.864700
N -12.608400 -11.983200 -9.139400
O -11.853900 -11.935100 -7.991900
52
Fragment
O -15.025300 -13.130900 -13.878800
O -14.712500 -9.911900 -13.946100
O -14.085200 -14.376700 -15.399900
N -14.083900 -13.526800 -14.537400
N -13.784500 -9.898500 -14.750600
O -13.687600 -9.234400 -15.755400
H -13.573500 -11.616300 -12.893500
C -12.807900 -11.735500 -13.420100
N -12.795800 -12.983700 -14.194400
N -12.660000 -10.683100 -14.413300
H -12.304300 -13.129900 -16.172800
H -12.104200 -10.882400 -16.278500
C -11.921100 -12.749200 -15.368800
O -11.894100 -14.154400 -11.343000
H -11.844000 -11.673600 -11.577200
C -11.815000 -11.189700 -15.489900
C -11.523200 -11.736700 -12.478700
N -11.055400 -14.147100 -12.242500
O -10.933300 -14.879400 -16.592400
N -10.670300 -12.912100 -12.699400
O -10.660000 -9.223400 -16.832300
N -10.606500 -10.693400 -12.904100
N -10.599600 -13.273900 -15.105200
O -10.500300 -15.118600 -12.735600
O -10.464200 -9.957900 -10.789100
N -10.427900 -10.808900 -15.292900
N -10.195800 -14.449400 -15.733200
N -10.023300 -9.607900 -15.871900
N -9.904300 -10.021000 -11.865700
C -9.902700 -12.776800 -13.938400
C -9.815100 -11.204600 -14.039500
O -9.105800 -14.907800 -15.404800
H -9.029600 -13.256100 -13.880800
O -9.027300 -9.074900 -15.403700
H -8.912000 -10.859400 -13.998400
O -8.841600 -9.517000 -12.179800
N -17.187900 -12.079500 -5.812700
N -17.122200 -12.405200 -10.298000
O -17.042100 -12.224000 -8.055200
C -16.423600 -12.119700 -6.860500
C -16.383900 -12.258400 -9.238200
O -16.317600 -11.953900 -4.746300
O -16.223200 -12.391500 -11.343400
C -15.051200 -12.027900 -6.471500
C -15.010500 -12.163300 -9.604900
N -15.000100 -11.927000 -5.178300
N -14.927700 -12.244700 -10.901700
C -13.867300 -12.023400 -7.315400
C -13.849500 -12.044000 -8.726900
N -12.641400 -11.966000 -6.864700
N -12.608400 -11.983200 -9.139400
O -11.853900 -11.935100 -7.991900
