16
Fragment
H -7.859200 -16.761000 -26.647900
H -7.792900 -14.314600 -27.007800
C -7.334900 -16.300700 -27.292400
C -7.294600 -14.958100 -27.497500
H -6.862200 -18.800000 -27.802000
N -6.470700 -16.862000 -28.197900
N -6.423600 -14.673700 -28.521000
H -6.356300 -18.547500 -29.298800
C -6.231100 -18.298700 -28.359000
C -5.939200 -15.848200 -28.923600
H -5.313900 -18.509200 -28.084100
C -4.966800 -15.938100 -29.994900
H -4.722800 -15.143200 -30.454700
N -4.424100 -17.034600 -30.349100
O -3.535200 -16.820100 -31.410700
H -3.206800 -17.572200 -31.605400
16
Fragment
H -3.374100 -16.761000 -26.647900
H -3.307800 -14.314600 -27.007800
C -2.849800 -16.300700 -27.292400
C -2.809500 -14.958100 -27.497500
H -2.377100 -18.800000 -27.802000
N -1.985600 -16.862000 -28.197900
N -1.938500 -14.673700 -28.521000
H -1.871200 -18.547500 -29.298800
C -1.746000 -18.298700 -28.359000
C -1.454100 -15.848200 -28.923600
H -0.828800 -18.509200 -28.084100
C -0.481700 -15.938100 -29.994900
H -0.237700 -15.143200 -30.454700
N 0.061000 -17.034600 -30.349100
O 0.949900 -16.820100 -31.410700
H 1.278300 -17.572200 -31.605400
32
Fragment
H -7.859200 -16.761000 -26.647900
H -7.792900 -14.314600 -27.007800
C -7.334900 -16.300700 -27.292400
C -7.294600 -14.958100 -27.497500
H -6.862200 -18.800000 -27.802000
N -6.470700 -16.862000 -28.197900
N -6.423600 -14.673700 -28.521000
H -6.356300 -18.547500 -29.298800
C -6.231100 -18.298700 -28.359000
C -5.939200 -15.848200 -28.923600
H -5.313900 -18.509200 -28.084100
C -4.966800 -15.938100 -29.994900
H -4.722800 -15.143200 -30.454700
N -4.424100 -17.034600 -30.349100
O -3.535200 -16.820100 -31.410700
H -3.206800 -17.572200 -31.605400
H -3.374100 -16.761000 -26.647900
H -3.307800 -14.314600 -27.007800
C -2.849800 -16.300700 -27.292400
C -2.809500 -14.958100 -27.497500
H -2.377100 -18.800000 -27.802000
N -1.985600 -16.862000 -28.197900
N -1.938500 -14.673700 -28.521000
H -1.871200 -18.547500 -29.298800
C -1.746000 -18.298700 -28.359000
C -1.454100 -15.848200 -28.923600
H -0.828800 -18.509200 -28.084100
C -0.481700 -15.938100 -29.994900
H -0.237700 -15.143200 -30.454700
N 0.061000 -17.034600 -30.349100
O 0.949900 -16.820100 -31.410700
H 1.278300 -17.572200 -31.605400
