16
Fragment
H -7.859200 -16.761000 -26.647900
H -7.792900 -14.314600 -27.007800
C -7.334900 -16.300700 -27.292400
C -7.294600 -14.958100 -27.497500
H -6.862200 -18.800000 -27.802000
N -6.470700 -16.862000 -28.197900
N -6.423600 -14.673700 -28.521000
H -6.356300 -18.547500 -29.298800
C -6.231100 -18.298700 -28.359000
C -5.939200 -15.848200 -28.923600
H -5.313900 -18.509200 -28.084100
C -4.966800 -15.938100 -29.994900
H -4.722800 -15.143200 -30.454700
N -4.424100 -17.034600 -30.349100
O -3.535200 -16.820100 -31.410700
H -3.206800 -17.572200 -31.605400
3
Fragment
H -7.140300 -20.307600 -25.734200
H -6.732100 -20.061500 -24.493500
O -6.446900 -20.211800 -25.269800
19
Fragment
H -7.859200 -16.761000 -26.647900
H -7.792900 -14.314600 -27.007800
C -7.334900 -16.300700 -27.292400
C -7.294600 -14.958100 -27.497500
H -6.862200 -18.800000 -27.802000
N -6.470700 -16.862000 -28.197900
N -6.423600 -14.673700 -28.521000
H -6.356300 -18.547500 -29.298800
C -6.231100 -18.298700 -28.359000
C -5.939200 -15.848200 -28.923600
H -5.313900 -18.509200 -28.084100
C -4.966800 -15.938100 -29.994900
H -4.722800 -15.143200 -30.454700
N -4.424100 -17.034600 -30.349100
O -3.535200 -16.820100 -31.410700
H -3.206800 -17.572200 -31.605400
H -7.140300 -20.307600 -25.734200
H -6.732100 -20.061500 -24.493500
O -6.446900 -20.211800 -25.269800
