16
Fragment
H -7.859200 -16.761000 -26.647900
H -7.792900 -14.314600 -27.007800
C -7.334900 -16.300700 -27.292400
C -7.294600 -14.958100 -27.497500
H -6.862200 -18.800000 -27.802000
N -6.470700 -16.862000 -28.197900
N -6.423600 -14.673700 -28.521000
H -6.356300 -18.547500 -29.298800
C -6.231100 -18.298700 -28.359000
C -5.939200 -15.848200 -28.923600
H -5.313900 -18.509200 -28.084100
C -4.966800 -15.938100 -29.994900
H -4.722800 -15.143200 -30.454700
N -4.424100 -17.034600 -30.349100
O -3.535200 -16.820100 -31.410700
H -3.206800 -17.572200 -31.605400
16
Fragment
H -5.763400 -13.014900 -28.957900
O -5.435000 -12.262700 -29.152600
N -4.546100 -12.477200 -30.214200
H -4.247400 -10.585800 -30.108600
C -4.003400 -11.380800 -30.568400
H -3.656300 -13.951900 -32.479200
C -3.031000 -11.290800 -31.639700
C -2.739100 -13.741300 -32.204300
H -2.613900 -13.990200 -31.264500
N -2.546600 -10.116300 -32.042300
N -2.499500 -12.304700 -32.365400
H -2.108000 -14.242600 -32.761300
C -1.675600 -10.400800 -33.065800
C -1.635300 -11.743400 -33.270900
H -1.177300 -9.757300 -33.555500
H -1.111000 -12.203700 -33.915400
32
Fragment
H -7.859200 -16.761000 -26.647900
H -7.792900 -14.314600 -27.007800
C -7.334900 -16.300700 -27.292400
C -7.294600 -14.958100 -27.497500
H -6.862200 -18.800000 -27.802000
N -6.470700 -16.862000 -28.197900
N -6.423600 -14.673700 -28.521000
H -6.356300 -18.547500 -29.298800
C -6.231100 -18.298700 -28.359000
C -5.939200 -15.848200 -28.923600
H -5.313900 -18.509200 -28.084100
C -4.966800 -15.938100 -29.994900
H -4.722800 -15.143200 -30.454700
N -4.424100 -17.034600 -30.349100
O -3.535200 -16.820100 -31.410700
H -3.206800 -17.572200 -31.605400
H -5.763400 -13.014900 -28.957900
O -5.435000 -12.262700 -29.152600
N -4.546100 -12.477200 -30.214200
H -4.247400 -10.585800 -30.108600
C -4.003400 -11.380800 -30.568400
H -3.656300 -13.951900 -32.479200
C -3.031000 -11.290800 -31.639700
C -2.739100 -13.741300 -32.204300
H -2.613900 -13.990200 -31.264500
N -2.546600 -10.116300 -32.042300
N -2.499500 -12.304700 -32.365400
H -2.108000 -14.242600 -32.761300
C -1.675600 -10.400800 -33.065800
C -1.635300 -11.743400 -33.270900
H -1.177300 -9.757300 -33.555500
H -1.111000 -12.203700 -33.915400
