15
Fragment
O -10.637000 -36.590800 -14.933600
O -10.569100 -35.407400 -13.140100
N -10.339800 -36.445900 -13.753500
H -9.757200 -38.872500 -14.580800
C -9.720300 -37.536600 -13.057000
C -9.518600 -38.756900 -13.689500
H -9.470000 -36.556300 -11.354000
C -9.346700 -37.385100 -11.759800
C -8.970900 -39.771300 -12.991100
H -8.816300 -40.593100 -13.397000
N -8.812900 -38.368600 -11.048700
C -8.636900 -39.571100 -11.640100
N -8.160100 -40.549900 -10.897900
H -8.034600 -41.328200 -11.240600
H -7.973600 -40.408800 -10.069700
23
Fragment
H -14.409700 -37.988500 -18.485800
O -14.321900 -39.858300 -17.213300
O -14.171600 -37.715600 -17.749900
C -14.106300 -38.707700 -16.923600
C -13.742600 -38.240000 -15.528700
O -13.495900 -39.426500 -14.776400
H -13.428900 -37.303100 -13.202300
C -13.115200 -38.076200 -12.791000
C -13.093900 -39.253500 -13.470100
H -12.953200 -36.048100 -11.128200
H -12.690800 -41.240700 -13.312900
C -12.665800 -40.435500 -12.845800
C -12.657600 -38.036300 -11.463700
C -12.638100 -36.830700 -10.735100
C -12.219100 -40.412800 -11.577900
C -12.196600 -39.210000 -10.844800
C -12.159300 -36.800600 -9.449000
H -12.145500 -36.000800 -8.976400
H -11.922600 -41.200500 -11.180300
C -11.704700 -39.145900 -9.508400
C -11.695800 -37.962500 -8.855800
H -11.391600 -39.914800 -9.087900
H -11.369800 -37.927100 -7.985500
38
Fragment
O -10.637000 -36.590800 -14.933600
O -10.569100 -35.407400 -13.140100
N -10.339800 -36.445900 -13.753500
H -9.757200 -38.872500 -14.580800
C -9.720300 -37.536600 -13.057000
C -9.518600 -38.756900 -13.689500
H -9.470000 -36.556300 -11.354000
C -9.346700 -37.385100 -11.759800
C -8.970900 -39.771300 -12.991100
H -8.816300 -40.593100 -13.397000
N -8.812900 -38.368600 -11.048700
C -8.636900 -39.571100 -11.640100
N -8.160100 -40.549900 -10.897900
H -8.034600 -41.328200 -11.240600
H -7.973600 -40.408800 -10.069700
H -14.409700 -37.988500 -18.485800
O -14.321900 -39.858300 -17.213300
O -14.171600 -37.715600 -17.749900
C -14.106300 -38.707700 -16.923600
C -13.742600 -38.240000 -15.528700
O -13.495900 -39.426500 -14.776400
H -13.428900 -37.303100 -13.202300
C -13.115200 -38.076200 -12.791000
C -13.093900 -39.253500 -13.470100
H -12.953200 -36.048100 -11.128200
H -12.690800 -41.240700 -13.312900
C -12.665800 -40.435500 -12.845800
C -12.657600 -38.036300 -11.463700
C -12.638100 -36.830700 -10.735100
C -12.219100 -40.412800 -11.577900
C -12.196600 -39.210000 -10.844800
C -12.159300 -36.800600 -9.449000
H -12.145500 -36.000800 -8.976400
H -11.922600 -41.200500 -11.180300
C -11.704700 -39.145900 -9.508400
C -11.695800 -37.962500 -8.855800
H -11.391600 -39.914800 -9.087900
H -11.369800 -37.927100 -7.985500
