15
Fragment
O -10.637000 -36.590800 -14.933600
O -10.569100 -35.407400 -13.140100
N -10.339800 -36.445900 -13.753500
H -9.757200 -38.872500 -14.580800
C -9.720300 -37.536600 -13.057000
C -9.518600 -38.756900 -13.689500
H -9.470000 -36.556300 -11.354000
C -9.346700 -37.385100 -11.759800
C -8.970900 -39.771300 -12.991100
H -8.816300 -40.593100 -13.397000
N -8.812900 -38.368600 -11.048700
C -8.636900 -39.571100 -11.640100
N -8.160100 -40.549900 -10.897900
H -8.034600 -41.328200 -11.240600
H -7.973600 -40.408800 -10.069700
23
Fragment
H -8.381000 -37.988500 -9.344800
O -8.293200 -39.858300 -8.072400
O -8.142900 -37.715600 -8.609000
C -8.077500 -38.707700 -7.782600
C -7.713900 -38.240000 -6.387700
O -7.467200 -39.426500 -5.635400
H -7.400200 -37.303100 -4.061300
C -7.086500 -38.076200 -3.650000
C -7.065200 -39.253500 -4.329200
H -6.924500 -36.048100 -1.987200
H -6.662100 -41.240700 -4.171900
C -6.637100 -40.435500 -3.704800
C -6.628900 -38.036300 -2.322700
C -6.609400 -36.830700 -1.594200
C -6.190400 -40.412800 -2.437000
C -6.167900 -39.210000 -1.703900
C -6.130600 -36.800600 -0.308100
H -6.116800 -36.000800 0.164500
H -5.893900 -41.200500 -2.039300
C -5.676000 -39.145900 -0.367500
C -5.667100 -37.962500 0.285200
H -5.362900 -39.914800 0.053000
H -5.341100 -37.927100 1.155400
38
Fragment
O -10.637000 -36.590800 -14.933600
O -10.569100 -35.407400 -13.140100
N -10.339800 -36.445900 -13.753500
H -9.757200 -38.872500 -14.580800
C -9.720300 -37.536600 -13.057000
C -9.518600 -38.756900 -13.689500
H -9.470000 -36.556300 -11.354000
C -9.346700 -37.385100 -11.759800
C -8.970900 -39.771300 -12.991100
H -8.816300 -40.593100 -13.397000
N -8.812900 -38.368600 -11.048700
C -8.636900 -39.571100 -11.640100
N -8.160100 -40.549900 -10.897900
H -8.034600 -41.328200 -11.240600
H -7.973600 -40.408800 -10.069700
H -8.381000 -37.988500 -9.344800
O -8.293200 -39.858300 -8.072400
O -8.142900 -37.715600 -8.609000
C -8.077500 -38.707700 -7.782600
C -7.713900 -38.240000 -6.387700
O -7.467200 -39.426500 -5.635400
H -7.400200 -37.303100 -4.061300
C -7.086500 -38.076200 -3.650000
C -7.065200 -39.253500 -4.329200
H -6.924500 -36.048100 -1.987200
H -6.662100 -41.240700 -4.171900
C -6.637100 -40.435500 -3.704800
C -6.628900 -38.036300 -2.322700
C -6.609400 -36.830700 -1.594200
C -6.190400 -40.412800 -2.437000
C -6.167900 -39.210000 -1.703900
C -6.130600 -36.800600 -0.308100
H -6.116800 -36.000800 0.164500
H -5.893900 -41.200500 -2.039300
C -5.676000 -39.145900 -0.367500
C -5.667100 -37.962500 0.285200
H -5.362900 -39.914800 0.053000
H -5.341100 -37.927100 1.155400
