15
Fragment
O -10.637000 -36.590800 -14.933600
O -10.569100 -35.407400 -13.140100
N -10.339800 -36.445900 -13.753500
H -9.757200 -38.872500 -14.580800
C -9.720300 -37.536600 -13.057000
C -9.518600 -38.756900 -13.689500
H -9.470000 -36.556300 -11.354000
C -9.346700 -37.385100 -11.759800
C -8.970900 -39.771300 -12.991100
H -8.816300 -40.593100 -13.397000
N -8.812900 -38.368600 -11.048700
C -8.636900 -39.571100 -11.640100
N -8.160100 -40.549900 -10.897900
H -8.034600 -41.328200 -11.240600
H -7.973600 -40.408800 -10.069700
23
Fragment
H -6.962300 -37.988500 -18.485800
O -6.874500 -39.858300 -17.213300
O -6.724200 -37.715600 -17.749900
C -6.658900 -38.707700 -16.923600
C -6.295200 -38.240000 -15.528700
O -6.048500 -39.426500 -14.776400
H -5.981500 -37.303100 -13.202300
C -5.667800 -38.076200 -12.791000
C -5.646500 -39.253500 -13.470100
H -5.505800 -36.048100 -11.128200
H -5.243400 -41.240700 -13.312900
C -5.218400 -40.435500 -12.845800
C -5.210200 -38.036300 -11.463700
C -5.190700 -36.830700 -10.735100
C -4.771700 -40.412800 -11.577900
C -4.749200 -39.210000 -10.844800
C -4.711900 -36.800600 -9.449000
H -4.698100 -36.000800 -8.976400
H -4.475200 -41.200500 -11.180300
C -4.257300 -39.145900 -9.508400
C -4.248400 -37.962500 -8.855800
H -3.944200 -39.914800 -9.087900
H -3.922400 -37.927100 -7.985500
38
Fragment
O -10.637000 -36.590800 -14.933600
O -10.569100 -35.407400 -13.140100
N -10.339800 -36.445900 -13.753500
H -9.757200 -38.872500 -14.580800
C -9.720300 -37.536600 -13.057000
C -9.518600 -38.756900 -13.689500
H -9.470000 -36.556300 -11.354000
C -9.346700 -37.385100 -11.759800
C -8.970900 -39.771300 -12.991100
H -8.816300 -40.593100 -13.397000
N -8.812900 -38.368600 -11.048700
C -8.636900 -39.571100 -11.640100
N -8.160100 -40.549900 -10.897900
H -8.034600 -41.328200 -11.240600
H -7.973600 -40.408800 -10.069700
H -6.962300 -37.988500 -18.485800
O -6.874500 -39.858300 -17.213300
O -6.724200 -37.715600 -17.749900
C -6.658900 -38.707700 -16.923600
C -6.295200 -38.240000 -15.528700
O -6.048500 -39.426500 -14.776400
H -5.981500 -37.303100 -13.202300
C -5.667800 -38.076200 -12.791000
C -5.646500 -39.253500 -13.470100
H -5.505800 -36.048100 -11.128200
H -5.243400 -41.240700 -13.312900
C -5.218400 -40.435500 -12.845800
C -5.210200 -38.036300 -11.463700
C -5.190700 -36.830700 -10.735100
C -4.771700 -40.412800 -11.577900
C -4.749200 -39.210000 -10.844800
C -4.711900 -36.800600 -9.449000
H -4.698100 -36.000800 -8.976400
H -4.475200 -41.200500 -11.180300
C -4.257300 -39.145900 -9.508400
C -4.248400 -37.962500 -8.855800
H -3.944200 -39.914800 -9.087900
H -3.922400 -37.927100 -7.985500
