37
Fragment
H -14.436900 -16.683400 -35.548100
H -13.669000 -17.124800 -36.976400
C -13.481900 -16.766800 -36.071000
H -13.354800 -14.849300 -36.745600
C -12.848000 -15.397600 -36.182900
O -12.827800 -14.786100 -34.856300
O -12.651800 -17.700500 -35.386100
H -12.607900 -17.507300 -34.490800
H -12.028400 -13.034800 -29.307400
H -11.609600 -13.947000 -37.860600
N -11.560700 -19.172700 -32.160100
N -11.534200 -16.959900 -32.770900
C -11.528600 -17.876100 -31.815700
H -11.525800 -18.350800 -29.839200
N -11.502100 -17.572000 -30.481200
C -11.495800 -14.437400 -34.507300
H -11.449000 -19.802400 -31.595100
C -11.444800 -16.276400 -29.956000
O -11.437100 -16.120100 -28.723300
C -11.437100 -15.697700 -32.297100
C -11.393900 -15.311300 -30.978500
C -11.387600 -15.396600 -36.654900
H -11.365200 -19.351200 -32.957500
N -11.356200 -14.556600 -33.068500
H -11.337300 -13.515400 -34.727900
N -11.298200 -13.916600 -30.946700
C -11.286300 -13.432100 -32.217600
C -11.234700 -13.072100 -29.758000
O -11.220000 -12.262400 -32.575300
H -11.148800 -16.242000 -37.213400
H -11.120900 -12.142300 -30.067900
O -11.030100 -14.210800 -37.365100
H -10.681100 -13.446800 -29.142500
C -10.607800 -15.357400 -35.340800
H -10.576400 -16.251900 -34.938100
O -9.277200 -14.905200 -35.428400
H -9.222000 -14.251000 -35.927400
37
Fragment
H -15.211800 -15.173000 -46.232400
O -15.156700 -14.518800 -45.733400
H -13.857500 -13.172100 -45.243100
C -13.826100 -14.066600 -45.645800
H -13.752800 -15.977200 -39.447500
O -13.403700 -15.213200 -47.670100
H -13.313000 -17.281700 -40.372900
H -13.285000 -13.182000 -47.518400
O -13.213800 -17.161600 -42.880300
C -13.199200 -16.351900 -40.063000
C -13.147500 -15.991900 -42.522600
N -13.135600 -15.507400 -41.251700
H -13.096500 -15.908600 -45.032800
N -13.077700 -14.867400 -43.373500
H -13.068600 -10.072800 -43.262500
C -13.046300 -14.027400 -46.959900
C -13.040000 -14.112700 -41.283500
C -12.996700 -13.726300 -42.602100
O -12.996700 -13.303900 -39.028300
C -12.989000 -13.147600 -40.261000
H -12.984800 -9.621600 -41.900100
C -12.938100 -14.986600 -44.812300
N -12.931800 -11.852000 -40.786200
H -12.908100 -11.073200 -40.144200
C -12.905300 -11.547900 -42.120700
N -12.899700 -12.464100 -43.075900
N -12.873100 -10.251300 -42.465100
H -12.824300 -15.477000 -48.165600
H -12.405400 -16.389200 -39.612400
H -11.826000 -11.916700 -44.795800
O -11.782000 -11.723500 -45.691100
O -11.606100 -14.637900 -45.161300
C -11.585800 -14.026400 -46.487900
H -11.079000 -14.574700 -47.050600
C -10.951900 -12.657200 -46.376000
H -10.764900 -12.299200 -47.281400
H -9.996900 -12.740600 -45.853100
74
Fragment
H -14.436900 -16.683400 -35.548100
H -13.669000 -17.124800 -36.976400
C -13.481900 -16.766800 -36.071000
H -13.354800 -14.849300 -36.745600
C -12.848000 -15.397600 -36.182900
O -12.827800 -14.786100 -34.856300
O -12.651800 -17.700500 -35.386100
H -12.607900 -17.507300 -34.490800
H -12.028400 -13.034800 -29.307400
H -11.609600 -13.947000 -37.860600
N -11.560700 -19.172700 -32.160100
N -11.534200 -16.959900 -32.770900
C -11.528600 -17.876100 -31.815700
H -11.525800 -18.350800 -29.839200
N -11.502100 -17.572000 -30.481200
C -11.495800 -14.437400 -34.507300
H -11.449000 -19.802400 -31.595100
C -11.444800 -16.276400 -29.956000
O -11.437100 -16.120100 -28.723300
C -11.437100 -15.697700 -32.297100
C -11.393900 -15.311300 -30.978500
C -11.387600 -15.396600 -36.654900
H -11.365200 -19.351200 -32.957500
N -11.356200 -14.556600 -33.068500
H -11.337300 -13.515400 -34.727900
N -11.298200 -13.916600 -30.946700
C -11.286300 -13.432100 -32.217600
C -11.234700 -13.072100 -29.758000
O -11.220000 -12.262400 -32.575300
H -11.148800 -16.242000 -37.213400
H -11.120900 -12.142300 -30.067900
O -11.030100 -14.210800 -37.365100
H -10.681100 -13.446800 -29.142500
C -10.607800 -15.357400 -35.340800
H -10.576400 -16.251900 -34.938100
O -9.277200 -14.905200 -35.428400
H -9.222000 -14.251000 -35.927400
H -15.211800 -15.173000 -46.232400
O -15.156700 -14.518800 -45.733400
H -13.857500 -13.172100 -45.243100
C -13.826100 -14.066600 -45.645800
H -13.752800 -15.977200 -39.447500
O -13.403700 -15.213200 -47.670100
H -13.313000 -17.281700 -40.372900
H -13.285000 -13.182000 -47.518400
O -13.213800 -17.161600 -42.880300
C -13.199200 -16.351900 -40.063000
C -13.147500 -15.991900 -42.522600
N -13.135600 -15.507400 -41.251700
H -13.096500 -15.908600 -45.032800
N -13.077700 -14.867400 -43.373500
H -13.068600 -10.072800 -43.262500
C -13.046300 -14.027400 -46.959900
C -13.040000 -14.112700 -41.283500
C -12.996700 -13.726300 -42.602100
O -12.996700 -13.303900 -39.028300
C -12.989000 -13.147600 -40.261000
H -12.984800 -9.621600 -41.900100
C -12.938100 -14.986600 -44.812300
N -12.931800 -11.852000 -40.786200
H -12.908100 -11.073200 -40.144200
C -12.905300 -11.547900 -42.120700
N -12.899700 -12.464100 -43.075900
N -12.873100 -10.251300 -42.465100
H -12.824300 -15.477000 -48.165600
H -12.405400 -16.389200 -39.612400
H -11.826000 -11.916700 -44.795800
O -11.782000 -11.723500 -45.691100
O -11.606100 -14.637900 -45.161300
C -11.585800 -14.026400 -46.487900
H -11.079000 -14.574700 -47.050600
C -10.951900 -12.657200 -46.376000
H -10.764900 -12.299200 -47.281400
H -9.996900 -12.740600 -45.853100
