37
Fragment
H -14.436900 -16.683400 -35.548100
H -13.669000 -17.124800 -36.976400
C -13.481900 -16.766800 -36.071000
H -13.354800 -14.849300 -36.745600
C -12.848000 -15.397600 -36.182900
O -12.827800 -14.786100 -34.856300
O -12.651800 -17.700500 -35.386100
H -12.607900 -17.507300 -34.490800
H -12.028400 -13.034800 -29.307400
H -11.609600 -13.947000 -37.860600
N -11.560700 -19.172700 -32.160100
N -11.534200 -16.959900 -32.770900
C -11.528600 -17.876100 -31.815700
H -11.525800 -18.350800 -29.839200
N -11.502100 -17.572000 -30.481200
C -11.495800 -14.437400 -34.507300
H -11.449000 -19.802400 -31.595100
C -11.444800 -16.276400 -29.956000
O -11.437100 -16.120100 -28.723300
C -11.437100 -15.697700 -32.297100
C -11.393900 -15.311300 -30.978500
C -11.387600 -15.396600 -36.654900
H -11.365200 -19.351200 -32.957500
N -11.356200 -14.556600 -33.068500
H -11.337300 -13.515400 -34.727900
N -11.298200 -13.916600 -30.946700
C -11.286300 -13.432100 -32.217600
C -11.234700 -13.072100 -29.758000
O -11.220000 -12.262400 -32.575300
H -11.148800 -16.242000 -37.213400
H -11.120900 -12.142300 -30.067900
O -11.030100 -14.210800 -37.365100
H -10.681100 -13.446800 -29.142500
C -10.607800 -15.357400 -35.340800
H -10.576400 -16.251900 -34.938100
O -9.277200 -14.905200 -35.428400
H -9.222000 -14.251000 -35.927400
37
Fragment
H -11.721300 -19.155000 -36.207600
O -11.666100 -19.809200 -36.706600
H -10.366900 -21.155900 -37.196900
C -10.335500 -20.261400 -36.794200
H -10.262200 -18.350800 -42.992500
O -9.913200 -19.114800 -34.769900
H -9.822400 -17.046300 -42.067100
H -9.794500 -21.146000 -34.921600
O -9.723300 -17.166400 -39.559700
C -9.708600 -17.976100 -42.377000
C -9.657000 -18.336100 -39.917400
N -9.645100 -18.820600 -41.188300
H -9.606000 -18.419400 -37.407200
N -9.587100 -19.460600 -39.066500
H -9.578100 -24.255200 -39.177500
C -9.555700 -20.300600 -35.480100
C -9.549400 -20.215300 -41.156500
O -9.506200 -21.024100 -43.411700
C -9.506200 -20.601700 -39.837900
C -9.498500 -21.180400 -42.179000
H -9.494300 -24.706400 -40.539900
C -9.447500 -19.341400 -37.627700
N -9.441200 -22.476000 -41.653800
H -9.417500 -23.254800 -42.295800
C -9.414700 -22.780100 -40.319300
N -9.409100 -21.863900 -39.364100
N -9.382600 -24.076700 -39.974900
H -9.333700 -18.851000 -34.274400
H -8.914900 -17.938800 -42.827600
H -8.335400 -22.411300 -37.644200
O -8.291500 -22.604500 -36.748900
O -8.115500 -19.690100 -37.278700
C -8.095300 -20.301600 -35.952100
H -7.588500 -19.753300 -35.389400
C -7.461400 -21.670800 -36.064000
H -7.274300 -22.028800 -35.158600
H -6.506400 -21.587400 -36.586900
74
Fragment
H -14.436900 -16.683400 -35.548100
H -13.669000 -17.124800 -36.976400
C -13.481900 -16.766800 -36.071000
H -13.354800 -14.849300 -36.745600
C -12.848000 -15.397600 -36.182900
O -12.827800 -14.786100 -34.856300
O -12.651800 -17.700500 -35.386100
H -12.607900 -17.507300 -34.490800
H -12.028400 -13.034800 -29.307400
H -11.609600 -13.947000 -37.860600
N -11.560700 -19.172700 -32.160100
N -11.534200 -16.959900 -32.770900
C -11.528600 -17.876100 -31.815700
H -11.525800 -18.350800 -29.839200
N -11.502100 -17.572000 -30.481200
C -11.495800 -14.437400 -34.507300
H -11.449000 -19.802400 -31.595100
C -11.444800 -16.276400 -29.956000
O -11.437100 -16.120100 -28.723300
C -11.437100 -15.697700 -32.297100
C -11.393900 -15.311300 -30.978500
C -11.387600 -15.396600 -36.654900
H -11.365200 -19.351200 -32.957500
N -11.356200 -14.556600 -33.068500
H -11.337300 -13.515400 -34.727900
N -11.298200 -13.916600 -30.946700
C -11.286300 -13.432100 -32.217600
C -11.234700 -13.072100 -29.758000
O -11.220000 -12.262400 -32.575300
H -11.148800 -16.242000 -37.213400
H -11.120900 -12.142300 -30.067900
O -11.030100 -14.210800 -37.365100
H -10.681100 -13.446800 -29.142500
C -10.607800 -15.357400 -35.340800
H -10.576400 -16.251900 -34.938100
O -9.277200 -14.905200 -35.428400
H -9.222000 -14.251000 -35.927400
H -11.721300 -19.155000 -36.207600
O -11.666100 -19.809200 -36.706600
H -10.366900 -21.155900 -37.196900
C -10.335500 -20.261400 -36.794200
H -10.262200 -18.350800 -42.992500
O -9.913200 -19.114800 -34.769900
H -9.822400 -17.046300 -42.067100
H -9.794500 -21.146000 -34.921600
O -9.723300 -17.166400 -39.559700
C -9.708600 -17.976100 -42.377000
C -9.657000 -18.336100 -39.917400
N -9.645100 -18.820600 -41.188300
H -9.606000 -18.419400 -37.407200
N -9.587100 -19.460600 -39.066500
H -9.578100 -24.255200 -39.177500
C -9.555700 -20.300600 -35.480100
C -9.549400 -20.215300 -41.156500
O -9.506200 -21.024100 -43.411700
C -9.506200 -20.601700 -39.837900
C -9.498500 -21.180400 -42.179000
H -9.494300 -24.706400 -40.539900
C -9.447500 -19.341400 -37.627700
N -9.441200 -22.476000 -41.653800
H -9.417500 -23.254800 -42.295800
C -9.414700 -22.780100 -40.319300
N -9.409100 -21.863900 -39.364100
N -9.382600 -24.076700 -39.974900
H -9.333700 -18.851000 -34.274400
H -8.914900 -17.938800 -42.827600
H -8.335400 -22.411300 -37.644200
O -8.291500 -22.604500 -36.748900
O -8.115500 -19.690100 -37.278700
C -8.095300 -20.301600 -35.952100
H -7.588500 -19.753300 -35.389400
C -7.461400 -21.670800 -36.064000
H -7.274300 -22.028800 -35.158600
H -6.506400 -21.587400 -36.586900
