37
Fragment
H -14.436900 -16.683400 -35.548100
H -13.669000 -17.124800 -36.976400
C -13.481900 -16.766800 -36.071000
H -13.354800 -14.849300 -36.745600
C -12.848000 -15.397600 -36.182900
O -12.827800 -14.786100 -34.856300
O -12.651800 -17.700500 -35.386100
H -12.607900 -17.507300 -34.490800
H -12.028400 -13.034800 -29.307400
H -11.609600 -13.947000 -37.860600
N -11.560700 -19.172700 -32.160100
N -11.534200 -16.959900 -32.770900
C -11.528600 -17.876100 -31.815700
H -11.525800 -18.350800 -29.839200
N -11.502100 -17.572000 -30.481200
C -11.495800 -14.437400 -34.507300
H -11.449000 -19.802400 -31.595100
C -11.444800 -16.276400 -29.956000
O -11.437100 -16.120100 -28.723300
C -11.437100 -15.697700 -32.297100
C -11.393900 -15.311300 -30.978500
C -11.387600 -15.396600 -36.654900
H -11.365200 -19.351200 -32.957500
N -11.356200 -14.556600 -33.068500
H -11.337300 -13.515400 -34.727900
N -11.298200 -13.916600 -30.946700
C -11.286300 -13.432100 -32.217600
C -11.234700 -13.072100 -29.758000
O -11.220000 -12.262400 -32.575300
H -11.148800 -16.242000 -37.213400
H -11.120900 -12.142300 -30.067900
O -11.030100 -14.210800 -37.365100
H -10.681100 -13.446800 -29.142500
C -10.607800 -15.357400 -35.340800
H -10.576400 -16.251900 -34.938100
O -9.277200 -14.905200 -35.428400
H -9.222000 -14.251000 -35.927400
37
Fragment
H -14.436900 -26.491400 -35.548100
H -13.669000 -26.932800 -36.976400
C -13.481900 -26.574800 -36.071000
H -13.354800 -24.657300 -36.745600
C -12.848000 -25.205600 -36.182900
O -12.827800 -24.594100 -34.856300
O -12.651800 -27.508500 -35.386100
H -12.607900 -27.315300 -34.490800
H -12.028400 -22.842800 -29.307400
H -11.609600 -23.755000 -37.860600
N -11.560700 -28.980700 -32.160100
N -11.534200 -26.767900 -32.770900
C -11.528600 -27.684100 -31.815700
H -11.525800 -28.158800 -29.839200
N -11.502100 -27.380000 -30.481200
C -11.495800 -24.245400 -34.507300
H -11.449000 -29.610400 -31.595100
C -11.444800 -26.084400 -29.956000
O -11.437100 -25.928100 -28.723300
C -11.437100 -25.505700 -32.297100
C -11.393900 -25.119300 -30.978500
C -11.387600 -25.204600 -36.654900
H -11.365200 -29.159200 -32.957500
N -11.356200 -24.364600 -33.068500
H -11.337300 -23.323400 -34.727900
N -11.298200 -23.724600 -30.946700
C -11.286300 -23.240100 -32.217600
C -11.234700 -22.880100 -29.758000
O -11.220000 -22.070400 -32.575300
H -11.148800 -26.050000 -37.213400
H -11.120900 -21.950300 -30.067900
O -11.030100 -24.018800 -37.365100
H -10.681100 -23.254800 -29.142500
C -10.607800 -25.165400 -35.340800
H -10.576400 -26.059900 -34.938100
O -9.277200 -24.713200 -35.428400
H -9.222000 -24.059000 -35.927400
74
Fragment
H -14.436900 -16.683400 -35.548100
H -13.669000 -17.124800 -36.976400
C -13.481900 -16.766800 -36.071000
H -13.354800 -14.849300 -36.745600
C -12.848000 -15.397600 -36.182900
O -12.827800 -14.786100 -34.856300
O -12.651800 -17.700500 -35.386100
H -12.607900 -17.507300 -34.490800
H -12.028400 -13.034800 -29.307400
H -11.609600 -13.947000 -37.860600
N -11.560700 -19.172700 -32.160100
N -11.534200 -16.959900 -32.770900
C -11.528600 -17.876100 -31.815700
H -11.525800 -18.350800 -29.839200
N -11.502100 -17.572000 -30.481200
C -11.495800 -14.437400 -34.507300
H -11.449000 -19.802400 -31.595100
C -11.444800 -16.276400 -29.956000
O -11.437100 -16.120100 -28.723300
C -11.437100 -15.697700 -32.297100
C -11.393900 -15.311300 -30.978500
C -11.387600 -15.396600 -36.654900
H -11.365200 -19.351200 -32.957500
N -11.356200 -14.556600 -33.068500
H -11.337300 -13.515400 -34.727900
N -11.298200 -13.916600 -30.946700
C -11.286300 -13.432100 -32.217600
C -11.234700 -13.072100 -29.758000
O -11.220000 -12.262400 -32.575300
H -11.148800 -16.242000 -37.213400
H -11.120900 -12.142300 -30.067900
O -11.030100 -14.210800 -37.365100
H -10.681100 -13.446800 -29.142500
C -10.607800 -15.357400 -35.340800
H -10.576400 -16.251900 -34.938100
O -9.277200 -14.905200 -35.428400
H -9.222000 -14.251000 -35.927400
H -14.436900 -26.491400 -35.548100
H -13.669000 -26.932800 -36.976400
C -13.481900 -26.574800 -36.071000
H -13.354800 -24.657300 -36.745600
C -12.848000 -25.205600 -36.182900
O -12.827800 -24.594100 -34.856300
O -12.651800 -27.508500 -35.386100
H -12.607900 -27.315300 -34.490800
H -12.028400 -22.842800 -29.307400
H -11.609600 -23.755000 -37.860600
N -11.560700 -28.980700 -32.160100
N -11.534200 -26.767900 -32.770900
C -11.528600 -27.684100 -31.815700
H -11.525800 -28.158800 -29.839200
N -11.502100 -27.380000 -30.481200
C -11.495800 -24.245400 -34.507300
H -11.449000 -29.610400 -31.595100
C -11.444800 -26.084400 -29.956000
O -11.437100 -25.928100 -28.723300
C -11.437100 -25.505700 -32.297100
C -11.393900 -25.119300 -30.978500
C -11.387600 -25.204600 -36.654900
H -11.365200 -29.159200 -32.957500
N -11.356200 -24.364600 -33.068500
H -11.337300 -23.323400 -34.727900
N -11.298200 -23.724600 -30.946700
C -11.286300 -23.240100 -32.217600
C -11.234700 -22.880100 -29.758000
O -11.220000 -22.070400 -32.575300
H -11.148800 -26.050000 -37.213400
H -11.120900 -21.950300 -30.067900
O -11.030100 -24.018800 -37.365100
H -10.681100 -23.254800 -29.142500
C -10.607800 -25.165400 -35.340800
H -10.576400 -26.059900 -34.938100
O -9.277200 -24.713200 -35.428400
H -9.222000 -24.059000 -35.927400
