37
Fragment
H -14.436900 -16.683400 -35.548100
H -13.669000 -17.124800 -36.976400
C -13.481900 -16.766800 -36.071000
H -13.354800 -14.849300 -36.745600
C -12.848000 -15.397600 -36.182900
O -12.827800 -14.786100 -34.856300
O -12.651800 -17.700500 -35.386100
H -12.607900 -17.507300 -34.490800
H -12.028400 -13.034800 -29.307400
H -11.609600 -13.947000 -37.860600
N -11.560700 -19.172700 -32.160100
N -11.534200 -16.959900 -32.770900
C -11.528600 -17.876100 -31.815700
H -11.525800 -18.350800 -29.839200
N -11.502100 -17.572000 -30.481200
C -11.495800 -14.437400 -34.507300
H -11.449000 -19.802400 -31.595100
C -11.444800 -16.276400 -29.956000
O -11.437100 -16.120100 -28.723300
C -11.437100 -15.697700 -32.297100
C -11.393900 -15.311300 -30.978500
C -11.387600 -15.396600 -36.654900
H -11.365200 -19.351200 -32.957500
N -11.356200 -14.556600 -33.068500
H -11.337300 -13.515400 -34.727900
N -11.298200 -13.916600 -30.946700
C -11.286300 -13.432100 -32.217600
C -11.234700 -13.072100 -29.758000
O -11.220000 -12.262400 -32.575300
H -11.148800 -16.242000 -37.213400
H -11.120900 -12.142300 -30.067900
O -11.030100 -14.210800 -37.365100
H -10.681100 -13.446800 -29.142500
C -10.607800 -15.357400 -35.340800
H -10.576400 -16.251900 -34.938100
O -9.277200 -14.905200 -35.428400
H -9.222000 -14.251000 -35.927400
37
Fragment
H -17.927500 -7.836600 -26.281900
H -17.159500 -7.395200 -24.853600
C -16.972500 -7.753200 -25.759000
H -16.845400 -9.670700 -25.084400
C -16.338600 -9.122400 -25.647100
O -16.318300 -9.733900 -26.973700
O -16.142400 -6.819500 -26.443900
H -16.098400 -7.012700 -27.339200
H -15.519000 -11.485200 -32.522600
H -15.100100 -10.573000 -23.969400
N -15.051300 -5.347300 -29.669900
N -15.024700 -7.560100 -29.059100
C -15.019100 -6.643900 -30.014300
H -15.016300 -6.169200 -31.990800
N -14.992600 -6.948000 -31.348800
C -14.986300 -10.082600 -27.322700
H -14.939600 -4.717600 -30.234900
C -14.935400 -8.243600 -31.874000
C -14.927700 -8.822300 -29.532900
O -14.927700 -8.399900 -33.106700
C -14.884400 -9.208700 -30.851500
C -14.878100 -9.123400 -25.175100
H -14.855800 -5.168800 -28.872500
N -14.846700 -9.963400 -28.761500
H -14.827900 -11.004600 -27.102100
N -14.788800 -10.603400 -30.883300
C -14.776900 -11.087900 -29.612400
C -14.725200 -11.447900 -32.072000
O -14.710600 -12.257600 -29.254700
H -14.639400 -8.278000 -24.616600
H -14.611400 -12.377700 -31.762100
O -14.520700 -10.309200 -24.464900
H -14.171600 -11.073200 -32.687500
C -14.098300 -9.162600 -26.489200
H -14.066900 -8.268100 -26.891900
O -12.767700 -9.614800 -26.401600
H -12.712600 -10.269000 -25.902600
74
Fragment
H -14.436900 -16.683400 -35.548100
H -13.669000 -17.124800 -36.976400
C -13.481900 -16.766800 -36.071000
H -13.354800 -14.849300 -36.745600
C -12.848000 -15.397600 -36.182900
O -12.827800 -14.786100 -34.856300
O -12.651800 -17.700500 -35.386100
H -12.607900 -17.507300 -34.490800
H -12.028400 -13.034800 -29.307400
H -11.609600 -13.947000 -37.860600
N -11.560700 -19.172700 -32.160100
N -11.534200 -16.959900 -32.770900
C -11.528600 -17.876100 -31.815700
H -11.525800 -18.350800 -29.839200
N -11.502100 -17.572000 -30.481200
C -11.495800 -14.437400 -34.507300
H -11.449000 -19.802400 -31.595100
C -11.444800 -16.276400 -29.956000
O -11.437100 -16.120100 -28.723300
C -11.437100 -15.697700 -32.297100
C -11.393900 -15.311300 -30.978500
C -11.387600 -15.396600 -36.654900
H -11.365200 -19.351200 -32.957500
N -11.356200 -14.556600 -33.068500
H -11.337300 -13.515400 -34.727900
N -11.298200 -13.916600 -30.946700
C -11.286300 -13.432100 -32.217600
C -11.234700 -13.072100 -29.758000
O -11.220000 -12.262400 -32.575300
H -11.148800 -16.242000 -37.213400
H -11.120900 -12.142300 -30.067900
O -11.030100 -14.210800 -37.365100
H -10.681100 -13.446800 -29.142500
C -10.607800 -15.357400 -35.340800
H -10.576400 -16.251900 -34.938100
O -9.277200 -14.905200 -35.428400
H -9.222000 -14.251000 -35.927400
H -17.927500 -7.836600 -26.281900
H -17.159500 -7.395200 -24.853600
C -16.972500 -7.753200 -25.759000
H -16.845400 -9.670700 -25.084400
C -16.338600 -9.122400 -25.647100
O -16.318300 -9.733900 -26.973700
O -16.142400 -6.819500 -26.443900
H -16.098400 -7.012700 -27.339200
H -15.519000 -11.485200 -32.522600
H -15.100100 -10.573000 -23.969400
N -15.051300 -5.347300 -29.669900
N -15.024700 -7.560100 -29.059100
C -15.019100 -6.643900 -30.014300
H -15.016300 -6.169200 -31.990800
N -14.992600 -6.948000 -31.348800
C -14.986300 -10.082600 -27.322700
H -14.939600 -4.717600 -30.234900
C -14.935400 -8.243600 -31.874000
C -14.927700 -8.822300 -29.532900
O -14.927700 -8.399900 -33.106700
C -14.884400 -9.208700 -30.851500
C -14.878100 -9.123400 -25.175100
H -14.855800 -5.168800 -28.872500
N -14.846700 -9.963400 -28.761500
H -14.827900 -11.004600 -27.102100
N -14.788800 -10.603400 -30.883300
C -14.776900 -11.087900 -29.612400
C -14.725200 -11.447900 -32.072000
O -14.710600 -12.257600 -29.254700
H -14.639400 -8.278000 -24.616600
H -14.611400 -12.377700 -31.762100
O -14.520700 -10.309200 -24.464900
H -14.171600 -11.073200 -32.687500
C -14.098300 -9.162600 -26.489200
H -14.066900 -8.268100 -26.891900
O -12.767700 -9.614800 -26.401600
H -12.712600 -10.269000 -25.902600
