30
Fragment
H -21.283600 -23.894700 -7.381900
C -20.549700 -23.893700 -7.985700
H -20.427600 -25.917200 -8.191300
H -20.362900 -21.886600 -8.077100
C -20.033300 -25.093900 -8.454700
C -19.997300 -22.703500 -8.396100
H -19.627300 -20.148100 -8.762200
C -18.954500 -25.088100 -9.297500
C -18.900600 -22.669800 -9.280400
C -18.870600 -20.160300 -9.336600
H -18.705000 -18.150300 -9.477800
H -18.602300 -25.916700 -9.601300
C -18.351000 -23.891000 -9.728300
C -18.326700 -21.396500 -9.740500
C -18.324400 -18.973900 -9.760000
C -17.219600 -18.973900 -10.597100
C -17.217400 -21.396500 -10.616700
C -17.193000 -23.891000 -10.628900
H -16.941700 -25.916700 -10.755800
H -16.839100 -18.150300 -10.879400
C -16.673400 -20.160300 -11.020600
C -16.643400 -22.669800 -11.076700
C -16.589500 -25.088100 -11.059600
H -15.916700 -20.148100 -11.595000
C -15.546700 -22.703500 -11.961100
C -15.510700 -25.093900 -11.902400
H -15.181200 -21.886600 -12.280100
H -15.116400 -25.917200 -12.165900
C -14.994300 -23.893700 -12.371500
H -14.260400 -23.894700 -12.975300
20
Fragment
N -23.950800 -24.429000 -9.642800
C -23.018000 -24.409100 -10.306400
F -22.699800 -21.854700 -10.585600
C -21.850600 -24.487900 -11.135400
C -21.651300 -22.033900 -11.394300
F -21.520600 -19.744200 -11.595900
C -21.404900 -25.841400 -11.336500
C -21.220000 -23.383100 -11.660600
N -21.098100 -26.942500 -11.409800
C -21.047700 -20.951300 -11.911400
C -20.072000 -23.463700 -12.517200
N -20.021600 -17.472500 -13.018800
C -19.899700 -21.031900 -12.768000
C -19.714800 -18.573600 -13.092100
F -19.599100 -24.670800 -12.832800
C -19.468300 -22.381100 -13.034300
C -19.269000 -19.927100 -13.293200
F -18.419900 -22.560300 -13.843000
C -18.101700 -20.005900 -14.122200
N -17.168900 -19.986000 -14.785800
50
Fragment
H -21.283600 -23.894700 -7.381900
C -20.549700 -23.893700 -7.985700
H -20.427600 -25.917200 -8.191300
H -20.362900 -21.886600 -8.077100
C -20.033300 -25.093900 -8.454700
C -19.997300 -22.703500 -8.396100
H -19.627300 -20.148100 -8.762200
C -18.954500 -25.088100 -9.297500
C -18.900600 -22.669800 -9.280400
C -18.870600 -20.160300 -9.336600
H -18.705000 -18.150300 -9.477800
H -18.602300 -25.916700 -9.601300
C -18.351000 -23.891000 -9.728300
C -18.326700 -21.396500 -9.740500
C -18.324400 -18.973900 -9.760000
C -17.219600 -18.973900 -10.597100
C -17.217400 -21.396500 -10.616700
C -17.193000 -23.891000 -10.628900
H -16.941700 -25.916700 -10.755800
H -16.839100 -18.150300 -10.879400
C -16.673400 -20.160300 -11.020600
C -16.643400 -22.669800 -11.076700
C -16.589500 -25.088100 -11.059600
H -15.916700 -20.148100 -11.595000
C -15.546700 -22.703500 -11.961100
C -15.510700 -25.093900 -11.902400
H -15.181200 -21.886600 -12.280100
H -15.116400 -25.917200 -12.165900
C -14.994300 -23.893700 -12.371500
H -14.260400 -23.894700 -12.975300
N -23.950800 -24.429000 -9.642800
C -23.018000 -24.409100 -10.306400
F -22.699800 -21.854700 -10.585600
C -21.850600 -24.487900 -11.135400
C -21.651300 -22.033900 -11.394300
F -21.520600 -19.744200 -11.595900
C -21.404900 -25.841400 -11.336500
C -21.220000 -23.383100 -11.660600
N -21.098100 -26.942500 -11.409800
C -21.047700 -20.951300 -11.911400
C -20.072000 -23.463700 -12.517200
N -20.021600 -17.472500 -13.018800
C -19.899700 -21.031900 -12.768000
C -19.714800 -18.573600 -13.092100
F -19.599100 -24.670800 -12.832800
C -19.468300 -22.381100 -13.034300
C -19.269000 -19.927100 -13.293200
F -18.419900 -22.560300 -13.843000
C -18.101700 -20.005900 -14.122200
N -17.168900 -19.986000 -14.785800
