30
Fragment
H -21.283600 -23.894700 -7.381900
C -20.549700 -23.893700 -7.985700
H -20.427600 -25.917200 -8.191300
H -20.362900 -21.886600 -8.077100
C -20.033300 -25.093900 -8.454700
C -19.997300 -22.703500 -8.396100
H -19.627300 -20.148100 -8.762200
C -18.954500 -25.088100 -9.297500
C -18.900600 -22.669800 -9.280400
C -18.870600 -20.160300 -9.336600
H -18.705000 -18.150300 -9.477800
H -18.602300 -25.916700 -9.601300
C -18.351000 -23.891000 -9.728300
C -18.326700 -21.396500 -9.740500
C -18.324400 -18.973900 -9.760000
C -17.219600 -18.973900 -10.597100
C -17.217400 -21.396500 -10.616700
C -17.193000 -23.891000 -10.628900
H -16.941700 -25.916700 -10.755800
H -16.839100 -18.150300 -10.879400
C -16.673400 -20.160300 -11.020600
C -16.643400 -22.669800 -11.076700
C -16.589500 -25.088100 -11.059600
H -15.916700 -20.148100 -11.595000
C -15.546700 -22.703500 -11.961100
C -15.510700 -25.093900 -11.902400
H -15.181200 -21.886600 -12.280100
H -15.116400 -25.917200 -12.165900
C -14.994300 -23.893700 -12.371500
H -14.260400 -23.894700 -12.975300
20
Fragment
N -26.040700 -28.869000 -5.571400
C -25.107900 -28.888900 -6.235000
F -24.789700 -31.443300 -6.514100
C -23.940600 -28.810100 -7.063900
C -23.741300 -31.264100 -7.322900
F -23.610500 -33.553800 -7.524400
C -23.494800 -27.456600 -7.265100
C -23.309900 -29.914900 -7.589200
N -23.188000 -26.355500 -7.338400
C -23.137600 -32.346700 -7.840000
C -22.161900 -29.834300 -8.445800
N -22.111500 -35.825500 -8.947400
C -21.989600 -32.266100 -8.696600
C -21.804700 -34.724400 -9.020700
F -21.689000 -28.627200 -8.761300
C -21.558300 -30.916900 -8.962900
C -21.359000 -33.370900 -9.221800
F -20.509800 -30.737700 -9.771600
C -20.191600 -33.292100 -10.050700
N -19.258800 -33.312000 -10.714400
50
Fragment
H -21.283600 -23.894700 -7.381900
C -20.549700 -23.893700 -7.985700
H -20.427600 -25.917200 -8.191300
H -20.362900 -21.886600 -8.077100
C -20.033300 -25.093900 -8.454700
C -19.997300 -22.703500 -8.396100
H -19.627300 -20.148100 -8.762200
C -18.954500 -25.088100 -9.297500
C -18.900600 -22.669800 -9.280400
C -18.870600 -20.160300 -9.336600
H -18.705000 -18.150300 -9.477800
H -18.602300 -25.916700 -9.601300
C -18.351000 -23.891000 -9.728300
C -18.326700 -21.396500 -9.740500
C -18.324400 -18.973900 -9.760000
C -17.219600 -18.973900 -10.597100
C -17.217400 -21.396500 -10.616700
C -17.193000 -23.891000 -10.628900
H -16.941700 -25.916700 -10.755800
H -16.839100 -18.150300 -10.879400
C -16.673400 -20.160300 -11.020600
C -16.643400 -22.669800 -11.076700
C -16.589500 -25.088100 -11.059600
H -15.916700 -20.148100 -11.595000
C -15.546700 -22.703500 -11.961100
C -15.510700 -25.093900 -11.902400
H -15.181200 -21.886600 -12.280100
H -15.116400 -25.917200 -12.165900
C -14.994300 -23.893700 -12.371500
H -14.260400 -23.894700 -12.975300
N -26.040700 -28.869000 -5.571400
C -25.107900 -28.888900 -6.235000
F -24.789700 -31.443300 -6.514100
C -23.940600 -28.810100 -7.063900
C -23.741300 -31.264100 -7.322900
F -23.610500 -33.553800 -7.524400
C -23.494800 -27.456600 -7.265100
C -23.309900 -29.914900 -7.589200
N -23.188000 -26.355500 -7.338400
C -23.137600 -32.346700 -7.840000
C -22.161900 -29.834300 -8.445800
N -22.111500 -35.825500 -8.947400
C -21.989600 -32.266100 -8.696600
C -21.804700 -34.724400 -9.020700
F -21.689000 -28.627200 -8.761300
C -21.558300 -30.916900 -8.962900
C -21.359000 -33.370900 -9.221800
F -20.509800 -30.737700 -9.771600
C -20.191600 -33.292100 -10.050700
N -19.258800 -33.312000 -10.714400
