30
Fragment
H -21.283600 -23.894700 -7.381900
C -20.549700 -23.893700 -7.985700
H -20.427600 -25.917200 -8.191300
H -20.362900 -21.886600 -8.077100
C -20.033300 -25.093900 -8.454700
C -19.997300 -22.703500 -8.396100
H -19.627300 -20.148100 -8.762200
C -18.954500 -25.088100 -9.297500
C -18.900600 -22.669800 -9.280400
C -18.870600 -20.160300 -9.336600
H -18.705000 -18.150300 -9.477800
H -18.602300 -25.916700 -9.601300
C -18.351000 -23.891000 -9.728300
C -18.326700 -21.396500 -9.740500
C -18.324400 -18.973900 -9.760000
C -17.219600 -18.973900 -10.597100
C -17.217400 -21.396500 -10.616700
C -17.193000 -23.891000 -10.628900
H -16.941700 -25.916700 -10.755800
H -16.839100 -18.150300 -10.879400
C -16.673400 -20.160300 -11.020600
C -16.643400 -22.669800 -11.076700
C -16.589500 -25.088100 -11.059600
H -15.916700 -20.148100 -11.595000
C -15.546700 -22.703500 -11.961100
C -15.510700 -25.093900 -11.902400
H -15.181200 -21.886600 -12.280100
H -15.116400 -25.917200 -12.165900
C -14.994300 -23.893700 -12.371500
H -14.260400 -23.894700 -12.975300
30
Fragment
H -25.463400 -23.894700 0.761000
C -24.729600 -23.893700 0.157200
H -24.607500 -25.917200 -0.048500
H -24.542700 -21.886600 0.065800
C -24.213100 -25.093900 -0.311900
C -24.177200 -22.703500 -0.253200
H -23.807100 -20.148100 -0.619300
C -23.134300 -25.088100 -1.154700
C -23.080400 -22.669800 -1.137600
C -23.050500 -20.160300 -1.193700
H -22.884800 -18.150300 -1.334900
H -22.782100 -25.916700 -1.458500
C -22.530900 -23.891000 -1.585400
C -22.506500 -21.396500 -1.597600
C -22.504300 -18.973900 -1.617200
C -21.399400 -18.973900 -2.454300
C -21.397200 -21.396500 -2.473800
C -21.372800 -23.891000 -2.486000
H -21.121500 -25.916700 -2.613000
H -21.018900 -18.150300 -2.736500
C -20.853200 -20.160300 -2.877700
C -20.823300 -22.669800 -2.933900
C -20.769400 -25.088100 -2.916800
H -20.096600 -20.148100 -3.452100
C -19.726500 -22.703500 -3.818200
C -19.690500 -25.093900 -3.759600
H -19.361000 -21.886600 -4.137200
H -19.296200 -25.917200 -4.023000
C -19.174100 -23.893700 -4.228600
H -18.440300 -23.894700 -4.832400
60
Fragment
H -21.283600 -23.894700 -7.381900
C -20.549700 -23.893700 -7.985700
H -20.427600 -25.917200 -8.191300
H -20.362900 -21.886600 -8.077100
C -20.033300 -25.093900 -8.454700
C -19.997300 -22.703500 -8.396100
H -19.627300 -20.148100 -8.762200
C -18.954500 -25.088100 -9.297500
C -18.900600 -22.669800 -9.280400
C -18.870600 -20.160300 -9.336600
H -18.705000 -18.150300 -9.477800
H -18.602300 -25.916700 -9.601300
C -18.351000 -23.891000 -9.728300
C -18.326700 -21.396500 -9.740500
C -18.324400 -18.973900 -9.760000
C -17.219600 -18.973900 -10.597100
C -17.217400 -21.396500 -10.616700
C -17.193000 -23.891000 -10.628900
H -16.941700 -25.916700 -10.755800
H -16.839100 -18.150300 -10.879400
C -16.673400 -20.160300 -11.020600
C -16.643400 -22.669800 -11.076700
C -16.589500 -25.088100 -11.059600
H -15.916700 -20.148100 -11.595000
C -15.546700 -22.703500 -11.961100
C -15.510700 -25.093900 -11.902400
H -15.181200 -21.886600 -12.280100
H -15.116400 -25.917200 -12.165900
C -14.994300 -23.893700 -12.371500
H -14.260400 -23.894700 -12.975300
H -25.463400 -23.894700 0.761000
C -24.729600 -23.893700 0.157200
H -24.607500 -25.917200 -0.048500
H -24.542700 -21.886600 0.065800
C -24.213100 -25.093900 -0.311900
C -24.177200 -22.703500 -0.253200
H -23.807100 -20.148100 -0.619300
C -23.134300 -25.088100 -1.154700
C -23.080400 -22.669800 -1.137600
C -23.050500 -20.160300 -1.193700
H -22.884800 -18.150300 -1.334900
H -22.782100 -25.916700 -1.458500
C -22.530900 -23.891000 -1.585400
C -22.506500 -21.396500 -1.597600
C -22.504300 -18.973900 -1.617200
C -21.399400 -18.973900 -2.454300
C -21.397200 -21.396500 -2.473800
C -21.372800 -23.891000 -2.486000
H -21.121500 -25.916700 -2.613000
H -21.018900 -18.150300 -2.736500
C -20.853200 -20.160300 -2.877700
C -20.823300 -22.669800 -2.933900
C -20.769400 -25.088100 -2.916800
H -20.096600 -20.148100 -3.452100
C -19.726500 -22.703500 -3.818200
C -19.690500 -25.093900 -3.759600
H -19.361000 -21.886600 -4.137200
H -19.296200 -25.917200 -4.023000
C -19.174100 -23.893700 -4.228600
H -18.440300 -23.894700 -4.832400
