30
Fragment
H -21.283600 -23.894700 -7.381900
C -20.549700 -23.893700 -7.985700
H -20.427600 -25.917200 -8.191300
H -20.362900 -21.886600 -8.077100
C -20.033300 -25.093900 -8.454700
C -19.997300 -22.703500 -8.396100
H -19.627300 -20.148100 -8.762200
C -18.954500 -25.088100 -9.297500
C -18.900600 -22.669800 -9.280400
C -18.870600 -20.160300 -9.336600
H -18.705000 -18.150300 -9.477800
H -18.602300 -25.916700 -9.601300
C -18.351000 -23.891000 -9.728300
C -18.326700 -21.396500 -9.740500
C -18.324400 -18.973900 -9.760000
C -17.219600 -18.973900 -10.597100
C -17.217400 -21.396500 -10.616700
C -17.193000 -23.891000 -10.628900
H -16.941700 -25.916700 -10.755800
H -16.839100 -18.150300 -10.879400
C -16.673400 -20.160300 -11.020600
C -16.643400 -22.669800 -11.076700
C -16.589500 -25.088100 -11.059600
H -15.916700 -20.148100 -11.595000
C -15.546700 -22.703500 -11.961100
C -15.510700 -25.093900 -11.902400
H -15.181200 -21.886600 -12.280100
H -15.116400 -25.917200 -12.165900
C -14.994300 -23.893700 -12.371500
H -14.260400 -23.894700 -12.975300
20
Fragment
N -28.130600 -24.429000 -1.499900
C -27.197900 -24.409100 -2.163600
F -26.879700 -21.854700 -2.442700
C -26.030500 -24.487900 -2.992500
C -25.831200 -22.033900 -3.251400
F -25.700400 -19.744200 -3.453000
C -25.584700 -25.841400 -3.193600
C -25.399800 -23.383100 -3.517700
N -25.277900 -26.942500 -3.266900
C -25.227600 -20.951300 -3.768500
C -24.251800 -23.463700 -4.374400
N -24.201500 -17.472500 -4.876000
C -24.079500 -21.031900 -4.625200
C -23.894600 -18.573600 -4.949200
F -23.778900 -24.670800 -4.689900
C -23.648200 -22.381100 -4.891400
C -23.448900 -19.927100 -5.150400
F -22.599700 -22.560300 -5.700200
C -22.281500 -20.005900 -5.979300
N -21.348700 -19.986000 -6.643000
50
Fragment
H -21.283600 -23.894700 -7.381900
C -20.549700 -23.893700 -7.985700
H -20.427600 -25.917200 -8.191300
H -20.362900 -21.886600 -8.077100
C -20.033300 -25.093900 -8.454700
C -19.997300 -22.703500 -8.396100
H -19.627300 -20.148100 -8.762200
C -18.954500 -25.088100 -9.297500
C -18.900600 -22.669800 -9.280400
C -18.870600 -20.160300 -9.336600
H -18.705000 -18.150300 -9.477800
H -18.602300 -25.916700 -9.601300
C -18.351000 -23.891000 -9.728300
C -18.326700 -21.396500 -9.740500
C -18.324400 -18.973900 -9.760000
C -17.219600 -18.973900 -10.597100
C -17.217400 -21.396500 -10.616700
C -17.193000 -23.891000 -10.628900
H -16.941700 -25.916700 -10.755800
H -16.839100 -18.150300 -10.879400
C -16.673400 -20.160300 -11.020600
C -16.643400 -22.669800 -11.076700
C -16.589500 -25.088100 -11.059600
H -15.916700 -20.148100 -11.595000
C -15.546700 -22.703500 -11.961100
C -15.510700 -25.093900 -11.902400
H -15.181200 -21.886600 -12.280100
H -15.116400 -25.917200 -12.165900
C -14.994300 -23.893700 -12.371500
H -14.260400 -23.894700 -12.975300
N -28.130600 -24.429000 -1.499900
C -27.197900 -24.409100 -2.163600
F -26.879700 -21.854700 -2.442700
C -26.030500 -24.487900 -2.992500
C -25.831200 -22.033900 -3.251400
F -25.700400 -19.744200 -3.453000
C -25.584700 -25.841400 -3.193600
C -25.399800 -23.383100 -3.517700
N -25.277900 -26.942500 -3.266900
C -25.227600 -20.951300 -3.768500
C -24.251800 -23.463700 -4.374400
N -24.201500 -17.472500 -4.876000
C -24.079500 -21.031900 -4.625200
C -23.894600 -18.573600 -4.949200
F -23.778900 -24.670800 -4.689900
C -23.648200 -22.381100 -4.891400
C -23.448900 -19.927100 -5.150400
F -22.599700 -22.560300 -5.700200
C -22.281500 -20.005900 -5.979300
N -21.348700 -19.986000 -6.643000
