42
Fragment
H -15.274000 -29.592700 -13.416700
N -15.157300 -27.756800 -14.102100
H -14.939800 -25.502400 -15.098300
F -14.913100 -25.676700 -17.620600
C -14.712800 -28.871800 -13.588600
H -14.530600 -20.989200 -13.201100
H -14.410900 -27.392900 -19.326400
N -14.356000 -22.333900 -14.644600
H -14.310400 -29.762500 -20.219600
C -14.097300 -25.632300 -14.634700
H -14.084600 -25.036400 -13.868800
N -14.021800 -27.006500 -14.167600
H -13.986600 -23.828400 -16.632300
C -13.941100 -21.496000 -13.711600
H -13.861600 -28.569900 -21.132200
C -13.790500 -26.431700 -17.686700
C -13.718300 -27.329900 -18.709600
C -13.577000 -29.382500 -20.708200
N -13.401000 -28.914500 -13.324600
H -13.278800 -30.004800 -21.374700
N -13.179400 -22.832800 -15.107500
C -13.151400 -23.853700 -16.139900
C -13.002100 -27.714200 -13.697200
C -12.947500 -25.258900 -15.576100
C -12.820700 -26.250600 -16.718600
N -12.617600 -21.428600 -13.552400
C -12.596900 -28.152700 -18.825200
N -12.501200 -29.097800 -19.806700
H -12.433700 -23.654700 -16.761500
C -12.165800 -22.276500 -14.445200
H -12.126500 -27.405900 -13.638500
H -11.818200 -24.950800 -14.130800
O -11.714800 -25.278400 -14.875500
C -11.711100 -27.065500 -16.865400
C -11.590500 -27.975200 -17.878800
H -11.512800 -30.656500 -20.524200
C -11.326000 -29.919900 -19.935600
H -11.266500 -22.462900 -14.595000
H -11.074300 -30.256600 -19.073000
H -11.018600 -26.992000 -16.248500
H -10.817500 -28.489100 -17.937300
H -10.606900 -29.397200 -20.297500
42
Fragment
H -19.249200 -26.411800 -4.072200
H -19.038500 -27.320000 -6.432400
H -18.837400 -28.817100 -8.121200
H -18.781700 -25.552400 -5.296800
H -18.589600 -33.346200 -9.774700
C -18.530000 -25.889200 -4.434100
H -18.343200 -25.152600 -3.845500
C -18.265500 -27.833900 -6.490900
C -18.144900 -28.743600 -7.504300
O -18.141300 -30.530700 -9.494200
H -18.037800 -30.858300 -10.238900
H -17.729600 -28.403200 -10.731200
C -17.690300 -33.532600 -9.924600
H -17.422300 -32.154400 -7.608200
N -17.354800 -26.711300 -4.563000
C -17.259200 -27.656400 -5.544500
N -17.238500 -34.380500 -10.817400
C -17.035300 -29.558500 -7.651100
C -16.908500 -30.550200 -8.793600
C -16.854000 -28.094800 -10.672500
C -16.704600 -31.955400 -8.229800
N -16.676600 -32.976300 -9.262200
H -16.577200 -25.804300 -2.995000
N -16.455000 -26.894600 -11.045100
C -16.279100 -26.426600 -3.661600
C -16.137800 -28.479200 -5.660100
C -16.065600 -29.377400 -6.683000
H -15.994400 -27.239200 -3.237500
C -15.915000 -34.313100 -10.658100
H -15.869500 -31.980700 -7.737400
N -15.834200 -28.802600 -10.202100
H -15.771400 -30.772700 -10.500900
C -15.758700 -30.176800 -9.735000
H -15.545600 -26.046600 -4.150200
N -15.500100 -33.475200 -9.725100
H -15.445100 -28.416200 -5.043300
H -15.325500 -34.819900 -11.168600
C -15.143300 -26.937300 -10.781200
F -14.943000 -30.132400 -6.749100
H -14.916300 -30.306700 -9.271500
N -14.698700 -28.052300 -10.267600
H -14.582000 -26.216400 -10.953000
84
Fragment
H -15.274000 -29.592700 -13.416700
N -15.157300 -27.756800 -14.102100
H -14.939800 -25.502400 -15.098300
F -14.913100 -25.676700 -17.620600
C -14.712800 -28.871800 -13.588600
H -14.530600 -20.989200 -13.201100
H -14.410900 -27.392900 -19.326400
N -14.356000 -22.333900 -14.644600
H -14.310400 -29.762500 -20.219600
C -14.097300 -25.632300 -14.634700
H -14.084600 -25.036400 -13.868800
N -14.021800 -27.006500 -14.167600
H -13.986600 -23.828400 -16.632300
C -13.941100 -21.496000 -13.711600
H -13.861600 -28.569900 -21.132200
C -13.790500 -26.431700 -17.686700
C -13.718300 -27.329900 -18.709600
C -13.577000 -29.382500 -20.708200
N -13.401000 -28.914500 -13.324600
H -13.278800 -30.004800 -21.374700
N -13.179400 -22.832800 -15.107500
C -13.151400 -23.853700 -16.139900
C -13.002100 -27.714200 -13.697200
C -12.947500 -25.258900 -15.576100
C -12.820700 -26.250600 -16.718600
N -12.617600 -21.428600 -13.552400
C -12.596900 -28.152700 -18.825200
N -12.501200 -29.097800 -19.806700
H -12.433700 -23.654700 -16.761500
C -12.165800 -22.276500 -14.445200
H -12.126500 -27.405900 -13.638500
H -11.818200 -24.950800 -14.130800
O -11.714800 -25.278400 -14.875500
C -11.711100 -27.065500 -16.865400
C -11.590500 -27.975200 -17.878800
H -11.512800 -30.656500 -20.524200
C -11.326000 -29.919900 -19.935600
H -11.266500 -22.462900 -14.595000
H -11.074300 -30.256600 -19.073000
H -11.018600 -26.992000 -16.248500
H -10.817500 -28.489100 -17.937300
H -10.606900 -29.397200 -20.297500
H -19.249200 -26.411800 -4.072200
H -19.038500 -27.320000 -6.432400
H -18.837400 -28.817100 -8.121200
H -18.781700 -25.552400 -5.296800
H -18.589600 -33.346200 -9.774700
C -18.530000 -25.889200 -4.434100
H -18.343200 -25.152600 -3.845500
C -18.265500 -27.833900 -6.490900
C -18.144900 -28.743600 -7.504300
O -18.141300 -30.530700 -9.494200
H -18.037800 -30.858300 -10.238900
H -17.729600 -28.403200 -10.731200
C -17.690300 -33.532600 -9.924600
H -17.422300 -32.154400 -7.608200
N -17.354800 -26.711300 -4.563000
C -17.259200 -27.656400 -5.544500
N -17.238500 -34.380500 -10.817400
C -17.035300 -29.558500 -7.651100
C -16.908500 -30.550200 -8.793600
C -16.854000 -28.094800 -10.672500
C -16.704600 -31.955400 -8.229800
N -16.676600 -32.976300 -9.262200
H -16.577200 -25.804300 -2.995000
N -16.455000 -26.894600 -11.045100
C -16.279100 -26.426600 -3.661600
C -16.137800 -28.479200 -5.660100
C -16.065600 -29.377400 -6.683000
H -15.994400 -27.239200 -3.237500
C -15.915000 -34.313100 -10.658100
H -15.869500 -31.980700 -7.737400
N -15.834200 -28.802600 -10.202100
H -15.771400 -30.772700 -10.500900
C -15.758700 -30.176800 -9.735000
H -15.545600 -26.046600 -4.150200
N -15.500100 -33.475200 -9.725100
H -15.445100 -28.416200 -5.043300
H -15.325500 -34.819900 -11.168600
C -15.143300 -26.937300 -10.781200
F -14.943000 -30.132400 -6.749100
H -14.916300 -30.306700 -9.271500
N -14.698700 -28.052300 -10.267600
H -14.582000 -26.216400 -10.953000
