42
Fragment
H -15.274000 -29.592700 -13.416700
N -15.157300 -27.756800 -14.102100
H -14.939800 -25.502400 -15.098300
F -14.913100 -25.676700 -17.620600
C -14.712800 -28.871800 -13.588600
H -14.530600 -20.989200 -13.201100
H -14.410900 -27.392900 -19.326400
N -14.356000 -22.333900 -14.644600
H -14.310400 -29.762500 -20.219600
C -14.097300 -25.632300 -14.634700
H -14.084600 -25.036400 -13.868800
N -14.021800 -27.006500 -14.167600
H -13.986600 -23.828400 -16.632300
C -13.941100 -21.496000 -13.711600
H -13.861600 -28.569900 -21.132200
C -13.790500 -26.431700 -17.686700
C -13.718300 -27.329900 -18.709600
C -13.577000 -29.382500 -20.708200
N -13.401000 -28.914500 -13.324600
H -13.278800 -30.004800 -21.374700
N -13.179400 -22.832800 -15.107500
C -13.151400 -23.853700 -16.139900
C -13.002100 -27.714200 -13.697200
C -12.947500 -25.258900 -15.576100
C -12.820700 -26.250600 -16.718600
N -12.617600 -21.428600 -13.552400
C -12.596900 -28.152700 -18.825200
N -12.501200 -29.097800 -19.806700
H -12.433700 -23.654700 -16.761500
C -12.165800 -22.276500 -14.445200
H -12.126500 -27.405900 -13.638500
H -11.818200 -24.950800 -14.130800
O -11.714800 -25.278400 -14.875500
C -11.711100 -27.065500 -16.865400
C -11.590500 -27.975200 -17.878800
H -11.512800 -30.656500 -20.524200
C -11.326000 -29.919900 -19.935600
H -11.266500 -22.462900 -14.595000
H -11.074300 -30.256600 -19.073000
H -11.018600 -26.992000 -16.248500
H -10.817500 -28.489100 -17.937300
H -10.606900 -29.397200 -20.297500
42
Fragment
H -21.082800 -29.592700 -13.416700
N -20.966100 -27.756800 -14.102100
H -20.748600 -25.502400 -15.098300
F -20.721900 -25.676700 -17.620600
C -20.521600 -28.871800 -13.588600
H -20.339400 -20.989200 -13.201100
H -20.219700 -27.392900 -19.326400
N -20.164800 -22.333900 -14.644600
H -20.119200 -29.762500 -20.219600
C -19.906100 -25.632300 -14.634700
H -19.893400 -25.036400 -13.868800
N -19.830600 -27.006500 -14.167600
H -19.795400 -23.828400 -16.632300
C -19.749900 -21.496000 -13.711600
H -19.670400 -28.569900 -21.132200
C -19.599300 -26.431700 -17.686700
C -19.527100 -27.329900 -18.709600
C -19.385800 -29.382500 -20.708200
N -19.209800 -28.914500 -13.324600
H -19.087600 -30.004800 -21.374700
N -18.988200 -22.832800 -15.107500
C -18.960200 -23.853700 -16.139900
C -18.810900 -27.714200 -13.697200
C -18.756300 -25.258900 -15.576100
C -18.629500 -26.250600 -16.718600
N -18.426400 -21.428600 -13.552400
C -18.405700 -28.152700 -18.825200
N -18.310000 -29.097800 -19.806700
H -18.242500 -23.654700 -16.761500
C -17.974600 -22.276500 -14.445200
H -17.935300 -27.405900 -13.638500
H -17.627000 -24.950800 -14.130800
O -17.523600 -25.278400 -14.875500
C -17.519900 -27.065500 -16.865400
C -17.399300 -27.975200 -17.878800
H -17.321600 -30.656500 -20.524200
C -17.134800 -29.919900 -19.935600
H -17.075300 -22.462900 -14.595000
H -16.883100 -30.256600 -19.073000
H -16.827400 -26.992000 -16.248500
H -16.626300 -28.489100 -17.937300
H -16.415700 -29.397200 -20.297500
84
Fragment
H -15.274000 -29.592700 -13.416700
N -15.157300 -27.756800 -14.102100
H -14.939800 -25.502400 -15.098300
F -14.913100 -25.676700 -17.620600
C -14.712800 -28.871800 -13.588600
H -14.530600 -20.989200 -13.201100
H -14.410900 -27.392900 -19.326400
N -14.356000 -22.333900 -14.644600
H -14.310400 -29.762500 -20.219600
C -14.097300 -25.632300 -14.634700
H -14.084600 -25.036400 -13.868800
N -14.021800 -27.006500 -14.167600
H -13.986600 -23.828400 -16.632300
C -13.941100 -21.496000 -13.711600
H -13.861600 -28.569900 -21.132200
C -13.790500 -26.431700 -17.686700
C -13.718300 -27.329900 -18.709600
C -13.577000 -29.382500 -20.708200
N -13.401000 -28.914500 -13.324600
H -13.278800 -30.004800 -21.374700
N -13.179400 -22.832800 -15.107500
C -13.151400 -23.853700 -16.139900
C -13.002100 -27.714200 -13.697200
C -12.947500 -25.258900 -15.576100
C -12.820700 -26.250600 -16.718600
N -12.617600 -21.428600 -13.552400
C -12.596900 -28.152700 -18.825200
N -12.501200 -29.097800 -19.806700
H -12.433700 -23.654700 -16.761500
C -12.165800 -22.276500 -14.445200
H -12.126500 -27.405900 -13.638500
H -11.818200 -24.950800 -14.130800
O -11.714800 -25.278400 -14.875500
C -11.711100 -27.065500 -16.865400
C -11.590500 -27.975200 -17.878800
H -11.512800 -30.656500 -20.524200
C -11.326000 -29.919900 -19.935600
H -11.266500 -22.462900 -14.595000
H -11.074300 -30.256600 -19.073000
H -11.018600 -26.992000 -16.248500
H -10.817500 -28.489100 -17.937300
H -10.606900 -29.397200 -20.297500
H -21.082800 -29.592700 -13.416700
N -20.966100 -27.756800 -14.102100
H -20.748600 -25.502400 -15.098300
F -20.721900 -25.676700 -17.620600
C -20.521600 -28.871800 -13.588600
H -20.339400 -20.989200 -13.201100
H -20.219700 -27.392900 -19.326400
N -20.164800 -22.333900 -14.644600
H -20.119200 -29.762500 -20.219600
C -19.906100 -25.632300 -14.634700
H -19.893400 -25.036400 -13.868800
N -19.830600 -27.006500 -14.167600
H -19.795400 -23.828400 -16.632300
C -19.749900 -21.496000 -13.711600
H -19.670400 -28.569900 -21.132200
C -19.599300 -26.431700 -17.686700
C -19.527100 -27.329900 -18.709600
C -19.385800 -29.382500 -20.708200
N -19.209800 -28.914500 -13.324600
H -19.087600 -30.004800 -21.374700
N -18.988200 -22.832800 -15.107500
C -18.960200 -23.853700 -16.139900
C -18.810900 -27.714200 -13.697200
C -18.756300 -25.258900 -15.576100
C -18.629500 -26.250600 -16.718600
N -18.426400 -21.428600 -13.552400
C -18.405700 -28.152700 -18.825200
N -18.310000 -29.097800 -19.806700
H -18.242500 -23.654700 -16.761500
C -17.974600 -22.276500 -14.445200
H -17.935300 -27.405900 -13.638500
H -17.627000 -24.950800 -14.130800
O -17.523600 -25.278400 -14.875500
C -17.519900 -27.065500 -16.865400
C -17.399300 -27.975200 -17.878800
H -17.321600 -30.656500 -20.524200
C -17.134800 -29.919900 -19.935600
H -17.075300 -22.462900 -14.595000
H -16.883100 -30.256600 -19.073000
H -16.827400 -26.992000 -16.248500
H -16.626300 -28.489100 -17.937300
H -16.415700 -29.397200 -20.297500
