42
Fragment
H -15.274000 -29.592700 -13.416700
N -15.157300 -27.756800 -14.102100
H -14.939800 -25.502400 -15.098300
F -14.913100 -25.676700 -17.620600
C -14.712800 -28.871800 -13.588600
H -14.530600 -20.989200 -13.201100
H -14.410900 -27.392900 -19.326400
N -14.356000 -22.333900 -14.644600
H -14.310400 -29.762500 -20.219600
C -14.097300 -25.632300 -14.634700
H -14.084600 -25.036400 -13.868800
N -14.021800 -27.006500 -14.167600
H -13.986600 -23.828400 -16.632300
C -13.941100 -21.496000 -13.711600
H -13.861600 -28.569900 -21.132200
C -13.790500 -26.431700 -17.686700
C -13.718300 -27.329900 -18.709600
C -13.577000 -29.382500 -20.708200
N -13.401000 -28.914500 -13.324600
H -13.278800 -30.004800 -21.374700
N -13.179400 -22.832800 -15.107500
C -13.151400 -23.853700 -16.139900
C -13.002100 -27.714200 -13.697200
C -12.947500 -25.258900 -15.576100
C -12.820700 -26.250600 -16.718600
N -12.617600 -21.428600 -13.552400
C -12.596900 -28.152700 -18.825200
N -12.501200 -29.097800 -19.806700
H -12.433700 -23.654700 -16.761500
C -12.165800 -22.276500 -14.445200
H -12.126500 -27.405900 -13.638500
H -11.818200 -24.950800 -14.130800
O -11.714800 -25.278400 -14.875500
C -11.711100 -27.065500 -16.865400
C -11.590500 -27.975200 -17.878800
H -11.512800 -30.656500 -20.524200
C -11.326000 -29.919900 -19.935600
H -11.266500 -22.462900 -14.595000
H -11.074300 -30.256600 -19.073000
H -11.018600 -26.992000 -16.248500
H -10.817500 -28.489100 -17.937300
H -10.606900 -29.397200 -20.297500
42
Fragment
H -19.423300 -19.456200 -16.257000
H -19.212600 -20.364300 -18.617200
H -19.011500 -21.861400 -20.306100
H -18.955800 -18.596800 -17.481600
H -18.763700 -26.390600 -21.959600
C -18.704100 -18.933500 -16.618900
H -18.517300 -18.197000 -16.030400
C -18.439600 -20.878300 -18.675700
C -18.319000 -21.787900 -19.689100
O -18.315400 -23.575000 -21.679100
H -18.211900 -23.902700 -22.423800
H -17.903700 -21.447500 -22.916100
C -17.864300 -26.576900 -22.109400
H -17.596400 -25.198700 -19.793100
N -17.528900 -19.755600 -16.747800
C -17.433300 -20.700700 -17.729300
N -17.412600 -27.424900 -23.002200
C -17.209400 -22.602800 -19.836000
C -17.082600 -23.594500 -20.978400
C -17.028100 -21.139200 -22.857300
C -16.878700 -24.999700 -20.414600
N -16.850700 -26.020700 -21.447100
H -16.751300 -18.848600 -15.179900
N -16.629100 -19.938900 -23.229900
C -16.453200 -19.471000 -15.846400
C -16.311900 -21.523500 -17.845000
C -16.239700 -22.421800 -18.867900
H -16.168500 -20.283600 -15.422400
C -16.089000 -27.357400 -22.843000
H -16.043600 -25.025000 -19.922200
N -16.008300 -21.846900 -22.387000
H -15.945500 -23.817000 -22.685800
C -15.932800 -23.221100 -21.919800
H -15.719700 -19.091000 -16.335000
N -15.674200 -26.519500 -21.910000
H -15.619200 -21.460600 -17.228200
H -15.499600 -27.864300 -23.353500
C -15.317400 -19.981600 -22.966000
F -15.117100 -23.176800 -18.933900
H -15.090400 -23.351000 -21.456300
N -14.872800 -21.096700 -22.452400
H -14.756100 -19.260700 -23.137800
84
Fragment
H -15.274000 -29.592700 -13.416700
N -15.157300 -27.756800 -14.102100
H -14.939800 -25.502400 -15.098300
F -14.913100 -25.676700 -17.620600
C -14.712800 -28.871800 -13.588600
H -14.530600 -20.989200 -13.201100
H -14.410900 -27.392900 -19.326400
N -14.356000 -22.333900 -14.644600
H -14.310400 -29.762500 -20.219600
C -14.097300 -25.632300 -14.634700
H -14.084600 -25.036400 -13.868800
N -14.021800 -27.006500 -14.167600
H -13.986600 -23.828400 -16.632300
C -13.941100 -21.496000 -13.711600
H -13.861600 -28.569900 -21.132200
C -13.790500 -26.431700 -17.686700
C -13.718300 -27.329900 -18.709600
C -13.577000 -29.382500 -20.708200
N -13.401000 -28.914500 -13.324600
H -13.278800 -30.004800 -21.374700
N -13.179400 -22.832800 -15.107500
C -13.151400 -23.853700 -16.139900
C -13.002100 -27.714200 -13.697200
C -12.947500 -25.258900 -15.576100
C -12.820700 -26.250600 -16.718600
N -12.617600 -21.428600 -13.552400
C -12.596900 -28.152700 -18.825200
N -12.501200 -29.097800 -19.806700
H -12.433700 -23.654700 -16.761500
C -12.165800 -22.276500 -14.445200
H -12.126500 -27.405900 -13.638500
H -11.818200 -24.950800 -14.130800
O -11.714800 -25.278400 -14.875500
C -11.711100 -27.065500 -16.865400
C -11.590500 -27.975200 -17.878800
H -11.512800 -30.656500 -20.524200
C -11.326000 -29.919900 -19.935600
H -11.266500 -22.462900 -14.595000
H -11.074300 -30.256600 -19.073000
H -11.018600 -26.992000 -16.248500
H -10.817500 -28.489100 -17.937300
H -10.606900 -29.397200 -20.297500
H -19.423300 -19.456200 -16.257000
H -19.212600 -20.364300 -18.617200
H -19.011500 -21.861400 -20.306100
H -18.955800 -18.596800 -17.481600
H -18.763700 -26.390600 -21.959600
C -18.704100 -18.933500 -16.618900
H -18.517300 -18.197000 -16.030400
C -18.439600 -20.878300 -18.675700
C -18.319000 -21.787900 -19.689100
O -18.315400 -23.575000 -21.679100
H -18.211900 -23.902700 -22.423800
H -17.903700 -21.447500 -22.916100
C -17.864300 -26.576900 -22.109400
H -17.596400 -25.198700 -19.793100
N -17.528900 -19.755600 -16.747800
C -17.433300 -20.700700 -17.729300
N -17.412600 -27.424900 -23.002200
C -17.209400 -22.602800 -19.836000
C -17.082600 -23.594500 -20.978400
C -17.028100 -21.139200 -22.857300
C -16.878700 -24.999700 -20.414600
N -16.850700 -26.020700 -21.447100
H -16.751300 -18.848600 -15.179900
N -16.629100 -19.938900 -23.229900
C -16.453200 -19.471000 -15.846400
C -16.311900 -21.523500 -17.845000
C -16.239700 -22.421800 -18.867900
H -16.168500 -20.283600 -15.422400
C -16.089000 -27.357400 -22.843000
H -16.043600 -25.025000 -19.922200
N -16.008300 -21.846900 -22.387000
H -15.945500 -23.817000 -22.685800
C -15.932800 -23.221100 -21.919800
H -15.719700 -19.091000 -16.335000
N -15.674200 -26.519500 -21.910000
H -15.619200 -21.460600 -17.228200
H -15.499600 -27.864300 -23.353500
C -15.317400 -19.981600 -22.966000
F -15.117100 -23.176800 -18.933900
H -15.090400 -23.351000 -21.456300
N -14.872800 -21.096700 -22.452400
H -14.756100 -19.260700 -23.137800
