42
Fragment
H -15.274000 -29.592700 -13.416700
N -15.157300 -27.756800 -14.102100
H -14.939800 -25.502400 -15.098300
F -14.913100 -25.676700 -17.620600
C -14.712800 -28.871800 -13.588600
H -14.530600 -20.989200 -13.201100
H -14.410900 -27.392900 -19.326400
N -14.356000 -22.333900 -14.644600
H -14.310400 -29.762500 -20.219600
C -14.097300 -25.632300 -14.634700
H -14.084600 -25.036400 -13.868800
N -14.021800 -27.006500 -14.167600
H -13.986600 -23.828400 -16.632300
C -13.941100 -21.496000 -13.711600
H -13.861600 -28.569900 -21.132200
C -13.790500 -26.431700 -17.686700
C -13.718300 -27.329900 -18.709600
C -13.577000 -29.382500 -20.708200
N -13.401000 -28.914500 -13.324600
H -13.278800 -30.004800 -21.374700
N -13.179400 -22.832800 -15.107500
C -13.151400 -23.853700 -16.139900
C -13.002100 -27.714200 -13.697200
C -12.947500 -25.258900 -15.576100
C -12.820700 -26.250600 -16.718600
N -12.617600 -21.428600 -13.552400
C -12.596900 -28.152700 -18.825200
N -12.501200 -29.097800 -19.806700
H -12.433700 -23.654700 -16.761500
C -12.165800 -22.276500 -14.445200
H -12.126500 -27.405900 -13.638500
H -11.818200 -24.950800 -14.130800
O -11.714800 -25.278400 -14.875500
C -11.711100 -27.065500 -16.865400
C -11.590500 -27.975200 -17.878800
H -11.512800 -30.656500 -20.524200
C -11.326000 -29.919900 -19.935600
H -11.266500 -22.462900 -14.595000
H -11.074300 -30.256600 -19.073000
H -11.018600 -26.992000 -16.248500
H -10.817500 -28.489100 -17.937300
H -10.606900 -29.397200 -20.297500
42
Fragment
H -18.203700 -14.791800 -4.072200
H -17.993100 -15.699900 -6.432400
H -17.792000 -17.197000 -8.121200
H -17.736300 -13.932400 -5.296800
H -17.544100 -21.726200 -9.774700
C -17.484600 -14.269100 -4.434100
H -17.297800 -13.532600 -3.845500
C -17.220100 -16.213800 -6.490900
C -17.099500 -17.123500 -7.504300
O -17.095800 -18.910600 -9.494200
H -16.992400 -19.238200 -10.238900
H -16.684100 -16.783100 -10.731200
C -16.644800 -21.912500 -9.924600
H -16.376900 -20.534300 -7.608200
N -16.309400 -15.091200 -4.563000
C -16.213700 -16.036300 -5.544500
N -16.193000 -22.760500 -10.817400
C -15.989900 -17.938400 -7.651100
C -15.863100 -18.930100 -8.793600
C -15.808500 -16.474800 -10.672500
C -15.659200 -20.335300 -8.229800
N -15.631200 -21.356300 -9.262200
H -15.531800 -14.184200 -2.995000
N -15.409600 -15.274500 -11.045100
C -15.233600 -14.806600 -3.661600
C -15.092300 -16.859100 -5.660100
C -15.020100 -17.757300 -6.683000
H -14.949000 -15.619200 -3.237500
C -14.869500 -22.693000 -10.658100
H -14.824000 -20.360600 -7.737400
N -14.788800 -17.182500 -10.202100
H -14.726000 -19.152600 -10.500900
C -14.713300 -18.556700 -9.735000
H -14.500200 -14.426500 -4.150200
N -14.454600 -21.855100 -9.725100
H -14.399700 -16.796200 -5.043300
H -14.280000 -23.199800 -11.168600
C -14.097800 -15.317200 -10.781200
F -13.897500 -18.512400 -6.749100
H -13.870800 -18.686600 -9.271500
N -13.653300 -16.432300 -10.267600
H -13.536600 -14.596300 -10.953000
84
Fragment
H -15.274000 -29.592700 -13.416700
N -15.157300 -27.756800 -14.102100
H -14.939800 -25.502400 -15.098300
F -14.913100 -25.676700 -17.620600
C -14.712800 -28.871800 -13.588600
H -14.530600 -20.989200 -13.201100
H -14.410900 -27.392900 -19.326400
N -14.356000 -22.333900 -14.644600
H -14.310400 -29.762500 -20.219600
C -14.097300 -25.632300 -14.634700
H -14.084600 -25.036400 -13.868800
N -14.021800 -27.006500 -14.167600
H -13.986600 -23.828400 -16.632300
C -13.941100 -21.496000 -13.711600
H -13.861600 -28.569900 -21.132200
C -13.790500 -26.431700 -17.686700
C -13.718300 -27.329900 -18.709600
C -13.577000 -29.382500 -20.708200
N -13.401000 -28.914500 -13.324600
H -13.278800 -30.004800 -21.374700
N -13.179400 -22.832800 -15.107500
C -13.151400 -23.853700 -16.139900
C -13.002100 -27.714200 -13.697200
C -12.947500 -25.258900 -15.576100
C -12.820700 -26.250600 -16.718600
N -12.617600 -21.428600 -13.552400
C -12.596900 -28.152700 -18.825200
N -12.501200 -29.097800 -19.806700
H -12.433700 -23.654700 -16.761500
C -12.165800 -22.276500 -14.445200
H -12.126500 -27.405900 -13.638500
H -11.818200 -24.950800 -14.130800
O -11.714800 -25.278400 -14.875500
C -11.711100 -27.065500 -16.865400
C -11.590500 -27.975200 -17.878800
H -11.512800 -30.656500 -20.524200
C -11.326000 -29.919900 -19.935600
H -11.266500 -22.462900 -14.595000
H -11.074300 -30.256600 -19.073000
H -11.018600 -26.992000 -16.248500
H -10.817500 -28.489100 -17.937300
H -10.606900 -29.397200 -20.297500
H -18.203700 -14.791800 -4.072200
H -17.993100 -15.699900 -6.432400
H -17.792000 -17.197000 -8.121200
H -17.736300 -13.932400 -5.296800
H -17.544100 -21.726200 -9.774700
C -17.484600 -14.269100 -4.434100
H -17.297800 -13.532600 -3.845500
C -17.220100 -16.213800 -6.490900
C -17.099500 -17.123500 -7.504300
O -17.095800 -18.910600 -9.494200
H -16.992400 -19.238200 -10.238900
H -16.684100 -16.783100 -10.731200
C -16.644800 -21.912500 -9.924600
H -16.376900 -20.534300 -7.608200
N -16.309400 -15.091200 -4.563000
C -16.213700 -16.036300 -5.544500
N -16.193000 -22.760500 -10.817400
C -15.989900 -17.938400 -7.651100
C -15.863100 -18.930100 -8.793600
C -15.808500 -16.474800 -10.672500
C -15.659200 -20.335300 -8.229800
N -15.631200 -21.356300 -9.262200
H -15.531800 -14.184200 -2.995000
N -15.409600 -15.274500 -11.045100
C -15.233600 -14.806600 -3.661600
C -15.092300 -16.859100 -5.660100
C -15.020100 -17.757300 -6.683000
H -14.949000 -15.619200 -3.237500
C -14.869500 -22.693000 -10.658100
H -14.824000 -20.360600 -7.737400
N -14.788800 -17.182500 -10.202100
H -14.726000 -19.152600 -10.500900
C -14.713300 -18.556700 -9.735000
H -14.500200 -14.426500 -4.150200
N -14.454600 -21.855100 -9.725100
H -14.399700 -16.796200 -5.043300
H -14.280000 -23.199800 -11.168600
C -14.097800 -15.317200 -10.781200
F -13.897500 -18.512400 -6.749100
H -13.870800 -18.686600 -9.271500
N -13.653300 -16.432300 -10.267600
H -13.536600 -14.596300 -10.953000
