15
Fragment
O -20.473500 -8.583800 -30.770600
O -19.663000 -10.421200 -30.060400
N -19.552000 -9.340600 -30.573500
O -18.851600 -10.943800 -32.892400
O -18.547600 -7.573700 -28.536700
C -18.241500 -8.893500 -31.015100
N -17.753400 -10.381200 -33.015600
N -17.688200 -7.118000 -29.288100
C -17.520800 -9.293500 -32.120900
C -17.487200 -7.843300 -30.522700
O -17.009000 -6.134600 -29.078000
O -16.908800 -10.660500 -33.838200
N -16.438200 -8.510300 -32.259200
N -16.409800 -7.600000 -31.274700
H -15.912900 -8.383600 -32.959000
15
Fragment
H -21.336000 -5.849300 -34.941700
N -20.839100 -5.065700 -36.626000
N -20.810600 -5.976000 -35.641400
O -20.340100 -8.126100 -34.062500
O -20.239900 -3.600300 -38.822700
C -19.761700 -5.309000 -37.378000
C -19.728100 -6.759100 -35.779800
N -19.560600 -4.583600 -38.612600
N -19.495500 -7.846900 -34.885000
C -19.007300 -6.359200 -36.885600
O -18.701300 -5.039300 -39.363900
O -18.397300 -8.409500 -35.008200
N -17.696900 -6.806300 -37.327100
O -17.585800 -7.886900 -37.840300
O -16.775400 -6.049500 -37.130000
30
Fragment
O -20.473500 -8.583800 -30.770600
O -19.663000 -10.421200 -30.060400
N -19.552000 -9.340600 -30.573500
O -18.851600 -10.943800 -32.892400
O -18.547600 -7.573700 -28.536700
C -18.241500 -8.893500 -31.015100
N -17.753400 -10.381200 -33.015600
N -17.688200 -7.118000 -29.288100
C -17.520800 -9.293500 -32.120900
C -17.487200 -7.843300 -30.522700
O -17.009000 -6.134600 -29.078000
O -16.908800 -10.660500 -33.838200
N -16.438200 -8.510300 -32.259200
N -16.409800 -7.600000 -31.274700
H -15.912900 -8.383600 -32.959000
H -21.336000 -5.849300 -34.941700
N -20.839100 -5.065700 -36.626000
N -20.810600 -5.976000 -35.641400
O -20.340100 -8.126100 -34.062500
O -20.239900 -3.600300 -38.822700
C -19.761700 -5.309000 -37.378000
C -19.728100 -6.759100 -35.779800
N -19.560600 -4.583600 -38.612600
N -19.495500 -7.846900 -34.885000
C -19.007300 -6.359200 -36.885600
O -18.701300 -5.039300 -39.363900
O -18.397300 -8.409500 -35.008200
N -17.696900 -6.806300 -37.327100
O -17.585800 -7.886900 -37.840300
O -16.775400 -6.049500 -37.130000
