15
Fragment
O -20.473500 -8.583800 -30.770600
O -19.663000 -10.421200 -30.060400
N -19.552000 -9.340600 -30.573500
O -18.851600 -10.943800 -32.892400
O -18.547600 -7.573700 -28.536700
C -18.241500 -8.893500 -31.015100
N -17.753400 -10.381200 -33.015600
N -17.688200 -7.118000 -29.288100
C -17.520800 -9.293500 -32.120900
C -17.487200 -7.843300 -30.522700
O -17.009000 -6.134600 -29.078000
O -16.908800 -10.660500 -33.838200
N -16.438200 -8.510300 -32.259200
N -16.409800 -7.600000 -31.274700
H -15.912900 -8.383600 -32.959000
21
Fragment
H -21.293800 -6.106200 -22.156800
H -21.166400 -5.223800 -19.895500
C -20.752000 -5.409800 -21.863200
C -20.665500 -4.910600 -20.613700
N -19.862700 -4.664200 -22.613800
N -19.840900 -5.610000 -24.840600
N -19.747300 -3.878600 -20.520000
C -19.465900 -4.767100 -23.937900
C -19.296100 -3.784800 -21.736200
H -19.137100 -5.697100 -26.775900
C -19.077200 -5.266900 -25.953600
N -18.495400 -3.889200 -24.370100
N -18.329000 -2.923100 -22.237700
C -18.240600 -4.239000 -25.702100
C -17.928600 -2.957600 -23.540400
H -17.655600 -1.658100 -20.720600
H -17.629700 -3.848600 -26.284500
C -17.601300 -1.918000 -21.611800
N -17.014600 -2.047200 -23.770900
C -16.806700 -1.402500 -22.555400
H -16.200600 -0.710400 -22.418900
36
Fragment
O -20.473500 -8.583800 -30.770600
O -19.663000 -10.421200 -30.060400
N -19.552000 -9.340600 -30.573500
O -18.851600 -10.943800 -32.892400
O -18.547600 -7.573700 -28.536700
C -18.241500 -8.893500 -31.015100
N -17.753400 -10.381200 -33.015600
N -17.688200 -7.118000 -29.288100
C -17.520800 -9.293500 -32.120900
C -17.487200 -7.843300 -30.522700
O -17.009000 -6.134600 -29.078000
O -16.908800 -10.660500 -33.838200
N -16.438200 -8.510300 -32.259200
N -16.409800 -7.600000 -31.274700
H -15.912900 -8.383600 -32.959000
H -21.293800 -6.106200 -22.156800
H -21.166400 -5.223800 -19.895500
C -20.752000 -5.409800 -21.863200
C -20.665500 -4.910600 -20.613700
N -19.862700 -4.664200 -22.613800
N -19.840900 -5.610000 -24.840600
N -19.747300 -3.878600 -20.520000
C -19.465900 -4.767100 -23.937900
C -19.296100 -3.784800 -21.736200
H -19.137100 -5.697100 -26.775900
C -19.077200 -5.266900 -25.953600
N -18.495400 -3.889200 -24.370100
N -18.329000 -2.923100 -22.237700
C -18.240600 -4.239000 -25.702100
C -17.928600 -2.957600 -23.540400
H -17.655600 -1.658100 -20.720600
H -17.629700 -3.848600 -26.284500
C -17.601300 -1.918000 -21.611800
N -17.014600 -2.047200 -23.770900
C -16.806700 -1.402500 -22.555400
H -16.200600 -0.710400 -22.418900
