15
Fragment
O -20.473500 -8.583800 -30.770600
O -19.663000 -10.421200 -30.060400
N -19.552000 -9.340600 -30.573500
O -18.851600 -10.943800 -32.892400
O -18.547600 -7.573700 -28.536700
C -18.241500 -8.893500 -31.015100
N -17.753400 -10.381200 -33.015600
N -17.688200 -7.118000 -29.288100
C -17.520800 -9.293500 -32.120900
C -17.487200 -7.843300 -30.522700
O -17.009000 -6.134600 -29.078000
O -16.908800 -10.660500 -33.838200
N -16.438200 -8.510300 -32.259200
N -16.409800 -7.600000 -31.274700
H -15.912900 -8.383600 -32.959000
21
Fragment
H -26.615100 -6.565600 -31.856900
H -26.487700 -7.447900 -29.595600
C -26.073300 -7.261900 -31.563300
C -25.986800 -7.761200 -30.313800
N -25.184000 -8.007500 -32.313900
N -25.162100 -7.061700 -34.540700
N -25.068600 -8.793200 -30.220100
C -24.787200 -7.904600 -33.638000
C -24.617400 -8.887000 -31.436300
H -24.458300 -6.974700 -36.476000
C -24.398400 -7.404900 -35.653700
N -23.816700 -8.782500 -34.070200
N -23.650300 -9.748600 -31.937800
C -23.561900 -8.432800 -35.402200
C -23.249900 -9.714200 -33.240500
H -22.976900 -11.013600 -30.420700
H -22.951000 -8.823200 -35.984600
C -22.922500 -10.753800 -31.311900
N -22.335900 -10.624500 -33.470900
C -22.127900 -11.269200 -32.255500
H -21.521800 -11.961400 -32.118900
36
Fragment
O -20.473500 -8.583800 -30.770600
O -19.663000 -10.421200 -30.060400
N -19.552000 -9.340600 -30.573500
O -18.851600 -10.943800 -32.892400
O -18.547600 -7.573700 -28.536700
C -18.241500 -8.893500 -31.015100
N -17.753400 -10.381200 -33.015600
N -17.688200 -7.118000 -29.288100
C -17.520800 -9.293500 -32.120900
C -17.487200 -7.843300 -30.522700
O -17.009000 -6.134600 -29.078000
O -16.908800 -10.660500 -33.838200
N -16.438200 -8.510300 -32.259200
N -16.409800 -7.600000 -31.274700
H -15.912900 -8.383600 -32.959000
H -26.615100 -6.565600 -31.856900
H -26.487700 -7.447900 -29.595600
C -26.073300 -7.261900 -31.563300
C -25.986800 -7.761200 -30.313800
N -25.184000 -8.007500 -32.313900
N -25.162100 -7.061700 -34.540700
N -25.068600 -8.793200 -30.220100
C -24.787200 -7.904600 -33.638000
C -24.617400 -8.887000 -31.436300
H -24.458300 -6.974700 -36.476000
C -24.398400 -7.404900 -35.653700
N -23.816700 -8.782500 -34.070200
N -23.650300 -9.748600 -31.937800
C -23.561900 -8.432800 -35.402200
C -23.249900 -9.714200 -33.240500
H -22.976900 -11.013600 -30.420700
H -22.951000 -8.823200 -35.984600
C -22.922500 -10.753800 -31.311900
N -22.335900 -10.624500 -33.470900
C -22.127900 -11.269200 -32.255500
H -21.521800 -11.961400 -32.118900
