15
Fragment
O -20.473500 -8.583800 -30.770600
O -19.663000 -10.421200 -30.060400
N -19.552000 -9.340600 -30.573500
O -18.851600 -10.943800 -32.892400
O -18.547600 -7.573700 -28.536700
C -18.241500 -8.893500 -31.015100
N -17.753400 -10.381200 -33.015600
N -17.688200 -7.118000 -29.288100
C -17.520800 -9.293500 -32.120900
C -17.487200 -7.843300 -30.522700
O -17.009000 -6.134600 -29.078000
O -16.908800 -10.660500 -33.838200
N -16.438200 -8.510300 -32.259200
N -16.409800 -7.600000 -31.274700
H -15.912900 -8.383600 -32.959000
15
Fragment
O -20.473500 -13.652500 -30.770600
O -19.663000 -15.489900 -30.060400
N -19.552000 -14.409300 -30.573500
O -18.851600 -16.012500 -32.892400
O -18.547600 -12.642400 -28.536700
C -18.241500 -13.962200 -31.015100
N -17.753400 -15.449900 -33.015600
N -17.688200 -12.186700 -29.288100
C -17.520800 -14.362200 -32.120900
C -17.487200 -12.912000 -30.522700
O -17.009000 -11.203300 -29.078000
O -16.908800 -15.729200 -33.838200
N -16.438200 -13.579000 -32.259200
N -16.409800 -12.668700 -31.274700
H -15.912900 -13.452300 -32.959000
30
Fragment
O -20.473500 -8.583800 -30.770600
O -19.663000 -10.421200 -30.060400
N -19.552000 -9.340600 -30.573500
O -18.851600 -10.943800 -32.892400
O -18.547600 -7.573700 -28.536700
C -18.241500 -8.893500 -31.015100
N -17.753400 -10.381200 -33.015600
N -17.688200 -7.118000 -29.288100
C -17.520800 -9.293500 -32.120900
C -17.487200 -7.843300 -30.522700
O -17.009000 -6.134600 -29.078000
O -16.908800 -10.660500 -33.838200
N -16.438200 -8.510300 -32.259200
N -16.409800 -7.600000 -31.274700
H -15.912900 -8.383600 -32.959000
O -20.473500 -13.652500 -30.770600
O -19.663000 -15.489900 -30.060400
N -19.552000 -14.409300 -30.573500
O -18.851600 -16.012500 -32.892400
O -18.547600 -12.642400 -28.536700
C -18.241500 -13.962200 -31.015100
N -17.753400 -15.449900 -33.015600
N -17.688200 -12.186700 -29.288100
C -17.520800 -14.362200 -32.120900
C -17.487200 -12.912000 -30.522700
O -17.009000 -11.203300 -29.078000
O -16.908800 -15.729200 -33.838200
N -16.438200 -13.579000 -32.259200
N -16.409800 -12.668700 -31.274700
H -15.912900 -13.452300 -32.959000
