23
Fragment
O -7.823100 -4.992500 -24.177200
H -7.721600 -3.448000 -26.276700
N -6.961100 -3.566500 -25.786100
C -6.904300 -4.371100 -24.658500
O -5.763700 -8.136300 -19.416900
C -5.753800 -3.021100 -26.107500
N -5.603000 -4.309700 -24.205400
O -5.528200 -2.274500 -27.030800
N -5.219700 -5.126100 -23.189800
C -4.752900 -3.524400 -25.082400
N -4.538100 -8.202700 -19.333000
O -4.455900 -6.667500 -21.100300
H -4.332200 -2.791500 -24.623400
H -4.056000 -4.059300 -25.507100
C -3.963700 -5.185200 -22.934300
O -3.920400 -8.898600 -18.525000
C -3.751500 -7.444300 -20.243600
C -3.506200 -6.070000 -21.887000
H -3.268600 -4.709800 -23.403800
C -2.420500 -7.381900 -20.444000
C -2.255900 -6.474200 -21.522800
H -1.740300 -7.862500 -19.978800
H -1.454900 -6.208900 -21.939900
15
Fragment
H -5.435900 4.423200 -30.150200
H -5.385700 5.641400 -29.245900
N -5.200600 4.800300 -29.380000
C -4.640200 4.102800 -28.412000
H -4.374400 2.674300 -30.773400
C -4.363600 2.648100 -28.680300
O -4.362700 4.600400 -27.303000
C -4.289500 2.123700 -29.967000
H -4.236800 2.086200 -26.704500
C -4.192300 1.781900 -27.606600
C -4.064400 0.764300 -30.116600
H -3.996900 0.388500 -30.998300
C -3.975900 0.436100 -27.856000
N -3.913800 -0.079100 -29.088100
H -3.853300 -0.183200 -27.126300
38
Fragment
O -7.823100 -4.992500 -24.177200
H -7.721600 -3.448000 -26.276700
N -6.961100 -3.566500 -25.786100
C -6.904300 -4.371100 -24.658500
O -5.763700 -8.136300 -19.416900
C -5.753800 -3.021100 -26.107500
N -5.603000 -4.309700 -24.205400
O -5.528200 -2.274500 -27.030800
N -5.219700 -5.126100 -23.189800
C -4.752900 -3.524400 -25.082400
N -4.538100 -8.202700 -19.333000
O -4.455900 -6.667500 -21.100300
H -4.332200 -2.791500 -24.623400
H -4.056000 -4.059300 -25.507100
C -3.963700 -5.185200 -22.934300
O -3.920400 -8.898600 -18.525000
C -3.751500 -7.444300 -20.243600
C -3.506200 -6.070000 -21.887000
H -3.268600 -4.709800 -23.403800
C -2.420500 -7.381900 -20.444000
C -2.255900 -6.474200 -21.522800
H -1.740300 -7.862500 -19.978800
H -1.454900 -6.208900 -21.939900
H -5.435900 4.423200 -30.150200
H -5.385700 5.641400 -29.245900
N -5.200600 4.800300 -29.380000
C -4.640200 4.102800 -28.412000
H -4.374400 2.674300 -30.773400
C -4.363600 2.648100 -28.680300
O -4.362700 4.600400 -27.303000
C -4.289500 2.123700 -29.967000
H -4.236800 2.086200 -26.704500
C -4.192300 1.781900 -27.606600
C -4.064400 0.764300 -30.116600
H -3.996900 0.388500 -30.998300
C -3.975900 0.436100 -27.856000
N -3.913800 -0.079100 -29.088100
H -3.853300 -0.183200 -27.126300
