23
Fragment
O -7.823100 -4.992500 -24.177200
H -7.721600 -3.448000 -26.276700
N -6.961100 -3.566500 -25.786100
C -6.904300 -4.371100 -24.658500
O -5.763700 -8.136300 -19.416900
C -5.753800 -3.021100 -26.107500
N -5.603000 -4.309700 -24.205400
O -5.528200 -2.274500 -27.030800
N -5.219700 -5.126100 -23.189800
C -4.752900 -3.524400 -25.082400
N -4.538100 -8.202700 -19.333000
O -4.455900 -6.667500 -21.100300
H -4.332200 -2.791500 -24.623400
H -4.056000 -4.059300 -25.507100
C -3.963700 -5.185200 -22.934300
O -3.920400 -8.898600 -18.525000
C -3.751500 -7.444300 -20.243600
C -3.506200 -6.070000 -21.887000
H -3.268600 -4.709800 -23.403800
C -2.420500 -7.381900 -20.444000
C -2.255900 -6.474200 -21.522800
H -1.740300 -7.862500 -19.978800
H -1.454900 -6.208900 -21.939900
15
Fragment
H -3.445100 -3.261000 -30.150200
H -3.394800 -2.042800 -29.245900
N -3.209800 -2.883900 -29.380000
C -2.649400 -3.581400 -28.412000
H -2.383600 -5.009900 -30.773400
C -2.372700 -5.036100 -28.680300
O -2.371800 -3.083800 -27.303000
C -2.298600 -5.560500 -29.967000
H -2.245900 -5.598000 -26.704500
C -2.201500 -5.902300 -27.606600
C -2.073500 -6.919900 -30.116600
H -2.006000 -7.295700 -30.998300
C -1.985100 -7.248100 -27.856000
N -1.922900 -7.763300 -29.088100
H -1.862500 -7.867300 -27.126300
38
Fragment
O -7.823100 -4.992500 -24.177200
H -7.721600 -3.448000 -26.276700
N -6.961100 -3.566500 -25.786100
C -6.904300 -4.371100 -24.658500
O -5.763700 -8.136300 -19.416900
C -5.753800 -3.021100 -26.107500
N -5.603000 -4.309700 -24.205400
O -5.528200 -2.274500 -27.030800
N -5.219700 -5.126100 -23.189800
C -4.752900 -3.524400 -25.082400
N -4.538100 -8.202700 -19.333000
O -4.455900 -6.667500 -21.100300
H -4.332200 -2.791500 -24.623400
H -4.056000 -4.059300 -25.507100
C -3.963700 -5.185200 -22.934300
O -3.920400 -8.898600 -18.525000
C -3.751500 -7.444300 -20.243600
C -3.506200 -6.070000 -21.887000
H -3.268600 -4.709800 -23.403800
C -2.420500 -7.381900 -20.444000
C -2.255900 -6.474200 -21.522800
H -1.740300 -7.862500 -19.978800
H -1.454900 -6.208900 -21.939900
H -3.445100 -3.261000 -30.150200
H -3.394800 -2.042800 -29.245900
N -3.209800 -2.883900 -29.380000
C -2.649400 -3.581400 -28.412000
H -2.383600 -5.009900 -30.773400
C -2.372700 -5.036100 -28.680300
O -2.371800 -3.083800 -27.303000
C -2.298600 -5.560500 -29.967000
H -2.245900 -5.598000 -26.704500
C -2.201500 -5.902300 -27.606600
C -2.073500 -6.919900 -30.116600
H -2.006000 -7.295700 -30.998300
C -1.985100 -7.248100 -27.856000
N -1.922900 -7.763300 -29.088100
H -1.862500 -7.867300 -27.126300
