23
Fragment
O -15.129700 -15.398300 -29.108400
H -14.607100 -16.560200 -26.803100
C -14.178300 -16.059800 -28.751700
O -14.116400 -14.958200 -35.589200
N -14.016900 -16.631900 -27.496800
N -13.048800 -16.375500 -29.463800
N -12.959500 -15.266700 -35.855600
N -12.957600 -16.061600 -30.791300
C -12.839900 -17.332100 -27.379300
O -12.639700 -15.693800 -33.555700
O -12.480600 -17.964500 -26.412400
O -12.479500 -15.257900 -36.991900
C -12.104800 -15.675100 -34.804400
C -12.104100 -17.169500 -28.691500
H -11.939800 -18.029600 -29.114400
C -11.866000 -16.417800 -31.366000
C -11.642500 -16.208400 -32.770700
H -11.286600 -16.670300 -28.554700
H -11.154100 -16.845400 -30.922000
C -10.837000 -16.136800 -34.850900
C -10.530600 -16.484700 -33.516100
H -10.306800 -16.193500 -35.634200
H -9.728200 -16.838900 -33.196000
23
Fragment
H -18.297900 -16.034700 -41.422800
H -17.719400 -16.680200 -38.984600
C -17.495500 -16.389000 -41.102600
C -17.189100 -16.736900 -39.767900
H -16.872000 -16.028300 -43.696800
H -16.739500 -16.203300 -46.064000
C -16.383600 -16.665300 -41.848100
C -16.160100 -16.455800 -43.252800
H -16.086300 -14.844000 -45.504400
C -15.922000 -15.704100 -45.927300
C -15.921300 -17.198600 -39.814300
O -15.546600 -17.615700 -37.626900
O -15.545500 -14.909200 -48.206300
O -15.386400 -17.179800 -41.063100
C -15.186200 -15.541600 -47.239500
N -15.068500 -16.812100 -43.827500
N -15.066600 -17.606900 -38.763200
N -14.977300 -16.498200 -45.155000
N -14.009200 -16.241800 -47.121900
O -13.909700 -17.915400 -39.029500
C -13.847800 -16.813800 -45.867000
H -13.419000 -16.313500 -47.815700
O -12.896400 -17.475300 -45.510400
46
Fragment
O -15.129700 -15.398300 -29.108400
H -14.607100 -16.560200 -26.803100
C -14.178300 -16.059800 -28.751700
O -14.116400 -14.958200 -35.589200
N -14.016900 -16.631900 -27.496800
N -13.048800 -16.375500 -29.463800
N -12.959500 -15.266700 -35.855600
N -12.957600 -16.061600 -30.791300
C -12.839900 -17.332100 -27.379300
O -12.639700 -15.693800 -33.555700
O -12.480600 -17.964500 -26.412400
O -12.479500 -15.257900 -36.991900
C -12.104800 -15.675100 -34.804400
C -12.104100 -17.169500 -28.691500
H -11.939800 -18.029600 -29.114400
C -11.866000 -16.417800 -31.366000
C -11.642500 -16.208400 -32.770700
H -11.286600 -16.670300 -28.554700
H -11.154100 -16.845400 -30.922000
C -10.837000 -16.136800 -34.850900
C -10.530600 -16.484700 -33.516100
H -10.306800 -16.193500 -35.634200
H -9.728200 -16.838900 -33.196000
H -18.297900 -16.034700 -41.422800
H -17.719400 -16.680200 -38.984600
C -17.495500 -16.389000 -41.102600
C -17.189100 -16.736900 -39.767900
H -16.872000 -16.028300 -43.696800
H -16.739500 -16.203300 -46.064000
C -16.383600 -16.665300 -41.848100
C -16.160100 -16.455800 -43.252800
H -16.086300 -14.844000 -45.504400
C -15.922000 -15.704100 -45.927300
C -15.921300 -17.198600 -39.814300
O -15.546600 -17.615700 -37.626900
O -15.545500 -14.909200 -48.206300
O -15.386400 -17.179800 -41.063100
C -15.186200 -15.541600 -47.239500
N -15.068500 -16.812100 -43.827500
N -15.066600 -17.606900 -38.763200
N -14.977300 -16.498200 -45.155000
N -14.009200 -16.241800 -47.121900
O -13.909700 -17.915400 -39.029500
C -13.847800 -16.813800 -45.867000
H -13.419000 -16.313500 -47.815700
O -12.896400 -17.475300 -45.510400
