23
Fragment
O -23.206000 -10.023900 -19.814700
H -23.195700 -9.253200 -17.363300
N -22.509100 -9.105600 -17.820500
C -22.377900 -9.448700 -19.146400
C -21.363800 -8.521500 -17.304500
O -21.183900 -8.160800 -16.161900
H -21.132900 -8.284300 -20.279400
C -21.011800 -8.970200 -19.589700
N -20.474800 -8.431000 -18.346200
H -20.464600 -9.695400 -19.922900
N -19.186300 -8.091400 -18.068900
H -18.599300 -8.150900 -19.981300
C -18.373500 -8.028700 -19.064300
C -16.972000 -7.826700 -18.789300
O -16.563900 -7.926100 -17.485100
H -15.939800 -7.540100 -20.576300
C -15.893400 -7.653200 -19.613700
C -15.217700 -7.812500 -17.537400
O -15.210900 -8.097600 -15.275000
C -14.745000 -7.641900 -18.792000
N -14.544500 -7.902800 -16.291000
H -13.790500 -7.540100 -19.064500
O -13.315400 -7.778600 -16.309800
15
Fragment
H -28.020500 -7.877100 -23.195500
H -27.539800 -8.136900 -25.489300
C -27.104400 -7.886200 -23.492200
C -26.824600 -8.049100 -24.841800
N -26.166400 -7.732300 -22.557300
C -25.500600 -8.082800 -25.240200
H -25.266000 -8.193000 -26.161700
H -25.190900 -6.964400 -20.700200
C -24.891900 -7.753600 -22.962100
C -24.504700 -7.936800 -24.283200
N -24.331600 -7.077800 -20.728300
C -23.856800 -7.510000 -21.892600
H -23.733400 -6.817000 -20.118500
H -23.557300 -7.926300 -24.530800
O -22.650600 -7.668000 -22.122400
38
Fragment
O -23.206000 -10.023900 -19.814700
H -23.195700 -9.253200 -17.363300
N -22.509100 -9.105600 -17.820500
C -22.377900 -9.448700 -19.146400
C -21.363800 -8.521500 -17.304500
O -21.183900 -8.160800 -16.161900
H -21.132900 -8.284300 -20.279400
C -21.011800 -8.970200 -19.589700
N -20.474800 -8.431000 -18.346200
H -20.464600 -9.695400 -19.922900
N -19.186300 -8.091400 -18.068900
H -18.599300 -8.150900 -19.981300
C -18.373500 -8.028700 -19.064300
C -16.972000 -7.826700 -18.789300
O -16.563900 -7.926100 -17.485100
H -15.939800 -7.540100 -20.576300
C -15.893400 -7.653200 -19.613700
C -15.217700 -7.812500 -17.537400
O -15.210900 -8.097600 -15.275000
C -14.745000 -7.641900 -18.792000
N -14.544500 -7.902800 -16.291000
H -13.790500 -7.540100 -19.064500
O -13.315400 -7.778600 -16.309800
H -28.020500 -7.877100 -23.195500
H -27.539800 -8.136900 -25.489300
C -27.104400 -7.886200 -23.492200
C -26.824600 -8.049100 -24.841800
N -26.166400 -7.732300 -22.557300
C -25.500600 -8.082800 -25.240200
H -25.266000 -8.193000 -26.161700
H -25.190900 -6.964400 -20.700200
C -24.891900 -7.753600 -22.962100
C -24.504700 -7.936800 -24.283200
N -24.331600 -7.077800 -20.728300
C -23.856800 -7.510000 -21.892600
H -23.733400 -6.817000 -20.118500
H -23.557300 -7.926300 -24.530800
O -22.650600 -7.668000 -22.122400
