23
Fragment
O -7.823100 -4.992500 -24.177200
H -7.721600 -3.448000 -26.276700
N -6.961100 -3.566500 -25.786100
C -6.904300 -4.371100 -24.658500
O -5.763700 -8.136300 -19.416900
C -5.753800 -3.021100 -26.107500
N -5.603000 -4.309700 -24.205400
O -5.528200 -2.274500 -27.030800
N -5.219700 -5.126100 -23.189800
C -4.752900 -3.524400 -25.082400
N -4.538100 -8.202700 -19.333000
O -4.455900 -6.667500 -21.100300
H -4.332200 -2.791500 -24.623400
H -4.056000 -4.059300 -25.507100
C -3.963700 -5.185200 -22.934300
O -3.920400 -8.898600 -18.525000
C -3.751500 -7.444300 -20.243600
C -3.506200 -6.070000 -21.887000
H -3.268600 -4.709800 -23.403800
C -2.420500 -7.381900 -20.444000
C -2.255900 -6.474200 -21.522800
H -1.740300 -7.862500 -19.978800
H -1.454900 -6.208900 -21.939900
23
Fragment
H -3.091000 -1.819100 -22.463900
H -2.805500 -0.165600 -24.425100
C -2.289900 -1.553900 -22.881000
C -2.125400 -0.646100 -23.959900
H -1.277300 -3.318300 -21.000100
C -1.039700 -1.958100 -22.516900
C -0.794300 -0.583700 -24.160300
O -0.625400 0.870500 -25.878900
C -0.582100 -2.842800 -21.469600
H -0.489800 -3.968700 -18.896800
H -0.213700 -5.236500 -19.780400
O -0.090000 -1.360500 -23.303600
N -0.007800 0.174700 -25.070900
C 0.207000 -4.503600 -19.321500
N 0.673800 -2.901900 -21.214100
O 0.982400 -5.753500 -17.373000
N 1.057100 -3.718300 -20.198400
C 1.208000 -5.007000 -18.296300
O 1.217900 0.108300 -24.986900
C 2.358500 -3.656900 -19.745400
N 2.415300 -4.461600 -18.617800
H 3.175800 -4.580000 -18.127100
O 3.277200 -3.035500 -20.226700
46
Fragment
O -7.823100 -4.992500 -24.177200
H -7.721600 -3.448000 -26.276700
N -6.961100 -3.566500 -25.786100
C -6.904300 -4.371100 -24.658500
O -5.763700 -8.136300 -19.416900
C -5.753800 -3.021100 -26.107500
N -5.603000 -4.309700 -24.205400
O -5.528200 -2.274500 -27.030800
N -5.219700 -5.126100 -23.189800
C -4.752900 -3.524400 -25.082400
N -4.538100 -8.202700 -19.333000
O -4.455900 -6.667500 -21.100300
H -4.332200 -2.791500 -24.623400
H -4.056000 -4.059300 -25.507100
C -3.963700 -5.185200 -22.934300
O -3.920400 -8.898600 -18.525000
C -3.751500 -7.444300 -20.243600
C -3.506200 -6.070000 -21.887000
H -3.268600 -4.709800 -23.403800
C -2.420500 -7.381900 -20.444000
C -2.255900 -6.474200 -21.522800
H -1.740300 -7.862500 -19.978800
H -1.454900 -6.208900 -21.939900
H -3.091000 -1.819100 -22.463900
H -2.805500 -0.165600 -24.425100
C -2.289900 -1.553900 -22.881000
C -2.125400 -0.646100 -23.959900
H -1.277300 -3.318300 -21.000100
C -1.039700 -1.958100 -22.516900
C -0.794300 -0.583700 -24.160300
O -0.625400 0.870500 -25.878900
C -0.582100 -2.842800 -21.469600
H -0.489800 -3.968700 -18.896800
H -0.213700 -5.236500 -19.780400
O -0.090000 -1.360500 -23.303600
N -0.007800 0.174700 -25.070900
C 0.207000 -4.503600 -19.321500
N 0.673800 -2.901900 -21.214100
O 0.982400 -5.753500 -17.373000
N 1.057100 -3.718300 -20.198400
C 1.208000 -5.007000 -18.296300
O 1.217900 0.108300 -24.986900
C 2.358500 -3.656900 -19.745400
N 2.415300 -4.461600 -18.617800
H 3.175800 -4.580000 -18.127100
O 3.277200 -3.035500 -20.226700
