23
Fragment
O -15.129700 -15.398300 -29.108400
H -14.607100 -16.560200 -26.803100
C -14.178300 -16.059800 -28.751700
O -14.116400 -14.958200 -35.589200
N -14.016900 -16.631900 -27.496800
N -13.048800 -16.375500 -29.463800
N -12.959500 -15.266700 -35.855600
N -12.957600 -16.061600 -30.791300
C -12.839900 -17.332100 -27.379300
O -12.639700 -15.693800 -33.555700
O -12.480600 -17.964500 -26.412400
O -12.479500 -15.257900 -36.991900
C -12.104800 -15.675100 -34.804400
C -12.104100 -17.169500 -28.691500
H -11.939800 -18.029600 -29.114400
C -11.866000 -16.417800 -31.366000
C -11.642500 -16.208400 -32.770700
H -11.286600 -16.670300 -28.554700
H -11.154100 -16.845400 -30.922000
C -10.837000 -16.136800 -34.850900
C -10.530600 -16.484700 -33.516100
H -10.306800 -16.193500 -35.634200
H -9.728200 -16.838900 -33.196000
17
Fragment
H -14.635000 -18.370400 -34.990600
O -14.411800 -18.939300 -32.534200
H -14.058900 -19.176600 -31.746600
C -13.750800 -18.752200 -34.778100
C -13.444500 -19.127700 -33.465200
H -13.050300 -18.608600 -36.677000
C -12.817000 -18.893900 -35.783600
O -12.673000 -19.876300 -30.855600
C -12.190000 -19.683100 -33.172200
C -11.882900 -20.140800 -31.793000
C -11.563600 -19.421300 -35.504000
C -11.260700 -19.813000 -34.213100
H -10.863000 -19.526900 -36.182600
N -10.792800 -20.852500 -31.577900
H -10.622600 -21.206600 -30.709400
H -10.380500 -20.168200 -34.018700
H -10.228700 -21.053800 -32.207300
40
Fragment
O -15.129700 -15.398300 -29.108400
H -14.607100 -16.560200 -26.803100
C -14.178300 -16.059800 -28.751700
O -14.116400 -14.958200 -35.589200
N -14.016900 -16.631900 -27.496800
N -13.048800 -16.375500 -29.463800
N -12.959500 -15.266700 -35.855600
N -12.957600 -16.061600 -30.791300
C -12.839900 -17.332100 -27.379300
O -12.639700 -15.693800 -33.555700
O -12.480600 -17.964500 -26.412400
O -12.479500 -15.257900 -36.991900
C -12.104800 -15.675100 -34.804400
C -12.104100 -17.169500 -28.691500
H -11.939800 -18.029600 -29.114400
C -11.866000 -16.417800 -31.366000
C -11.642500 -16.208400 -32.770700
H -11.286600 -16.670300 -28.554700
H -11.154100 -16.845400 -30.922000
C -10.837000 -16.136800 -34.850900
C -10.530600 -16.484700 -33.516100
H -10.306800 -16.193500 -35.634200
H -9.728200 -16.838900 -33.196000
H -14.635000 -18.370400 -34.990600
O -14.411800 -18.939300 -32.534200
H -14.058900 -19.176600 -31.746600
C -13.750800 -18.752200 -34.778100
C -13.444500 -19.127700 -33.465200
H -13.050300 -18.608600 -36.677000
C -12.817000 -18.893900 -35.783600
O -12.673000 -19.876300 -30.855600
C -12.190000 -19.683100 -33.172200
C -11.882900 -20.140800 -31.793000
C -11.563600 -19.421300 -35.504000
C -11.260700 -19.813000 -34.213100
H -10.863000 -19.526900 -36.182600
N -10.792800 -20.852500 -31.577900
H -10.622600 -21.206600 -30.709400
H -10.380500 -20.168200 -34.018700
H -10.228700 -21.053800 -32.207300
