23
Fragment
O -23.206000 -10.023900 -19.814700
H -23.195700 -9.253200 -17.363300
N -22.509100 -9.105600 -17.820500
C -22.377900 -9.448700 -19.146400
C -21.363800 -8.521500 -17.304500
O -21.183900 -8.160800 -16.161900
H -21.132900 -8.284300 -20.279400
C -21.011800 -8.970200 -19.589700
N -20.474800 -8.431000 -18.346200
H -20.464600 -9.695400 -19.922900
N -19.186300 -8.091400 -18.068900
H -18.599300 -8.150900 -19.981300
C -18.373500 -8.028700 -19.064300
C -16.972000 -7.826700 -18.789300
O -16.563900 -7.926100 -17.485100
H -15.939800 -7.540100 -20.576300
C -15.893400 -7.653200 -19.613700
C -15.217700 -7.812500 -17.537400
O -15.210900 -8.097600 -15.275000
C -14.745000 -7.641900 -18.792000
N -14.544500 -7.902800 -16.291000
H -13.790500 -7.540100 -19.064500
O -13.315400 -7.778600 -16.309800
23
Fragment
O -11.555100 -6.262600 -19.456300
H -11.080000 -6.501100 -16.701600
N -10.326000 -6.138400 -19.475100
C -10.125500 -6.399300 -16.974100
O -9.659600 -5.943600 -20.491100
C -9.652800 -6.228700 -18.228700
C -8.977000 -6.388000 -16.152500
H -8.930700 -6.501100 -15.189900
O -8.306600 -6.115100 -18.281000
C -7.898500 -6.214500 -16.976900
C -6.497000 -6.012500 -16.701800
H -6.271200 -5.890300 -15.784800
N -5.684200 -5.949800 -17.697200
H -4.405900 -4.345800 -15.843200
N -4.395700 -5.610200 -17.419900
C -3.858700 -5.071000 -16.176400
H -3.737600 -5.756900 -15.486700
O -3.686600 -5.880400 -19.604300
C -3.506700 -5.519700 -18.461600
C -2.492600 -4.592500 -16.619700
N -2.361300 -4.935600 -17.945700
H -1.674800 -4.788000 -18.402900
O -1.664500 -4.017300 -15.951500
46
Fragment
O -23.206000 -10.023900 -19.814700
H -23.195700 -9.253200 -17.363300
N -22.509100 -9.105600 -17.820500
C -22.377900 -9.448700 -19.146400
C -21.363800 -8.521500 -17.304500
O -21.183900 -8.160800 -16.161900
H -21.132900 -8.284300 -20.279400
C -21.011800 -8.970200 -19.589700
N -20.474800 -8.431000 -18.346200
H -20.464600 -9.695400 -19.922900
N -19.186300 -8.091400 -18.068900
H -18.599300 -8.150900 -19.981300
C -18.373500 -8.028700 -19.064300
C -16.972000 -7.826700 -18.789300
O -16.563900 -7.926100 -17.485100
H -15.939800 -7.540100 -20.576300
C -15.893400 -7.653200 -19.613700
C -15.217700 -7.812500 -17.537400
O -15.210900 -8.097600 -15.275000
C -14.745000 -7.641900 -18.792000
N -14.544500 -7.902800 -16.291000
H -13.790500 -7.540100 -19.064500
O -13.315400 -7.778600 -16.309800
O -11.555100 -6.262600 -19.456300
H -11.080000 -6.501100 -16.701600
N -10.326000 -6.138400 -19.475100
C -10.125500 -6.399300 -16.974100
O -9.659600 -5.943600 -20.491100
C -9.652800 -6.228700 -18.228700
C -8.977000 -6.388000 -16.152500
H -8.930700 -6.501100 -15.189900
O -8.306600 -6.115100 -18.281000
C -7.898500 -6.214500 -16.976900
C -6.497000 -6.012500 -16.701800
H -6.271200 -5.890300 -15.784800
N -5.684200 -5.949800 -17.697200
H -4.405900 -4.345800 -15.843200
N -4.395700 -5.610200 -17.419900
C -3.858700 -5.071000 -16.176400
H -3.737600 -5.756900 -15.486700
O -3.686600 -5.880400 -19.604300
C -3.506700 -5.519700 -18.461600
C -2.492600 -4.592500 -16.619700
N -2.361300 -4.935600 -17.945700
H -1.674800 -4.788000 -18.402900
O -1.664500 -4.017300 -15.951500
