23
Fragment
O -15.129700 -15.398300 -29.108400
H -14.607100 -16.560200 -26.803100
C -14.178300 -16.059800 -28.751700
O -14.116400 -14.958200 -35.589200
N -14.016900 -16.631900 -27.496800
N -13.048800 -16.375500 -29.463800
N -12.959500 -15.266700 -35.855600
N -12.957600 -16.061600 -30.791300
C -12.839900 -17.332100 -27.379300
O -12.639700 -15.693800 -33.555700
O -12.480600 -17.964500 -26.412400
O -12.479500 -15.257900 -36.991900
C -12.104800 -15.675100 -34.804400
C -12.104100 -17.169500 -28.691500
H -11.939800 -18.029600 -29.114400
C -11.866000 -16.417800 -31.366000
C -11.642500 -16.208400 -32.770700
H -11.286600 -16.670300 -28.554700
H -11.154100 -16.845400 -30.922000
C -10.837000 -16.136800 -34.850900
C -10.530600 -16.484700 -33.516100
H -10.306800 -16.193500 -35.634200
H -9.728200 -16.838900 -33.196000
23
Fragment
O -9.076500 -15.398300 -29.108400
H -8.553900 -16.560200 -26.803100
C -8.125100 -16.059800 -28.751700
O -8.063200 -14.958200 -35.589200
N -7.963700 -16.631900 -27.496800
N -6.995600 -16.375500 -29.463800
N -6.906300 -15.266700 -35.855600
N -6.904400 -16.061600 -30.791300
C -6.786700 -17.332100 -27.379300
O -6.586500 -15.693800 -33.555700
O -6.427400 -17.964500 -26.412400
O -6.426300 -15.257900 -36.991900
C -6.051600 -15.675100 -34.804400
C -6.050900 -17.169500 -28.691500
H -5.886600 -18.029600 -29.114400
C -5.812800 -16.417800 -31.366000
C -5.589300 -16.208400 -32.770700
H -5.233400 -16.670300 -28.554700
H -5.100900 -16.845400 -30.922000
C -4.783800 -16.136800 -34.850900
C -4.477400 -16.484700 -33.516100
H -4.253600 -16.193500 -35.634200
H -3.675000 -16.838900 -33.196000
46
Fragment
O -15.129700 -15.398300 -29.108400
H -14.607100 -16.560200 -26.803100
C -14.178300 -16.059800 -28.751700
O -14.116400 -14.958200 -35.589200
N -14.016900 -16.631900 -27.496800
N -13.048800 -16.375500 -29.463800
N -12.959500 -15.266700 -35.855600
N -12.957600 -16.061600 -30.791300
C -12.839900 -17.332100 -27.379300
O -12.639700 -15.693800 -33.555700
O -12.480600 -17.964500 -26.412400
O -12.479500 -15.257900 -36.991900
C -12.104800 -15.675100 -34.804400
C -12.104100 -17.169500 -28.691500
H -11.939800 -18.029600 -29.114400
C -11.866000 -16.417800 -31.366000
C -11.642500 -16.208400 -32.770700
H -11.286600 -16.670300 -28.554700
H -11.154100 -16.845400 -30.922000
C -10.837000 -16.136800 -34.850900
C -10.530600 -16.484700 -33.516100
H -10.306800 -16.193500 -35.634200
H -9.728200 -16.838900 -33.196000
O -9.076500 -15.398300 -29.108400
H -8.553900 -16.560200 -26.803100
C -8.125100 -16.059800 -28.751700
O -8.063200 -14.958200 -35.589200
N -7.963700 -16.631900 -27.496800
N -6.995600 -16.375500 -29.463800
N -6.906300 -15.266700 -35.855600
N -6.904400 -16.061600 -30.791300
C -6.786700 -17.332100 -27.379300
O -6.586500 -15.693800 -33.555700
O -6.427400 -17.964500 -26.412400
O -6.426300 -15.257900 -36.991900
C -6.051600 -15.675100 -34.804400
C -6.050900 -17.169500 -28.691500
H -5.886600 -18.029600 -29.114400
C -5.812800 -16.417800 -31.366000
C -5.589300 -16.208400 -32.770700
H -5.233400 -16.670300 -28.554700
H -5.100900 -16.845400 -30.922000
C -4.783800 -16.136800 -34.850900
C -4.477400 -16.484700 -33.516100
H -4.253600 -16.193500 -35.634200
H -3.675000 -16.838900 -33.196000
