23
Fragment
O -23.206000 -10.023900 -19.814700
H -23.195700 -9.253200 -17.363300
N -22.509100 -9.105600 -17.820500
C -22.377900 -9.448700 -19.146400
C -21.363800 -8.521500 -17.304500
O -21.183900 -8.160800 -16.161900
H -21.132900 -8.284300 -20.279400
C -21.011800 -8.970200 -19.589700
N -20.474800 -8.431000 -18.346200
H -20.464600 -9.695400 -19.922900
N -19.186300 -8.091400 -18.068900
H -18.599300 -8.150900 -19.981300
C -18.373500 -8.028700 -19.064300
C -16.972000 -7.826700 -18.789300
O -16.563900 -7.926100 -17.485100
H -15.939800 -7.540100 -20.576300
C -15.893400 -7.653200 -19.613700
C -15.217700 -7.812500 -17.537400
O -15.210900 -8.097600 -15.275000
C -14.745000 -7.641900 -18.792000
N -14.544500 -7.902800 -16.291000
H -13.790500 -7.540100 -19.064500
O -13.315400 -7.778600 -16.309800
15
Fragment
O -16.533600 -6.373200 -25.565800
H -15.627000 -6.114900 -23.157400
H -15.450800 -7.224200 -27.569700
C -15.327400 -6.531200 -25.795600
N -14.852600 -6.963400 -26.959900
C -14.679500 -6.104400 -23.405000
C -14.292300 -6.287600 -24.726100
H -13.993400 -7.076800 -26.987900
H -13.918200 -5.848200 -21.526400
C -13.683600 -5.958400 -22.448000
N -13.017800 -6.308900 -25.130800
C -12.359700 -5.992100 -22.846300
C -12.079800 -6.155000 -24.196000
H -11.644400 -5.904300 -22.198800
H -11.163800 -6.164100 -24.492700
38
Fragment
O -23.206000 -10.023900 -19.814700
H -23.195700 -9.253200 -17.363300
N -22.509100 -9.105600 -17.820500
C -22.377900 -9.448700 -19.146400
C -21.363800 -8.521500 -17.304500
O -21.183900 -8.160800 -16.161900
H -21.132900 -8.284300 -20.279400
C -21.011800 -8.970200 -19.589700
N -20.474800 -8.431000 -18.346200
H -20.464600 -9.695400 -19.922900
N -19.186300 -8.091400 -18.068900
H -18.599300 -8.150900 -19.981300
C -18.373500 -8.028700 -19.064300
C -16.972000 -7.826700 -18.789300
O -16.563900 -7.926100 -17.485100
H -15.939800 -7.540100 -20.576300
C -15.893400 -7.653200 -19.613700
C -15.217700 -7.812500 -17.537400
O -15.210900 -8.097600 -15.275000
C -14.745000 -7.641900 -18.792000
N -14.544500 -7.902800 -16.291000
H -13.790500 -7.540100 -19.064500
O -13.315400 -7.778600 -16.309800
O -16.533600 -6.373200 -25.565800
H -15.627000 -6.114900 -23.157400
H -15.450800 -7.224200 -27.569700
C -15.327400 -6.531200 -25.795600
N -14.852600 -6.963400 -26.959900
C -14.679500 -6.104400 -23.405000
C -14.292300 -6.287600 -24.726100
H -13.993400 -7.076800 -26.987900
H -13.918200 -5.848200 -21.526400
C -13.683600 -5.958400 -22.448000
N -13.017800 -6.308900 -25.130800
C -12.359700 -5.992100 -22.846300
C -12.079800 -6.155000 -24.196000
H -11.644400 -5.904300 -22.198800
H -11.163800 -6.164100 -24.492700
