23
Fragment
O -15.129700 -15.398300 -29.108400
H -14.607100 -16.560200 -26.803100
C -14.178300 -16.059800 -28.751700
O -14.116400 -14.958200 -35.589200
N -14.016900 -16.631900 -27.496800
N -13.048800 -16.375500 -29.463800
N -12.959500 -15.266700 -35.855600
N -12.957600 -16.061600 -30.791300
C -12.839900 -17.332100 -27.379300
O -12.639700 -15.693800 -33.555700
O -12.480600 -17.964500 -26.412400
O -12.479500 -15.257900 -36.991900
C -12.104800 -15.675100 -34.804400
C -12.104100 -17.169500 -28.691500
H -11.939800 -18.029600 -29.114400
C -11.866000 -16.417800 -31.366000
C -11.642500 -16.208400 -32.770700
H -11.286600 -16.670300 -28.554700
H -11.154100 -16.845400 -30.922000
C -10.837000 -16.136800 -34.850900
C -10.530600 -16.484700 -33.516100
H -10.306800 -16.193500 -35.634200
H -9.728200 -16.838900 -33.196000
23
Fragment
H -16.868800 -13.016200 -22.768100
H -16.290200 -13.661600 -20.329900
C -16.066300 -13.370400 -22.447900
C -15.760000 -13.718300 -21.113200
H -15.442900 -13.009700 -25.042100
H -15.310300 -13.184800 -27.409300
C -14.954500 -13.646700 -23.193400
C -14.730900 -13.437300 -24.598100
H -14.657200 -11.825500 -26.849700
C -14.492900 -12.685600 -27.272600
C -14.492200 -14.180000 -21.159600
O -14.117500 -14.597200 -18.972200
O -14.116400 -11.890600 -29.551600
O -13.957200 -14.161300 -22.408400
C -13.757000 -12.523000 -28.584800
N -13.639400 -13.793500 -25.172800
N -13.637500 -14.588400 -20.108500
N -13.548100 -13.479600 -26.500300
N -12.580000 -13.223200 -28.467300
O -12.480600 -14.896900 -20.374800
C -12.418700 -13.795300 -27.212300
H -11.989900 -13.294900 -29.161000
O -11.467300 -14.456800 -26.855700
46
Fragment
O -15.129700 -15.398300 -29.108400
H -14.607100 -16.560200 -26.803100
C -14.178300 -16.059800 -28.751700
O -14.116400 -14.958200 -35.589200
N -14.016900 -16.631900 -27.496800
N -13.048800 -16.375500 -29.463800
N -12.959500 -15.266700 -35.855600
N -12.957600 -16.061600 -30.791300
C -12.839900 -17.332100 -27.379300
O -12.639700 -15.693800 -33.555700
O -12.480600 -17.964500 -26.412400
O -12.479500 -15.257900 -36.991900
C -12.104800 -15.675100 -34.804400
C -12.104100 -17.169500 -28.691500
H -11.939800 -18.029600 -29.114400
C -11.866000 -16.417800 -31.366000
C -11.642500 -16.208400 -32.770700
H -11.286600 -16.670300 -28.554700
H -11.154100 -16.845400 -30.922000
C -10.837000 -16.136800 -34.850900
C -10.530600 -16.484700 -33.516100
H -10.306800 -16.193500 -35.634200
H -9.728200 -16.838900 -33.196000
H -16.868800 -13.016200 -22.768100
H -16.290200 -13.661600 -20.329900
C -16.066300 -13.370400 -22.447900
C -15.760000 -13.718300 -21.113200
H -15.442900 -13.009700 -25.042100
H -15.310300 -13.184800 -27.409300
C -14.954500 -13.646700 -23.193400
C -14.730900 -13.437300 -24.598100
H -14.657200 -11.825500 -26.849700
C -14.492900 -12.685600 -27.272600
C -14.492200 -14.180000 -21.159600
O -14.117500 -14.597200 -18.972200
O -14.116400 -11.890600 -29.551600
O -13.957200 -14.161300 -22.408400
C -13.757000 -12.523000 -28.584800
N -13.639400 -13.793500 -25.172800
N -13.637500 -14.588400 -20.108500
N -13.548100 -13.479600 -26.500300
N -12.580000 -13.223200 -28.467300
O -12.480600 -14.896900 -20.374800
C -12.418700 -13.795300 -27.212300
H -11.989900 -13.294900 -29.161000
O -11.467300 -14.456800 -26.855700
