23
Fragment
O -23.206000 -10.023900 -19.814700
H -23.195700 -9.253200 -17.363300
N -22.509100 -9.105600 -17.820500
C -22.377900 -9.448700 -19.146400
C -21.363800 -8.521500 -17.304500
O -21.183900 -8.160800 -16.161900
H -21.132900 -8.284300 -20.279400
C -21.011800 -8.970200 -19.589700
N -20.474800 -8.431000 -18.346200
H -20.464600 -9.695400 -19.922900
N -19.186300 -8.091400 -18.068900
H -18.599300 -8.150900 -19.981300
C -18.373500 -8.028700 -19.064300
C -16.972000 -7.826700 -18.789300
O -16.563900 -7.926100 -17.485100
H -15.939800 -7.540100 -20.576300
C -15.893400 -7.653200 -19.613700
C -15.217700 -7.812500 -17.537400
O -15.210900 -8.097600 -15.275000
C -14.745000 -7.641900 -18.792000
N -14.544500 -7.902800 -16.291000
H -13.790500 -7.540100 -19.064500
O -13.315400 -7.778600 -16.309800
23
Fragment
O -21.327500 -7.527600 -25.775700
H -21.317200 -8.298300 -23.324300
N -20.630700 -8.445900 -23.781500
C -20.499400 -8.102800 -25.107500
C -19.485300 -9.030000 -23.265500
O -19.305400 -9.390700 -22.122900
H -19.254400 -9.267200 -26.240400
C -19.133300 -8.581300 -25.550700
N -18.596300 -9.120500 -24.307300
H -18.586100 -7.856100 -25.884000
N -17.307800 -9.460100 -24.030000
H -16.720800 -9.400600 -25.942400
C -16.495000 -9.522800 -25.025300
C -15.093500 -9.724800 -24.750300
O -14.685400 -9.625400 -23.446100
H -14.061300 -10.011400 -26.537300
C -14.015000 -9.898300 -25.574700
C -13.339200 -9.739000 -23.498500
O -13.332400 -9.453900 -21.236000
C -12.866500 -9.909600 -24.753000
N -12.666000 -9.648700 -22.252000
H -11.912000 -10.011400 -25.025600
O -11.436900 -9.772900 -22.270900
46
Fragment
O -23.206000 -10.023900 -19.814700
H -23.195700 -9.253200 -17.363300
N -22.509100 -9.105600 -17.820500
C -22.377900 -9.448700 -19.146400
C -21.363800 -8.521500 -17.304500
O -21.183900 -8.160800 -16.161900
H -21.132900 -8.284300 -20.279400
C -21.011800 -8.970200 -19.589700
N -20.474800 -8.431000 -18.346200
H -20.464600 -9.695400 -19.922900
N -19.186300 -8.091400 -18.068900
H -18.599300 -8.150900 -19.981300
C -18.373500 -8.028700 -19.064300
C -16.972000 -7.826700 -18.789300
O -16.563900 -7.926100 -17.485100
H -15.939800 -7.540100 -20.576300
C -15.893400 -7.653200 -19.613700
C -15.217700 -7.812500 -17.537400
O -15.210900 -8.097600 -15.275000
C -14.745000 -7.641900 -18.792000
N -14.544500 -7.902800 -16.291000
H -13.790500 -7.540100 -19.064500
O -13.315400 -7.778600 -16.309800
O -21.327500 -7.527600 -25.775700
H -21.317200 -8.298300 -23.324300
N -20.630700 -8.445900 -23.781500
C -20.499400 -8.102800 -25.107500
C -19.485300 -9.030000 -23.265500
O -19.305400 -9.390700 -22.122900
H -19.254400 -9.267200 -26.240400
C -19.133300 -8.581300 -25.550700
N -18.596300 -9.120500 -24.307300
H -18.586100 -7.856100 -25.884000
N -17.307800 -9.460100 -24.030000
H -16.720800 -9.400600 -25.942400
C -16.495000 -9.522800 -25.025300
C -15.093500 -9.724800 -24.750300
O -14.685400 -9.625400 -23.446100
H -14.061300 -10.011400 -26.537300
C -14.015000 -9.898300 -25.574700
C -13.339200 -9.739000 -23.498500
O -13.332400 -9.453900 -21.236000
C -12.866500 -9.909600 -24.753000
N -12.666000 -9.648700 -22.252000
H -11.912000 -10.011400 -25.025600
O -11.436900 -9.772900 -22.270900
