23
Fragment
O -15.129700 -15.398300 -29.108400
H -14.607100 -16.560200 -26.803100
C -14.178300 -16.059800 -28.751700
O -14.116400 -14.958200 -35.589200
N -14.016900 -16.631900 -27.496800
N -13.048800 -16.375500 -29.463800
N -12.959500 -15.266700 -35.855600
N -12.957600 -16.061600 -30.791300
C -12.839900 -17.332100 -27.379300
O -12.639700 -15.693800 -33.555700
O -12.480600 -17.964500 -26.412400
O -12.479500 -15.257900 -36.991900
C -12.104800 -15.675100 -34.804400
C -12.104100 -17.169500 -28.691500
H -11.939800 -18.029600 -29.114400
C -11.866000 -16.417800 -31.366000
C -11.642500 -16.208400 -32.770700
H -11.286600 -16.670300 -28.554700
H -11.154100 -16.845400 -30.922000
C -10.837000 -16.136800 -34.850900
C -10.530600 -16.484700 -33.516100
H -10.306800 -16.193500 -35.634200
H -9.728200 -16.838900 -33.196000
17
Fragment
H -13.251700 -11.437200 -34.990600
O -13.028500 -12.006100 -32.534200
H -12.675600 -12.243400 -31.746600
C -12.367500 -11.819000 -34.778100
C -12.061200 -12.194500 -33.465200
H -11.667000 -11.675400 -36.677000
C -11.433700 -11.960700 -35.783600
O -11.289700 -12.943100 -30.855600
C -10.806700 -12.750000 -33.172200
C -10.499600 -13.207700 -31.793000
C -10.180300 -12.488100 -35.504000
C -9.877400 -12.879900 -34.213100
H -9.479700 -12.593800 -36.182600
N -9.409500 -13.919400 -31.577900
H -9.239300 -14.273400 -30.709400
H -8.997200 -13.235100 -34.018700
H -8.845400 -14.120600 -32.207300
40
Fragment
O -15.129700 -15.398300 -29.108400
H -14.607100 -16.560200 -26.803100
C -14.178300 -16.059800 -28.751700
O -14.116400 -14.958200 -35.589200
N -14.016900 -16.631900 -27.496800
N -13.048800 -16.375500 -29.463800
N -12.959500 -15.266700 -35.855600
N -12.957600 -16.061600 -30.791300
C -12.839900 -17.332100 -27.379300
O -12.639700 -15.693800 -33.555700
O -12.480600 -17.964500 -26.412400
O -12.479500 -15.257900 -36.991900
C -12.104800 -15.675100 -34.804400
C -12.104100 -17.169500 -28.691500
H -11.939800 -18.029600 -29.114400
C -11.866000 -16.417800 -31.366000
C -11.642500 -16.208400 -32.770700
H -11.286600 -16.670300 -28.554700
H -11.154100 -16.845400 -30.922000
C -10.837000 -16.136800 -34.850900
C -10.530600 -16.484700 -33.516100
H -10.306800 -16.193500 -35.634200
H -9.728200 -16.838900 -33.196000
H -13.251700 -11.437200 -34.990600
O -13.028500 -12.006100 -32.534200
H -12.675600 -12.243400 -31.746600
C -12.367500 -11.819000 -34.778100
C -12.061200 -12.194500 -33.465200
H -11.667000 -11.675400 -36.677000
C -11.433700 -11.960700 -35.783600
O -11.289700 -12.943100 -30.855600
C -10.806700 -12.750000 -33.172200
C -10.499600 -13.207700 -31.793000
C -10.180300 -12.488100 -35.504000
C -9.877400 -12.879900 -34.213100
H -9.479700 -12.593800 -36.182600
N -9.409500 -13.919400 -31.577900
H -9.239300 -14.273400 -30.709400
H -8.997200 -13.235100 -34.018700
H -8.845400 -14.120600 -32.207300
