23
Fragment
O -23.206000 -10.023900 -19.814700
H -23.195700 -9.253200 -17.363300
N -22.509100 -9.105600 -17.820500
C -22.377900 -9.448700 -19.146400
C -21.363800 -8.521500 -17.304500
O -21.183900 -8.160800 -16.161900
H -21.132900 -8.284300 -20.279400
C -21.011800 -8.970200 -19.589700
N -20.474800 -8.431000 -18.346200
H -20.464600 -9.695400 -19.922900
N -19.186300 -8.091400 -18.068900
H -18.599300 -8.150900 -19.981300
C -18.373500 -8.028700 -19.064300
C -16.972000 -7.826700 -18.789300
O -16.563900 -7.926100 -17.485100
H -15.939800 -7.540100 -20.576300
C -15.893400 -7.653200 -19.613700
C -15.217700 -7.812500 -17.537400
O -15.210900 -8.097600 -15.275000
C -14.745000 -7.641900 -18.792000
N -14.544500 -7.902800 -16.291000
H -13.790500 -7.540100 -19.064500
O -13.315400 -7.778600 -16.309800
23
Fragment
O -29.625800 -13.283200 -19.456300
H -29.150700 -13.521700 -16.701600
N -28.396700 -13.159000 -19.475100
C -28.196200 -13.419900 -16.974100
O -27.730300 -12.964200 -20.491100
C -27.723500 -13.249300 -18.228700
C -27.047700 -13.408600 -16.152500
H -27.001400 -13.521700 -15.189900
O -26.377300 -13.135700 -18.281000
C -25.969200 -13.235100 -16.976900
C -24.567700 -13.033100 -16.701800
H -24.341900 -12.910900 -15.784800
N -23.754900 -12.970400 -17.697200
H -22.476600 -11.366400 -15.843200
N -22.466400 -12.630800 -17.419900
C -21.929400 -12.091600 -16.176400
H -21.808300 -12.777500 -15.486700
O -21.757300 -12.901000 -19.604300
C -21.577400 -12.540300 -18.461600
C -20.563300 -11.613100 -16.619700
N -20.432000 -11.956200 -17.945700
H -19.745500 -11.808600 -18.402900
O -19.735200 -11.037900 -15.951500
46
Fragment
O -23.206000 -10.023900 -19.814700
H -23.195700 -9.253200 -17.363300
N -22.509100 -9.105600 -17.820500
C -22.377900 -9.448700 -19.146400
C -21.363800 -8.521500 -17.304500
O -21.183900 -8.160800 -16.161900
H -21.132900 -8.284300 -20.279400
C -21.011800 -8.970200 -19.589700
N -20.474800 -8.431000 -18.346200
H -20.464600 -9.695400 -19.922900
N -19.186300 -8.091400 -18.068900
H -18.599300 -8.150900 -19.981300
C -18.373500 -8.028700 -19.064300
C -16.972000 -7.826700 -18.789300
O -16.563900 -7.926100 -17.485100
H -15.939800 -7.540100 -20.576300
C -15.893400 -7.653200 -19.613700
C -15.217700 -7.812500 -17.537400
O -15.210900 -8.097600 -15.275000
C -14.745000 -7.641900 -18.792000
N -14.544500 -7.902800 -16.291000
H -13.790500 -7.540100 -19.064500
O -13.315400 -7.778600 -16.309800
O -29.625800 -13.283200 -19.456300
H -29.150700 -13.521700 -16.701600
N -28.396700 -13.159000 -19.475100
C -28.196200 -13.419900 -16.974100
O -27.730300 -12.964200 -20.491100
C -27.723500 -13.249300 -18.228700
C -27.047700 -13.408600 -16.152500
H -27.001400 -13.521700 -15.189900
O -26.377300 -13.135700 -18.281000
C -25.969200 -13.235100 -16.976900
C -24.567700 -13.033100 -16.701800
H -24.341900 -12.910900 -15.784800
N -23.754900 -12.970400 -17.697200
H -22.476600 -11.366400 -15.843200
N -22.466400 -12.630800 -17.419900
C -21.929400 -12.091600 -16.176400
H -21.808300 -12.777500 -15.486700
O -21.757300 -12.901000 -19.604300
C -21.577400 -12.540300 -18.461600
C -20.563300 -11.613100 -16.619700
N -20.432000 -11.956200 -17.945700
H -19.745500 -11.808600 -18.402900
O -19.735200 -11.037900 -15.951500
