23
Fragment
O -10.217400 -17.344000 -34.064000
H -9.981300 -14.777200 -32.997100
N -9.848000 -17.631500 -32.927100
C -9.714700 -15.216800 -32.231400
O -9.649000 -18.782000 -32.515500
C -9.613900 -16.549500 -32.042900
C -9.262400 -14.640300 -31.024800
H -9.154800 -13.639500 -30.811700
O -9.144900 -16.872700 -30.816500
C -8.929900 -15.662900 -30.194800
C -8.394300 -15.739500 -28.862600
H -8.241000 -16.612100 -28.491600
N -8.109300 -14.640600 -28.267600
H -8.014200 -16.566300 -26.104900
N -7.587200 -14.753100 -27.018600
O -7.248900 -12.479500 -26.704400
C -7.213100 -15.983700 -26.341900
C -7.118600 -13.630800 -26.363400
H -6.577100 -16.525000 -26.860700
C -6.512500 -15.451300 -25.126200
N -6.494000 -14.095800 -25.215700
H -6.134000 -13.621100 -24.569500
O -6.049500 -16.118600 -24.206300
23
Fragment
H -14.625300 -7.096000 -24.581500
O -14.490200 -9.622200 -24.192800
N -14.209000 -7.604800 -25.247300
C -14.097700 -8.955600 -25.132800
H -14.035900 -9.998300 -26.886200
C -13.649000 -7.118300 -26.423600
O -13.593400 -5.965800 -26.780600
C -13.414400 -9.461100 -26.370700
N -13.131300 -8.219700 -27.079400
N -12.647600 -8.095200 -28.344700
H -12.637400 -9.930700 -26.171400
H -12.296900 -10.033300 -28.512000
C -12.279000 -9.184000 -28.916000
C -11.789800 -9.140400 -30.266800
H -11.772300 -7.222400 -31.100000
C -11.597300 -8.163000 -31.201000
O -11.442500 -10.364300 -30.781200
C -11.097800 -8.794600 -32.363000
C -11.037600 -10.109000 -32.041900
H -10.882500 -8.399800 -33.181300
O -10.682800 -12.347000 -32.246400
N -10.604700 -11.234800 -32.785400
O -10.180900 -11.040000 -33.915100
46
Fragment
O -10.217400 -17.344000 -34.064000
H -9.981300 -14.777200 -32.997100
N -9.848000 -17.631500 -32.927100
C -9.714700 -15.216800 -32.231400
O -9.649000 -18.782000 -32.515500
C -9.613900 -16.549500 -32.042900
C -9.262400 -14.640300 -31.024800
H -9.154800 -13.639500 -30.811700
O -9.144900 -16.872700 -30.816500
C -8.929900 -15.662900 -30.194800
C -8.394300 -15.739500 -28.862600
H -8.241000 -16.612100 -28.491600
N -8.109300 -14.640600 -28.267600
H -8.014200 -16.566300 -26.104900
N -7.587200 -14.753100 -27.018600
O -7.248900 -12.479500 -26.704400
C -7.213100 -15.983700 -26.341900
C -7.118600 -13.630800 -26.363400
H -6.577100 -16.525000 -26.860700
C -6.512500 -15.451300 -25.126200
N -6.494000 -14.095800 -25.215700
H -6.134000 -13.621100 -24.569500
O -6.049500 -16.118600 -24.206300
H -14.625300 -7.096000 -24.581500
O -14.490200 -9.622200 -24.192800
N -14.209000 -7.604800 -25.247300
C -14.097700 -8.955600 -25.132800
H -14.035900 -9.998300 -26.886200
C -13.649000 -7.118300 -26.423600
O -13.593400 -5.965800 -26.780600
C -13.414400 -9.461100 -26.370700
N -13.131300 -8.219700 -27.079400
N -12.647600 -8.095200 -28.344700
H -12.637400 -9.930700 -26.171400
H -12.296900 -10.033300 -28.512000
C -12.279000 -9.184000 -28.916000
C -11.789800 -9.140400 -30.266800
H -11.772300 -7.222400 -31.100000
C -11.597300 -8.163000 -31.201000
O -11.442500 -10.364300 -30.781200
C -11.097800 -8.794600 -32.363000
C -11.037600 -10.109000 -32.041900
H -10.882500 -8.399800 -33.181300
O -10.682800 -12.347000 -32.246400
N -10.604700 -11.234800 -32.785400
O -10.180900 -11.040000 -33.915100
