23
Fragment
O -10.217400 -17.344000 -34.064000
H -9.981300 -14.777200 -32.997100
N -9.848000 -17.631500 -32.927100
C -9.714700 -15.216800 -32.231400
O -9.649000 -18.782000 -32.515500
C -9.613900 -16.549500 -32.042900
C -9.262400 -14.640300 -31.024800
H -9.154800 -13.639500 -30.811700
O -9.144900 -16.872700 -30.816500
C -8.929900 -15.662900 -30.194800
C -8.394300 -15.739500 -28.862600
H -8.241000 -16.612100 -28.491600
N -8.109300 -14.640600 -28.267600
H -8.014200 -16.566300 -26.104900
N -7.587200 -14.753100 -27.018600
O -7.248900 -12.479500 -26.704400
C -7.213100 -15.983700 -26.341900
C -7.118600 -13.630800 -26.363400
H -6.577100 -16.525000 -26.860700
C -6.512500 -15.451300 -25.126200
N -6.494000 -14.095800 -25.215700
H -6.134000 -13.621100 -24.569500
O -6.049500 -16.118600 -24.206300
18
Fragment
H -10.030800 -16.745800 -18.149900
H -9.811900 -19.151900 -17.839400
C -9.704600 -17.299400 -18.842400
C -9.547800 -18.680100 -18.684100
H -9.481300 -15.760900 -20.134000
C -9.359700 -16.700600 -20.017600
C -9.057200 -19.415500 -19.735600
H -9.011700 -20.348800 -19.606800
C -8.827800 -17.422400 -21.109800
H -8.679000 -15.918400 -22.372200
C -8.676000 -18.835600 -20.953000
N -8.459700 -16.754200 -22.231800
H -8.191800 -17.221500 -22.993200
C -8.170500 -19.670600 -22.066700
O -8.050900 -19.217400 -23.228300
N -7.848900 -20.949400 -21.811500
H -7.822600 -21.280400 -20.981800
H -7.544500 -21.406400 -22.536000
41
Fragment
O -10.217400 -17.344000 -34.064000
H -9.981300 -14.777200 -32.997100
N -9.848000 -17.631500 -32.927100
C -9.714700 -15.216800 -32.231400
O -9.649000 -18.782000 -32.515500
C -9.613900 -16.549500 -32.042900
C -9.262400 -14.640300 -31.024800
H -9.154800 -13.639500 -30.811700
O -9.144900 -16.872700 -30.816500
C -8.929900 -15.662900 -30.194800
C -8.394300 -15.739500 -28.862600
H -8.241000 -16.612100 -28.491600
N -8.109300 -14.640600 -28.267600
H -8.014200 -16.566300 -26.104900
N -7.587200 -14.753100 -27.018600
O -7.248900 -12.479500 -26.704400
C -7.213100 -15.983700 -26.341900
C -7.118600 -13.630800 -26.363400
H -6.577100 -16.525000 -26.860700
C -6.512500 -15.451300 -25.126200
N -6.494000 -14.095800 -25.215700
H -6.134000 -13.621100 -24.569500
O -6.049500 -16.118600 -24.206300
H -10.030800 -16.745800 -18.149900
H -9.811900 -19.151900 -17.839400
C -9.704600 -17.299400 -18.842400
C -9.547800 -18.680100 -18.684100
H -9.481300 -15.760900 -20.134000
C -9.359700 -16.700600 -20.017600
C -9.057200 -19.415500 -19.735600
H -9.011700 -20.348800 -19.606800
C -8.827800 -17.422400 -21.109800
H -8.679000 -15.918400 -22.372200
C -8.676000 -18.835600 -20.953000
N -8.459700 -16.754200 -22.231800
H -8.191800 -17.221500 -22.993200
C -8.170500 -19.670600 -22.066700
O -8.050900 -19.217400 -23.228300
N -7.848900 -20.949400 -21.811500
H -7.822600 -21.280400 -20.981800
H -7.544500 -21.406400 -22.536000
