23
Fragment
O -10.217400 -17.344000 -34.064000
H -9.981300 -14.777200 -32.997100
N -9.848000 -17.631500 -32.927100
C -9.714700 -15.216800 -32.231400
O -9.649000 -18.782000 -32.515500
C -9.613900 -16.549500 -32.042900
C -9.262400 -14.640300 -31.024800
H -9.154800 -13.639500 -30.811700
O -9.144900 -16.872700 -30.816500
C -8.929900 -15.662900 -30.194800
C -8.394300 -15.739500 -28.862600
H -8.241000 -16.612100 -28.491600
N -8.109300 -14.640600 -28.267600
H -8.014200 -16.566300 -26.104900
N -7.587200 -14.753100 -27.018600
O -7.248900 -12.479500 -26.704400
C -7.213100 -15.983700 -26.341900
C -7.118600 -13.630800 -26.363400
H -6.577100 -16.525000 -26.860700
C -6.512500 -15.451300 -25.126200
N -6.494000 -14.095800 -25.215700
H -6.134000 -13.621100 -24.569500
O -6.049500 -16.118600 -24.206300
23
Fragment
O -10.936900 -11.557900 -26.973100
H -10.852300 -14.055300 -26.609900
N -10.492400 -13.580600 -25.963700
C -10.473900 -12.225100 -26.053200
H -10.409300 -11.151400 -24.318700
C -9.867800 -14.045600 -24.816000
C -9.773300 -11.692700 -24.837500
O -9.737400 -15.196900 -24.475000
N -9.399100 -12.923400 -24.160800
H -8.972100 -11.110100 -25.074500
N -8.877000 -13.035800 -22.911800
H -8.745400 -11.064300 -22.687800
C -8.592100 -11.936900 -22.316800
C -8.056500 -12.013500 -20.984600
O -7.841500 -10.803700 -20.362900
H -7.831600 -14.036900 -20.367700
C -7.724000 -13.036200 -20.154600
C -7.372500 -11.126900 -19.136500
O -7.337400 -8.894400 -18.663900
C -7.271700 -12.459600 -18.948000
N -7.138400 -10.044900 -18.252300
H -7.005100 -12.899200 -18.182300
O -6.769000 -10.332500 -17.115400
46
Fragment
O -10.217400 -17.344000 -34.064000
H -9.981300 -14.777200 -32.997100
N -9.848000 -17.631500 -32.927100
C -9.714700 -15.216800 -32.231400
O -9.649000 -18.782000 -32.515500
C -9.613900 -16.549500 -32.042900
C -9.262400 -14.640300 -31.024800
H -9.154800 -13.639500 -30.811700
O -9.144900 -16.872700 -30.816500
C -8.929900 -15.662900 -30.194800
C -8.394300 -15.739500 -28.862600
H -8.241000 -16.612100 -28.491600
N -8.109300 -14.640600 -28.267600
H -8.014200 -16.566300 -26.104900
N -7.587200 -14.753100 -27.018600
O -7.248900 -12.479500 -26.704400
C -7.213100 -15.983700 -26.341900
C -7.118600 -13.630800 -26.363400
H -6.577100 -16.525000 -26.860700
C -6.512500 -15.451300 -25.126200
N -6.494000 -14.095800 -25.215700
H -6.134000 -13.621100 -24.569500
O -6.049500 -16.118600 -24.206300
O -10.936900 -11.557900 -26.973100
H -10.852300 -14.055300 -26.609900
N -10.492400 -13.580600 -25.963700
C -10.473900 -12.225100 -26.053200
H -10.409300 -11.151400 -24.318700
C -9.867800 -14.045600 -24.816000
C -9.773300 -11.692700 -24.837500
O -9.737400 -15.196900 -24.475000
N -9.399100 -12.923400 -24.160800
H -8.972100 -11.110100 -25.074500
N -8.877000 -13.035800 -22.911800
H -8.745400 -11.064300 -22.687800
C -8.592100 -11.936900 -22.316800
C -8.056500 -12.013500 -20.984600
O -7.841500 -10.803700 -20.362900
H -7.831600 -14.036900 -20.367700
C -7.724000 -13.036200 -20.154600
C -7.372500 -11.126900 -19.136500
O -7.337400 -8.894400 -18.663900
C -7.271700 -12.459600 -18.948000
N -7.138400 -10.044900 -18.252300
H -7.005100 -12.899200 -18.182300
O -6.769000 -10.332500 -17.115400
