23
Fragment
O -10.217400 -17.344000 -34.064000
H -9.981300 -14.777200 -32.997100
N -9.848000 -17.631500 -32.927100
C -9.714700 -15.216800 -32.231400
O -9.649000 -18.782000 -32.515500
C -9.613900 -16.549500 -32.042900
C -9.262400 -14.640300 -31.024800
H -9.154800 -13.639500 -30.811700
O -9.144900 -16.872700 -30.816500
C -8.929900 -15.662900 -30.194800
C -8.394300 -15.739500 -28.862600
H -8.241000 -16.612100 -28.491600
N -8.109300 -14.640600 -28.267600
H -8.014200 -16.566300 -26.104900
N -7.587200 -14.753100 -27.018600
O -7.248900 -12.479500 -26.704400
C -7.213100 -15.983700 -26.341900
C -7.118600 -13.630800 -26.363400
H -6.577100 -16.525000 -26.860700
C -6.512500 -15.451300 -25.126200
N -6.494000 -14.095800 -25.215700
H -6.134000 -13.621100 -24.569500
O -6.049500 -16.118600 -24.206300
23
Fragment
O -16.599000 -20.783300 -44.032900
H -16.514500 -23.280800 -43.669700
N -16.154500 -22.806100 -43.023500
C -16.136000 -21.450600 -43.113000
H -16.071400 -20.376900 -41.378500
C -15.529900 -23.271100 -41.875800
C -15.435400 -20.918200 -41.897300
O -15.399600 -24.422400 -41.534800
N -15.061300 -22.148800 -41.220600
H -14.634300 -20.335600 -42.134300
N -14.539200 -22.261300 -39.971600
H -14.407500 -20.289800 -39.747600
C -14.254200 -21.162400 -39.376600
C -13.718600 -21.239000 -38.044400
O -13.503600 -20.029200 -37.422700
H -13.493700 -23.262400 -37.427500
C -13.386100 -22.261600 -37.214400
C -13.034600 -20.352400 -36.196300
O -12.999500 -18.119900 -35.723700
C -12.933800 -21.685100 -36.007800
N -12.800500 -19.270300 -35.312100
H -12.667200 -22.124700 -35.242100
O -12.431100 -19.557900 -34.175200
46
Fragment
O -10.217400 -17.344000 -34.064000
H -9.981300 -14.777200 -32.997100
N -9.848000 -17.631500 -32.927100
C -9.714700 -15.216800 -32.231400
O -9.649000 -18.782000 -32.515500
C -9.613900 -16.549500 -32.042900
C -9.262400 -14.640300 -31.024800
H -9.154800 -13.639500 -30.811700
O -9.144900 -16.872700 -30.816500
C -8.929900 -15.662900 -30.194800
C -8.394300 -15.739500 -28.862600
H -8.241000 -16.612100 -28.491600
N -8.109300 -14.640600 -28.267600
H -8.014200 -16.566300 -26.104900
N -7.587200 -14.753100 -27.018600
O -7.248900 -12.479500 -26.704400
C -7.213100 -15.983700 -26.341900
C -7.118600 -13.630800 -26.363400
H -6.577100 -16.525000 -26.860700
C -6.512500 -15.451300 -25.126200
N -6.494000 -14.095800 -25.215700
H -6.134000 -13.621100 -24.569500
O -6.049500 -16.118600 -24.206300
O -16.599000 -20.783300 -44.032900
H -16.514500 -23.280800 -43.669700
N -16.154500 -22.806100 -43.023500
C -16.136000 -21.450600 -43.113000
H -16.071400 -20.376900 -41.378500
C -15.529900 -23.271100 -41.875800
C -15.435400 -20.918200 -41.897300
O -15.399600 -24.422400 -41.534800
N -15.061300 -22.148800 -41.220600
H -14.634300 -20.335600 -42.134300
N -14.539200 -22.261300 -39.971600
H -14.407500 -20.289800 -39.747600
C -14.254200 -21.162400 -39.376600
C -13.718600 -21.239000 -38.044400
O -13.503600 -20.029200 -37.422700
H -13.493700 -23.262400 -37.427500
C -13.386100 -22.261600 -37.214400
C -13.034600 -20.352400 -36.196300
O -12.999500 -18.119900 -35.723700
C -12.933800 -21.685100 -36.007800
N -12.800500 -19.270300 -35.312100
H -12.667200 -22.124700 -35.242100
O -12.431100 -19.557900 -34.175200
