23
Fragment
O -10.217400 -17.344000 -34.064000
H -9.981300 -14.777200 -32.997100
N -9.848000 -17.631500 -32.927100
C -9.714700 -15.216800 -32.231400
O -9.649000 -18.782000 -32.515500
C -9.613900 -16.549500 -32.042900
C -9.262400 -14.640300 -31.024800
H -9.154800 -13.639500 -30.811700
O -9.144900 -16.872700 -30.816500
C -8.929900 -15.662900 -30.194800
C -8.394300 -15.739500 -28.862600
H -8.241000 -16.612100 -28.491600
N -8.109300 -14.640600 -28.267600
H -8.014200 -16.566300 -26.104900
N -7.587200 -14.753100 -27.018600
O -7.248900 -12.479500 -26.704400
C -7.213100 -15.983700 -26.341900
C -7.118600 -13.630800 -26.363400
H -6.577100 -16.525000 -26.860700
C -6.512500 -15.451300 -25.126200
N -6.494000 -14.095800 -25.215700
H -6.134000 -13.621100 -24.569500
O -6.049500 -16.118600 -24.206300
23
Fragment
H -14.361400 -20.063100 -24.581500
O -14.226300 -22.589200 -24.192800
N -13.945100 -20.571900 -25.247300
C -13.833700 -21.922600 -25.132800
H -13.772000 -22.965300 -26.886200
C -13.385000 -20.085300 -26.423600
O -13.329500 -18.932800 -26.780600
C -13.150400 -22.428100 -26.370700
N -12.867400 -21.186700 -27.079400
N -12.383700 -21.062200 -28.344700
H -12.373500 -22.897800 -26.171400
H -12.033000 -23.000300 -28.512000
C -12.015100 -22.151000 -28.916000
C -11.525800 -22.107400 -30.266800
H -11.508400 -20.189500 -31.100000
C -11.333400 -21.130000 -31.201000
O -11.178600 -23.331300 -30.781200
C -10.833900 -21.761600 -32.363000
C -10.773600 -23.076000 -32.041900
H -10.618600 -21.366800 -33.181300
O -10.418900 -25.314000 -32.246400
N -10.340800 -24.201800 -32.785400
O -9.917000 -24.007000 -33.915100
46
Fragment
O -10.217400 -17.344000 -34.064000
H -9.981300 -14.777200 -32.997100
N -9.848000 -17.631500 -32.927100
C -9.714700 -15.216800 -32.231400
O -9.649000 -18.782000 -32.515500
C -9.613900 -16.549500 -32.042900
C -9.262400 -14.640300 -31.024800
H -9.154800 -13.639500 -30.811700
O -9.144900 -16.872700 -30.816500
C -8.929900 -15.662900 -30.194800
C -8.394300 -15.739500 -28.862600
H -8.241000 -16.612100 -28.491600
N -8.109300 -14.640600 -28.267600
H -8.014200 -16.566300 -26.104900
N -7.587200 -14.753100 -27.018600
O -7.248900 -12.479500 -26.704400
C -7.213100 -15.983700 -26.341900
C -7.118600 -13.630800 -26.363400
H -6.577100 -16.525000 -26.860700
C -6.512500 -15.451300 -25.126200
N -6.494000 -14.095800 -25.215700
H -6.134000 -13.621100 -24.569500
O -6.049500 -16.118600 -24.206300
H -14.361400 -20.063100 -24.581500
O -14.226300 -22.589200 -24.192800
N -13.945100 -20.571900 -25.247300
C -13.833700 -21.922600 -25.132800
H -13.772000 -22.965300 -26.886200
C -13.385000 -20.085300 -26.423600
O -13.329500 -18.932800 -26.780600
C -13.150400 -22.428100 -26.370700
N -12.867400 -21.186700 -27.079400
N -12.383700 -21.062200 -28.344700
H -12.373500 -22.897800 -26.171400
H -12.033000 -23.000300 -28.512000
C -12.015100 -22.151000 -28.916000
C -11.525800 -22.107400 -30.266800
H -11.508400 -20.189500 -31.100000
C -11.333400 -21.130000 -31.201000
O -11.178600 -23.331300 -30.781200
C -10.833900 -21.761600 -32.363000
C -10.773600 -23.076000 -32.041900
H -10.618600 -21.366800 -33.181300
O -10.418900 -25.314000 -32.246400
N -10.340800 -24.201800 -32.785400
O -9.917000 -24.007000 -33.915100
