23
Fragment
O -10.217400 -17.344000 -34.064000
H -9.981300 -14.777200 -32.997100
N -9.848000 -17.631500 -32.927100
C -9.714700 -15.216800 -32.231400
O -9.649000 -18.782000 -32.515500
C -9.613900 -16.549500 -32.042900
C -9.262400 -14.640300 -31.024800
H -9.154800 -13.639500 -30.811700
O -9.144900 -16.872700 -30.816500
C -8.929900 -15.662900 -30.194800
C -8.394300 -15.739500 -28.862600
H -8.241000 -16.612100 -28.491600
N -8.109300 -14.640600 -28.267600
H -8.014200 -16.566300 -26.104900
N -7.587200 -14.753100 -27.018600
O -7.248900 -12.479500 -26.704400
C -7.213100 -15.983700 -26.341900
C -7.118600 -13.630800 -26.363400
H -6.577100 -16.525000 -26.860700
C -6.512500 -15.451300 -25.126200
N -6.494000 -14.095800 -25.215700
H -6.134000 -13.621100 -24.569500
O -6.049500 -16.118600 -24.206300
18
Fragment
H -11.207300 -24.248000 -39.614600
H -10.976000 -24.060900 -38.043400
N -10.893500 -23.710200 -38.903700
H -10.838900 -19.991800 -39.983100
O -10.811100 -21.947500 -40.293400
C -10.651600 -22.411600 -39.139100
N -10.644800 -19.482000 -39.221200
H -10.378500 -18.646500 -39.317700
C -10.182500 -21.564800 -38.022000
C -10.156000 -20.145400 -38.137200
C -9.723100 -22.151400 -36.832600
H -9.688800 -23.129100 -36.787800
C -9.652600 -19.408100 -37.051200
H -9.641800 -18.481200 -37.115300
C -9.242400 -21.405200 -35.781200
C -9.209000 -20.016500 -35.903200
H -8.958600 -21.891500 -34.957200
H -8.912600 -19.466600 -35.158500
41
Fragment
O -10.217400 -17.344000 -34.064000
H -9.981300 -14.777200 -32.997100
N -9.848000 -17.631500 -32.927100
C -9.714700 -15.216800 -32.231400
O -9.649000 -18.782000 -32.515500
C -9.613900 -16.549500 -32.042900
C -9.262400 -14.640300 -31.024800
H -9.154800 -13.639500 -30.811700
O -9.144900 -16.872700 -30.816500
C -8.929900 -15.662900 -30.194800
C -8.394300 -15.739500 -28.862600
H -8.241000 -16.612100 -28.491600
N -8.109300 -14.640600 -28.267600
H -8.014200 -16.566300 -26.104900
N -7.587200 -14.753100 -27.018600
O -7.248900 -12.479500 -26.704400
C -7.213100 -15.983700 -26.341900
C -7.118600 -13.630800 -26.363400
H -6.577100 -16.525000 -26.860700
C -6.512500 -15.451300 -25.126200
N -6.494000 -14.095800 -25.215700
H -6.134000 -13.621100 -24.569500
O -6.049500 -16.118600 -24.206300
H -11.207300 -24.248000 -39.614600
H -10.976000 -24.060900 -38.043400
N -10.893500 -23.710200 -38.903700
H -10.838900 -19.991800 -39.983100
O -10.811100 -21.947500 -40.293400
C -10.651600 -22.411600 -39.139100
N -10.644800 -19.482000 -39.221200
H -10.378500 -18.646500 -39.317700
C -10.182500 -21.564800 -38.022000
C -10.156000 -20.145400 -38.137200
C -9.723100 -22.151400 -36.832600
H -9.688800 -23.129100 -36.787800
C -9.652600 -19.408100 -37.051200
H -9.641800 -18.481200 -37.115300
C -9.242400 -21.405200 -35.781200
C -9.209000 -20.016500 -35.903200
H -8.958600 -21.891500 -34.957200
H -8.912600 -19.466600 -35.158500
