17
Fragment
H -22.176800 -2.847300 -28.675400
O -21.871800 -3.044900 -29.440600
N -21.022700 -4.069700 -29.109000
N -20.544900 -3.518900 -32.490600
C -20.485400 -3.953000 -31.433200
C -20.348500 -4.525600 -30.110500
H -19.837200 -5.978800 -27.956000
C -19.366400 -5.604800 -29.907400
C -19.250300 -6.226200 -28.661400
H -18.596000 -5.588800 -31.799100
C -18.509800 -5.990200 -30.942400
C -18.288300 -7.199600 -28.442500
H -18.215200 -7.622300 -27.595300
C -17.533900 -6.955900 -30.729800
C -17.430600 -7.548700 -29.483100
H -16.944500 -7.205800 -31.431900
Br -16.104000 -8.870000 -29.196600
32
Fragment
H -27.221500 -6.699100 -27.699000
H -26.773900 -5.981400 -30.036400
C -26.691400 -5.954400 -27.955800
C -26.450200 -5.568000 -29.243800
N -26.044300 -5.096100 -27.083100
H -25.959600 -3.141300 -30.660700
N -25.642400 -4.457600 -29.159500
C -25.431700 -4.208700 -27.850800
H -25.414200 -3.452000 -32.922500
C -25.186700 -3.633000 -30.284100
H -24.908800 -3.487300 -27.521800
C -24.813800 -4.156300 -32.708800
C -24.544200 -4.458700 -31.375100
H -24.533100 -2.966000 -29.954300
H -24.398400 -4.672900 -34.635600
C -24.206800 -4.883400 -33.730200
C -23.660500 -5.489200 -31.077800
H -23.468900 -5.699700 -30.172500
H -23.334200 -7.406600 -34.853800
C -23.323100 -5.913900 -33.433000
C -23.053500 -6.216300 -32.099200
H -22.958500 -6.885300 -37.286200
C -22.680700 -6.739600 -34.523900
H -22.453100 -6.920600 -31.885600
C -22.435600 -6.163900 -36.957200
N -22.225000 -5.915000 -35.648500
H -21.907700 -7.231300 -34.147400
N -21.823000 -5.276500 -37.725000
C -21.417200 -4.804600 -35.564300
C -21.175900 -4.418200 -36.852200
H -21.093500 -4.391200 -34.771700
H -20.645800 -3.673500 -37.109100
49
Fragment
H -22.176800 -2.847300 -28.675400
O -21.871800 -3.044900 -29.440600
N -21.022700 -4.069700 -29.109000
N -20.544900 -3.518900 -32.490600
C -20.485400 -3.953000 -31.433200
C -20.348500 -4.525600 -30.110500
H -19.837200 -5.978800 -27.956000
C -19.366400 -5.604800 -29.907400
C -19.250300 -6.226200 -28.661400
H -18.596000 -5.588800 -31.799100
C -18.509800 -5.990200 -30.942400
C -18.288300 -7.199600 -28.442500
H -18.215200 -7.622300 -27.595300
C -17.533900 -6.955900 -30.729800
C -17.430600 -7.548700 -29.483100
H -16.944500 -7.205800 -31.431900
Br -16.104000 -8.870000 -29.196600
H -27.221500 -6.699100 -27.699000
H -26.773900 -5.981400 -30.036400
C -26.691400 -5.954400 -27.955800
C -26.450200 -5.568000 -29.243800
N -26.044300 -5.096100 -27.083100
H -25.959600 -3.141300 -30.660700
N -25.642400 -4.457600 -29.159500
C -25.431700 -4.208700 -27.850800
H -25.414200 -3.452000 -32.922500
C -25.186700 -3.633000 -30.284100
H -24.908800 -3.487300 -27.521800
C -24.813800 -4.156300 -32.708800
C -24.544200 -4.458700 -31.375100
H -24.533100 -2.966000 -29.954300
H -24.398400 -4.672900 -34.635600
C -24.206800 -4.883400 -33.730200
C -23.660500 -5.489200 -31.077800
H -23.468900 -5.699700 -30.172500
H -23.334200 -7.406600 -34.853800
C -23.323100 -5.913900 -33.433000
C -23.053500 -6.216300 -32.099200
H -22.958500 -6.885300 -37.286200
C -22.680700 -6.739600 -34.523900
H -22.453100 -6.920600 -31.885600
C -22.435600 -6.163900 -36.957200
N -22.225000 -5.915000 -35.648500
H -21.907700 -7.231300 -34.147400
N -21.823000 -5.276500 -37.725000
C -21.417200 -4.804600 -35.564300
C -21.175900 -4.418200 -36.852200
H -21.093500 -4.391200 -34.771700
H -20.645800 -3.673500 -37.109100
