17
Fragment
H -22.176800 -2.847300 -28.675400
O -21.871800 -3.044900 -29.440600
N -21.022700 -4.069700 -29.109000
N -20.544900 -3.518900 -32.490600
C -20.485400 -3.953000 -31.433200
C -20.348500 -4.525600 -30.110500
H -19.837200 -5.978800 -27.956000
C -19.366400 -5.604800 -29.907400
C -19.250300 -6.226200 -28.661400
H -18.596000 -5.588800 -31.799100
C -18.509800 -5.990200 -30.942400
C -18.288300 -7.199600 -28.442500
H -18.215200 -7.622300 -27.595300
C -17.533900 -6.955900 -30.729800
C -17.430600 -7.548700 -29.483100
H -16.944500 -7.205800 -31.431900
Br -16.104000 -8.870000 -29.196600
17
Fragment
H -22.176800 -8.033600 -28.675400
O -21.871800 -8.231200 -29.440600
N -21.022700 -9.256000 -29.109000
N -20.544900 -8.705200 -32.490600
C -20.485400 -9.139300 -31.433200
C -20.348500 -9.711900 -30.110500
H -19.837200 -11.165100 -27.956000
C -19.366400 -10.791100 -29.907400
C -19.250300 -11.412500 -28.661400
H -18.596000 -10.775100 -31.799100
C -18.509800 -11.176500 -30.942400
C -18.288300 -12.385900 -28.442500
H -18.215200 -12.808600 -27.595300
C -17.533900 -12.142200 -30.729800
C -17.430600 -12.735000 -29.483100
H -16.944500 -12.392100 -31.431900
Br -16.104000 -14.056300 -29.196600
34
Fragment
H -22.176800 -2.847300 -28.675400
O -21.871800 -3.044900 -29.440600
N -21.022700 -4.069700 -29.109000
N -20.544900 -3.518900 -32.490600
C -20.485400 -3.953000 -31.433200
C -20.348500 -4.525600 -30.110500
H -19.837200 -5.978800 -27.956000
C -19.366400 -5.604800 -29.907400
C -19.250300 -6.226200 -28.661400
H -18.596000 -5.588800 -31.799100
C -18.509800 -5.990200 -30.942400
C -18.288300 -7.199600 -28.442500
H -18.215200 -7.622300 -27.595300
C -17.533900 -6.955900 -30.729800
C -17.430600 -7.548700 -29.483100
H -16.944500 -7.205800 -31.431900
Br -16.104000 -8.870000 -29.196600
H -22.176800 -8.033600 -28.675400
O -21.871800 -8.231200 -29.440600
N -21.022700 -9.256000 -29.109000
N -20.544900 -8.705200 -32.490600
C -20.485400 -9.139300 -31.433200
C -20.348500 -9.711900 -30.110500
H -19.837200 -11.165100 -27.956000
C -19.366400 -10.791100 -29.907400
C -19.250300 -11.412500 -28.661400
H -18.596000 -10.775100 -31.799100
C -18.509800 -11.176500 -30.942400
C -18.288300 -12.385900 -28.442500
H -18.215200 -12.808600 -27.595300
C -17.533900 -12.142200 -30.729800
C -17.430600 -12.735000 -29.483100
H -16.944500 -12.392100 -31.431900
Br -16.104000 -14.056300 -29.196600
