17
Fragment
H -22.176800 -2.847300 -28.675400
O -21.871800 -3.044900 -29.440600
N -21.022700 -4.069700 -29.109000
N -20.544900 -3.518900 -32.490600
C -20.485400 -3.953000 -31.433200
C -20.348500 -4.525600 -30.110500
H -19.837200 -5.978800 -27.956000
C -19.366400 -5.604800 -29.907400
C -19.250300 -6.226200 -28.661400
H -18.596000 -5.588800 -31.799100
C -18.509800 -5.990200 -30.942400
C -18.288300 -7.199600 -28.442500
H -18.215200 -7.622300 -27.595300
C -17.533900 -6.955900 -30.729800
C -17.430600 -7.548700 -29.483100
H -16.944500 -7.205800 -31.431900
Br -16.104000 -8.870000 -29.196600
32
Fragment
H -14.277900 -11.885400 -27.699000
H -13.830300 -11.167700 -30.036400
C -13.747800 -11.140700 -27.955800
C -13.506600 -10.754300 -29.243800
N -13.100700 -10.282400 -27.083100
H -13.016000 -8.327600 -30.660700
N -12.698800 -9.643900 -29.159500
C -12.488100 -9.395000 -27.850800
H -12.470600 -8.638300 -32.922500
C -12.243100 -8.819300 -30.284100
H -11.965200 -8.673600 -27.521800
C -11.870200 -9.342600 -32.708800
C -11.600600 -9.645000 -31.375100
H -11.589500 -8.152300 -29.954300
H -11.454800 -9.859200 -34.635600
C -11.263200 -10.069700 -33.730200
C -10.716900 -10.675500 -31.077800
H -10.525300 -10.886000 -30.172500
H -10.390600 -12.592900 -34.853800
C -10.379500 -11.100200 -33.433000
C -10.109900 -11.402600 -32.099200
H -10.014900 -12.071600 -37.286200
C -9.737100 -11.925900 -34.523900
H -9.509500 -12.106900 -31.885600
C -9.492000 -11.350200 -36.957200
N -9.281400 -11.101300 -35.648500
H -8.964100 -12.417600 -34.147400
N -8.879400 -10.462800 -37.725000
C -8.473600 -9.990900 -35.564300
C -8.232300 -9.604500 -36.852200
H -8.149900 -9.577500 -34.771700
H -7.702200 -8.859800 -37.109100
49
Fragment
H -22.176800 -2.847300 -28.675400
O -21.871800 -3.044900 -29.440600
N -21.022700 -4.069700 -29.109000
N -20.544900 -3.518900 -32.490600
C -20.485400 -3.953000 -31.433200
C -20.348500 -4.525600 -30.110500
H -19.837200 -5.978800 -27.956000
C -19.366400 -5.604800 -29.907400
C -19.250300 -6.226200 -28.661400
H -18.596000 -5.588800 -31.799100
C -18.509800 -5.990200 -30.942400
C -18.288300 -7.199600 -28.442500
H -18.215200 -7.622300 -27.595300
C -17.533900 -6.955900 -30.729800
C -17.430600 -7.548700 -29.483100
H -16.944500 -7.205800 -31.431900
Br -16.104000 -8.870000 -29.196600
H -14.277900 -11.885400 -27.699000
H -13.830300 -11.167700 -30.036400
C -13.747800 -11.140700 -27.955800
C -13.506600 -10.754300 -29.243800
N -13.100700 -10.282400 -27.083100
H -13.016000 -8.327600 -30.660700
N -12.698800 -9.643900 -29.159500
C -12.488100 -9.395000 -27.850800
H -12.470600 -8.638300 -32.922500
C -12.243100 -8.819300 -30.284100
H -11.965200 -8.673600 -27.521800
C -11.870200 -9.342600 -32.708800
C -11.600600 -9.645000 -31.375100
H -11.589500 -8.152300 -29.954300
H -11.454800 -9.859200 -34.635600
C -11.263200 -10.069700 -33.730200
C -10.716900 -10.675500 -31.077800
H -10.525300 -10.886000 -30.172500
H -10.390600 -12.592900 -34.853800
C -10.379500 -11.100200 -33.433000
C -10.109900 -11.402600 -32.099200
H -10.014900 -12.071600 -37.286200
C -9.737100 -11.925900 -34.523900
H -9.509500 -12.106900 -31.885600
C -9.492000 -11.350200 -36.957200
N -9.281400 -11.101300 -35.648500
H -8.964100 -12.417600 -34.147400
N -8.879400 -10.462800 -37.725000
C -8.473600 -9.990900 -35.564300
C -8.232300 -9.604500 -36.852200
H -8.149900 -9.577500 -34.771700
H -7.702200 -8.859800 -37.109100
