17
Fragment
H -22.176800 -2.847300 -28.675400
O -21.871800 -3.044900 -29.440600
N -21.022700 -4.069700 -29.109000
N -20.544900 -3.518900 -32.490600
C -20.485400 -3.953000 -31.433200
C -20.348500 -4.525600 -30.110500
H -19.837200 -5.978800 -27.956000
C -19.366400 -5.604800 -29.907400
C -19.250300 -6.226200 -28.661400
H -18.596000 -5.588800 -31.799100
C -18.509800 -5.990200 -30.942400
C -18.288300 -7.199600 -28.442500
H -18.215200 -7.622300 -27.595300
C -17.533900 -6.955900 -30.729800
C -17.430600 -7.548700 -29.483100
H -16.944500 -7.205800 -31.431900
Br -16.104000 -8.870000 -29.196600
17
Fragment
Br -19.470900 -11.463100 -24.810100
H -18.630400 -9.799000 -22.574800
C -18.144300 -10.141800 -24.523600
C -18.041000 -9.549000 -23.276900
H -17.359800 -10.215500 -26.411400
C -17.286600 -9.792800 -25.564200
C -17.065200 -8.583300 -23.064300
H -16.979000 -8.181900 -22.207600
C -16.324600 -8.819300 -25.345300
C -16.208500 -8.198000 -24.099300
H -15.737700 -8.571900 -26.050700
C -15.226500 -7.118700 -23.896200
C -15.089500 -6.546100 -22.573500
N -15.030100 -6.112100 -21.516100
N -14.552200 -6.662800 -24.897700
O -13.703100 -5.638000 -24.566100
H -13.398100 -5.440400 -25.331300
34
Fragment
H -22.176800 -2.847300 -28.675400
O -21.871800 -3.044900 -29.440600
N -21.022700 -4.069700 -29.109000
N -20.544900 -3.518900 -32.490600
C -20.485400 -3.953000 -31.433200
C -20.348500 -4.525600 -30.110500
H -19.837200 -5.978800 -27.956000
C -19.366400 -5.604800 -29.907400
C -19.250300 -6.226200 -28.661400
H -18.596000 -5.588800 -31.799100
C -18.509800 -5.990200 -30.942400
C -18.288300 -7.199600 -28.442500
H -18.215200 -7.622300 -27.595300
C -17.533900 -6.955900 -30.729800
C -17.430600 -7.548700 -29.483100
H -16.944500 -7.205800 -31.431900
Br -16.104000 -8.870000 -29.196600
Br -19.470900 -11.463100 -24.810100
H -18.630400 -9.799000 -22.574800
C -18.144300 -10.141800 -24.523600
C -18.041000 -9.549000 -23.276900
H -17.359800 -10.215500 -26.411400
C -17.286600 -9.792800 -25.564200
C -17.065200 -8.583300 -23.064300
H -16.979000 -8.181900 -22.207600
C -16.324600 -8.819300 -25.345300
C -16.208500 -8.198000 -24.099300
H -15.737700 -8.571900 -26.050700
C -15.226500 -7.118700 -23.896200
C -15.089500 -6.546100 -22.573500
N -15.030100 -6.112100 -21.516100
N -14.552200 -6.662800 -24.897700
O -13.703100 -5.638000 -24.566100
H -13.398100 -5.440400 -25.331300
