17
Fragment
H -16.514300 -7.022300 -30.739500
O -15.807700 -7.502800 -30.375200
N -15.219600 -6.532800 -29.616700
H -14.710100 -4.448100 -28.274400
C -14.117300 -6.923600 -29.064100
C -13.864700 -4.716900 -27.934000
Cl -13.745200 -2.282500 -26.794900
C -13.585000 -8.247300 -29.312900
C -13.356200 -5.996500 -28.205700
N -13.143100 -9.285100 -29.521900
C -13.110100 -3.859000 -27.161600
C -12.117300 -6.376300 -27.697700
C -11.865300 -4.213100 -26.654100
H -11.776000 -7.244500 -27.875500
C -11.378500 -5.482700 -26.929100
H -11.361200 -3.601000 -26.131600
H -10.531200 -5.744500 -26.588500
32
Fragment
N -20.126000 -5.439800 -36.688400
H -20.047700 -7.224500 -37.628200
C -19.619700 -6.611400 -37.041100
H -19.282800 -4.029600 -35.420600
C -19.197600 -4.877800 -35.840600
H -18.948500 -9.810900 -35.308100
H -18.553400 -10.819100 -33.240300
N -18.421200 -6.826000 -36.463000
C -18.165600 -9.590800 -34.818200
C -18.141400 -5.719400 -35.694600
H -17.974900 -8.625300 -37.275300
C -17.928800 -10.191900 -33.585000
C -17.543700 -7.983600 -36.655800
H -17.364900 -5.572900 -35.166600
H -17.355400 -10.863000 -31.124700
C -17.260300 -8.668100 -35.337100
C -16.787300 -9.883200 -32.851600
H -16.692200 -7.688300 -37.064000
H -16.682700 -12.978400 -33.022100
C -16.503900 -10.567800 -31.532800
C -16.118700 -8.359500 -34.603700
H -16.072600 -9.926100 -30.913300
C -15.906100 -12.831900 -32.494100
C -15.882000 -8.960500 -33.370500
N -15.626300 -11.725400 -31.725600
H -15.494100 -7.732200 -34.948400
H -15.099000 -8.740500 -32.880600
C -14.849900 -13.673600 -32.348000
H -14.764700 -14.521700 -32.768100
C -14.427900 -11.940000 -31.147600
H -13.999900 -11.326800 -30.560500
N -13.921600 -13.111600 -31.500300
49
Fragment
H -16.514300 -7.022300 -30.739500
O -15.807700 -7.502800 -30.375200
N -15.219600 -6.532800 -29.616700
H -14.710100 -4.448100 -28.274400
C -14.117300 -6.923600 -29.064100
C -13.864700 -4.716900 -27.934000
Cl -13.745200 -2.282500 -26.794900
C -13.585000 -8.247300 -29.312900
C -13.356200 -5.996500 -28.205700
N -13.143100 -9.285100 -29.521900
C -13.110100 -3.859000 -27.161600
C -12.117300 -6.376300 -27.697700
C -11.865300 -4.213100 -26.654100
H -11.776000 -7.244500 -27.875500
C -11.378500 -5.482700 -26.929100
H -11.361200 -3.601000 -26.131600
H -10.531200 -5.744500 -26.588500
N -20.126000 -5.439800 -36.688400
H -20.047700 -7.224500 -37.628200
C -19.619700 -6.611400 -37.041100
H -19.282800 -4.029600 -35.420600
C -19.197600 -4.877800 -35.840600
H -18.948500 -9.810900 -35.308100
H -18.553400 -10.819100 -33.240300
N -18.421200 -6.826000 -36.463000
C -18.165600 -9.590800 -34.818200
C -18.141400 -5.719400 -35.694600
H -17.974900 -8.625300 -37.275300
C -17.928800 -10.191900 -33.585000
C -17.543700 -7.983600 -36.655800
H -17.364900 -5.572900 -35.166600
H -17.355400 -10.863000 -31.124700
C -17.260300 -8.668100 -35.337100
C -16.787300 -9.883200 -32.851600
H -16.692200 -7.688300 -37.064000
H -16.682700 -12.978400 -33.022100
C -16.503900 -10.567800 -31.532800
C -16.118700 -8.359500 -34.603700
H -16.072600 -9.926100 -30.913300
C -15.906100 -12.831900 -32.494100
C -15.882000 -8.960500 -33.370500
N -15.626300 -11.725400 -31.725600
H -15.494100 -7.732200 -34.948400
H -15.099000 -8.740500 -32.880600
C -14.849900 -13.673600 -32.348000
H -14.764700 -14.521700 -32.768100
C -14.427900 -11.940000 -31.147600
H -13.999900 -11.326800 -30.560500
N -13.921600 -13.111600 -31.500300
