17
Fragment
H -16.514300 -7.022300 -30.739500
O -15.807700 -7.502800 -30.375200
N -15.219600 -6.532800 -29.616700
H -14.710100 -4.448100 -28.274400
C -14.117300 -6.923600 -29.064100
C -13.864700 -4.716900 -27.934000
Cl -13.745200 -2.282500 -26.794900
C -13.585000 -8.247300 -29.312900
C -13.356200 -5.996500 -28.205700
N -13.143100 -9.285100 -29.521900
C -13.110100 -3.859000 -27.161600
C -12.117300 -6.376300 -27.697700
C -11.865300 -4.213100 -26.654100
H -11.776000 -7.244500 -27.875500
C -11.378500 -5.482700 -26.929100
H -11.361200 -3.601000 -26.131600
H -10.531200 -5.744500 -26.588500
17
Fragment
H -13.397200 2.217900 -24.553000
H -12.567200 0.074400 -25.009900
C -12.549800 1.956100 -24.212400
H -12.152400 3.717900 -23.266000
C -12.063100 0.686600 -24.487400
C -11.811000 2.849800 -23.443800
C -10.818300 0.332400 -23.979900
N -10.785300 5.758600 -21.619600
C -10.572100 2.470000 -22.935800
C -10.343400 4.720700 -21.828600
Cl -10.183100 -1.244100 -24.346600
C -10.063600 1.190300 -23.207500
C -9.811100 3.397000 -22.077400
H -9.218300 0.921600 -22.867100
N -8.708800 3.006300 -21.524800
O -8.120600 3.976200 -20.766300
H -7.414100 3.495800 -20.402100
34
Fragment
H -16.514300 -7.022300 -30.739500
O -15.807700 -7.502800 -30.375200
N -15.219600 -6.532800 -29.616700
H -14.710100 -4.448100 -28.274400
C -14.117300 -6.923600 -29.064100
C -13.864700 -4.716900 -27.934000
Cl -13.745200 -2.282500 -26.794900
C -13.585000 -8.247300 -29.312900
C -13.356200 -5.996500 -28.205700
N -13.143100 -9.285100 -29.521900
C -13.110100 -3.859000 -27.161600
C -12.117300 -6.376300 -27.697700
C -11.865300 -4.213100 -26.654100
H -11.776000 -7.244500 -27.875500
C -11.378500 -5.482700 -26.929100
H -11.361200 -3.601000 -26.131600
H -10.531200 -5.744500 -26.588500
H -13.397200 2.217900 -24.553000
H -12.567200 0.074400 -25.009900
C -12.549800 1.956100 -24.212400
H -12.152400 3.717900 -23.266000
C -12.063100 0.686600 -24.487400
C -11.811000 2.849800 -23.443800
C -10.818300 0.332400 -23.979900
N -10.785300 5.758600 -21.619600
C -10.572100 2.470000 -22.935800
C -10.343400 4.720700 -21.828600
Cl -10.183100 -1.244100 -24.346600
C -10.063600 1.190300 -23.207500
C -9.811100 3.397000 -22.077400
H -9.218300 0.921600 -22.867100
N -8.708800 3.006300 -21.524800
O -8.120600 3.976200 -20.766300
H -7.414100 3.495800 -20.402100
