17
Fragment
H -16.514300 -7.022300 -30.739500
O -15.807700 -7.502800 -30.375200
N -15.219600 -6.532800 -29.616700
H -14.710100 -4.448100 -28.274400
C -14.117300 -6.923600 -29.064100
C -13.864700 -4.716900 -27.934000
Cl -13.745200 -2.282500 -26.794900
C -13.585000 -8.247300 -29.312900
C -13.356200 -5.996500 -28.205700
N -13.143100 -9.285100 -29.521900
C -13.110100 -3.859000 -27.161600
C -12.117300 -6.376300 -27.697700
C -11.865300 -4.213100 -26.654100
H -11.776000 -7.244500 -27.875500
C -11.378500 -5.482700 -26.929100
H -11.361200 -3.601000 -26.131600
H -10.531200 -5.744500 -26.588500
17
Fragment
H -18.569200 -13.947000 -30.739500
O -17.862600 -14.427400 -30.375200
N -17.274400 -13.457500 -29.616700
H -16.764900 -11.372800 -28.274400
C -16.172100 -13.848200 -29.064100
C -15.919600 -11.641500 -27.934000
Cl -15.800100 -9.207100 -26.794900
C -15.639800 -15.171900 -29.312900
C -15.411100 -12.921200 -28.205700
N -15.197900 -16.209800 -29.521900
C -15.164900 -10.783600 -27.161600
C -14.172200 -13.301000 -27.697700
C -13.920100 -11.137800 -26.654100
H -13.830800 -14.169100 -27.875500
C -13.433400 -12.407300 -26.929100
H -13.416000 -10.525600 -26.131600
H -12.586000 -12.669100 -26.588500
34
Fragment
H -16.514300 -7.022300 -30.739500
O -15.807700 -7.502800 -30.375200
N -15.219600 -6.532800 -29.616700
H -14.710100 -4.448100 -28.274400
C -14.117300 -6.923600 -29.064100
C -13.864700 -4.716900 -27.934000
Cl -13.745200 -2.282500 -26.794900
C -13.585000 -8.247300 -29.312900
C -13.356200 -5.996500 -28.205700
N -13.143100 -9.285100 -29.521900
C -13.110100 -3.859000 -27.161600
C -12.117300 -6.376300 -27.697700
C -11.865300 -4.213100 -26.654100
H -11.776000 -7.244500 -27.875500
C -11.378500 -5.482700 -26.929100
H -11.361200 -3.601000 -26.131600
H -10.531200 -5.744500 -26.588500
H -18.569200 -13.947000 -30.739500
O -17.862600 -14.427400 -30.375200
N -17.274400 -13.457500 -29.616700
H -16.764900 -11.372800 -28.274400
C -16.172100 -13.848200 -29.064100
C -15.919600 -11.641500 -27.934000
Cl -15.800100 -9.207100 -26.794900
C -15.639800 -15.171900 -29.312900
C -15.411100 -12.921200 -28.205700
N -15.197900 -16.209800 -29.521900
C -15.164900 -10.783600 -27.161600
C -14.172200 -13.301000 -27.697700
C -13.920100 -11.137800 -26.654100
H -13.830800 -14.169100 -27.875500
C -13.433400 -12.407300 -26.929100
H -13.416000 -10.525600 -26.131600
H -12.586000 -12.669100 -26.588500
