17
Fragment
H -16.514300 -7.022300 -30.739500
O -15.807700 -7.502800 -30.375200
N -15.219600 -6.532800 -29.616700
H -14.710100 -4.448100 -28.274400
C -14.117300 -6.923600 -29.064100
C -13.864700 -4.716900 -27.934000
Cl -13.745200 -2.282500 -26.794900
C -13.585000 -8.247300 -29.312900
C -13.356200 -5.996500 -28.205700
N -13.143100 -9.285100 -29.521900
C -13.110100 -3.859000 -27.161600
C -12.117300 -6.376300 -27.697700
C -11.865300 -4.213100 -26.654100
H -11.776000 -7.244500 -27.875500
C -11.378500 -5.482700 -26.929100
H -11.361200 -3.601000 -26.131600
H -10.531200 -5.744500 -26.588500
17
Fragment
H -9.552000 -4.706700 -24.553000
H -8.722100 -6.850200 -25.009900
C -8.704700 -4.968500 -24.212400
H -8.307300 -3.206700 -23.266000
C -8.217900 -6.238100 -24.487400
C -7.965900 -4.074900 -23.443800
C -6.973100 -6.592200 -23.979900
N -6.940100 -1.166000 -21.619600
C -6.727000 -4.454700 -22.935800
C -6.498200 -2.203900 -21.828600
Cl -6.338000 -8.168700 -24.346600
C -6.218500 -5.734300 -23.207500
C -5.966000 -3.527600 -22.077400
H -5.373200 -6.003100 -22.867100
N -4.863700 -3.918400 -21.524800
O -4.275500 -2.948400 -20.766300
H -3.568900 -3.428900 -20.402100
34
Fragment
H -16.514300 -7.022300 -30.739500
O -15.807700 -7.502800 -30.375200
N -15.219600 -6.532800 -29.616700
H -14.710100 -4.448100 -28.274400
C -14.117300 -6.923600 -29.064100
C -13.864700 -4.716900 -27.934000
Cl -13.745200 -2.282500 -26.794900
C -13.585000 -8.247300 -29.312900
C -13.356200 -5.996500 -28.205700
N -13.143100 -9.285100 -29.521900
C -13.110100 -3.859000 -27.161600
C -12.117300 -6.376300 -27.697700
C -11.865300 -4.213100 -26.654100
H -11.776000 -7.244500 -27.875500
C -11.378500 -5.482700 -26.929100
H -11.361200 -3.601000 -26.131600
H -10.531200 -5.744500 -26.588500
H -9.552000 -4.706700 -24.553000
H -8.722100 -6.850200 -25.009900
C -8.704700 -4.968500 -24.212400
H -8.307300 -3.206700 -23.266000
C -8.217900 -6.238100 -24.487400
C -7.965900 -4.074900 -23.443800
C -6.973100 -6.592200 -23.979900
N -6.940100 -1.166000 -21.619600
C -6.727000 -4.454700 -22.935800
C -6.498200 -2.203900 -21.828600
Cl -6.338000 -8.168700 -24.346600
C -6.218500 -5.734300 -23.207500
C -5.966000 -3.527600 -22.077400
H -5.373200 -6.003100 -22.867100
N -4.863700 -3.918400 -21.524800
O -4.275500 -2.948400 -20.766300
H -3.568900 -3.428900 -20.402100
