17
Fragment
N -14.038200 -18.627400 -14.907600
C -12.981200 -18.283700 -14.626800
H -12.606300 -19.489300 -12.394000
O -11.777500 -16.449200 -15.980200
C -11.685600 -19.315600 -12.235200
C -11.643000 -17.863000 -14.267300
H -11.539900 -20.443800 -10.530900
H -11.145200 -15.868700 -16.410300
C -11.056800 -19.885200 -11.127800
N -11.033600 -16.939700 -14.942700
C -10.975800 -18.492600 -13.114300
C -9.709900 -19.618400 -10.916100
C -9.611000 -18.263400 -12.888800
H -9.116000 -17.720500 -13.491800
C -8.979200 -18.825800 -11.789100
Br -8.832300 -20.373000 -9.410300
H -8.054800 -18.669000 -11.635000
17
Fragment
H -14.169900 -17.570700 -9.536900
Br -13.392400 -15.866700 -11.761600
C -13.245600 -17.413900 -9.382700
H -13.108700 -18.519200 -7.680100
C -12.613800 -17.976300 -8.283100
C -12.514800 -16.621300 -10.255700
C -11.249000 -17.747100 -8.057600
N -11.191200 -19.300000 -6.229200
C -11.167900 -16.354500 -10.044000
H -11.079500 -20.371000 -4.761500
H -10.684900 -15.795900 -10.641000
C -10.581700 -18.376700 -6.904600
C -10.539100 -16.924100 -8.936600
O -10.447200 -19.790500 -5.191700
H -9.618500 -16.750400 -8.777800
C -9.243600 -17.956000 -6.545100
N -8.186600 -17.612300 -6.264200
34
Fragment
N -14.038200 -18.627400 -14.907600
C -12.981200 -18.283700 -14.626800
H -12.606300 -19.489300 -12.394000
O -11.777500 -16.449200 -15.980200
C -11.685600 -19.315600 -12.235200
C -11.643000 -17.863000 -14.267300
H -11.539900 -20.443800 -10.530900
H -11.145200 -15.868700 -16.410300
C -11.056800 -19.885200 -11.127800
N -11.033600 -16.939700 -14.942700
C -10.975800 -18.492600 -13.114300
C -9.709900 -19.618400 -10.916100
C -9.611000 -18.263400 -12.888800
H -9.116000 -17.720500 -13.491800
C -8.979200 -18.825800 -11.789100
Br -8.832300 -20.373000 -9.410300
H -8.054800 -18.669000 -11.635000
H -14.169900 -17.570700 -9.536900
Br -13.392400 -15.866700 -11.761600
C -13.245600 -17.413900 -9.382700
H -13.108700 -18.519200 -7.680100
C -12.613800 -17.976300 -8.283100
C -12.514800 -16.621300 -10.255700
C -11.249000 -17.747100 -8.057600
N -11.191200 -19.300000 -6.229200
C -11.167900 -16.354500 -10.044000
H -11.079500 -20.371000 -4.761500
H -10.684900 -15.795900 -10.641000
C -10.581700 -18.376700 -6.904600
C -10.539100 -16.924100 -8.936600
O -10.447200 -19.790500 -5.191700
H -9.618500 -16.750400 -8.777800
C -9.243600 -17.956000 -6.545100
N -8.186600 -17.612300 -6.264200
