41
Fragment
H -24.318200 -25.491500 -21.197400
H -23.952200 -26.338800 -22.460700
O -23.902500 -24.094900 -23.423100
C -23.590200 -25.740300 -21.788200
H -23.590000 -23.435400 -23.796300
H -23.288300 -24.641200 -19.192800
H -23.152500 -30.187600 -24.441200
C -23.081200 -24.493900 -22.476600
H -22.751700 -28.358300 -23.146600
C -22.560800 -26.484900 -20.990500
C -22.377900 -24.883300 -19.009800
H -22.282000 -25.081700 -18.075400
C -22.233100 -30.257600 -24.706500
C -22.147300 -28.577000 -22.474500
H -22.146700 -30.925200 -25.391100
O -22.070600 -23.919200 -22.186200
C -22.011900 -26.086400 -19.813600
C -21.976500 -27.749400 -21.354500
H -21.933800 -29.410600 -25.045100
H -21.799700 -24.153900 -19.243400
O -21.441900 -30.626100 -23.583400
C -21.385600 -29.731300 -22.544600
N -21.077100 -27.058100 -19.390700
C -21.076900 -28.104100 -20.347800
C -20.478900 -30.060900 -21.528700
C -20.350900 -27.118100 -18.199400
C -20.308000 -29.261300 -20.423500
H -20.106400 -26.458800 -15.683800
O -20.047600 -28.191800 -17.719400
H -19.980000 -30.841800 -21.603700
C -19.843400 -25.856200 -17.596000
C -19.749200 -25.778200 -16.209400
H -19.703200 -29.485200 -19.753300
H -19.383900 -24.856400 -19.283200
C -19.303100 -24.829300 -18.356800
C -19.135300 -24.707400 -15.610000
H -19.099000 -24.650000 -14.682100
C -18.646800 -23.765200 -17.763300
C -18.570900 -23.714600 -16.388500
H -18.263200 -23.095900 -18.283900
Cl -17.751300 -22.391400 -15.621600
24
Fragment
H -25.717100 -36.846200 -27.119700
H -25.057800 -37.329200 -25.781700
C -24.888300 -37.075400 -26.691800
O -24.774700 -35.251000 -28.733600
H -24.480700 -37.809200 -27.158300
H -24.094700 -32.896400 -29.147200
C -24.012500 -35.077100 -27.805500
N -23.991700 -35.924600 -26.718500
C -23.180000 -33.079200 -28.923000
N -23.130300 -33.999000 -27.774500
C -23.108700 -35.709300 -25.696000
N -22.957200 -36.473700 -24.586200
H -22.739900 -33.481800 -29.674000
H -22.736900 -32.258400 -28.694000
C -22.238300 -34.658400 -25.711600
C -22.171400 -33.730300 -26.787800
C -21.943400 -35.869000 -23.930000
H -21.597300 -36.178900 -23.123700
N -21.483500 -34.768800 -24.564400
O -21.400900 -32.780700 -26.884600
H -20.679800 -33.364700 -23.409400
C -20.379800 -33.945400 -24.112100
H -20.052500 -33.417400 -24.845000
H -19.674800 -34.507700 -23.784300
65
Fragment
H -24.318200 -25.491500 -21.197400
H -23.952200 -26.338800 -22.460700
O -23.902500 -24.094900 -23.423100
C -23.590200 -25.740300 -21.788200
H -23.590000 -23.435400 -23.796300
H -23.288300 -24.641200 -19.192800
H -23.152500 -30.187600 -24.441200
C -23.081200 -24.493900 -22.476600
H -22.751700 -28.358300 -23.146600
C -22.560800 -26.484900 -20.990500
C -22.377900 -24.883300 -19.009800
H -22.282000 -25.081700 -18.075400
C -22.233100 -30.257600 -24.706500
C -22.147300 -28.577000 -22.474500
H -22.146700 -30.925200 -25.391100
O -22.070600 -23.919200 -22.186200
C -22.011900 -26.086400 -19.813600
C -21.976500 -27.749400 -21.354500
H -21.933800 -29.410600 -25.045100
H -21.799700 -24.153900 -19.243400
O -21.441900 -30.626100 -23.583400
C -21.385600 -29.731300 -22.544600
N -21.077100 -27.058100 -19.390700
C -21.076900 -28.104100 -20.347800
C -20.478900 -30.060900 -21.528700
C -20.350900 -27.118100 -18.199400
C -20.308000 -29.261300 -20.423500
H -20.106400 -26.458800 -15.683800
O -20.047600 -28.191800 -17.719400
H -19.980000 -30.841800 -21.603700
C -19.843400 -25.856200 -17.596000
C -19.749200 -25.778200 -16.209400
H -19.703200 -29.485200 -19.753300
H -19.383900 -24.856400 -19.283200
C -19.303100 -24.829300 -18.356800
C -19.135300 -24.707400 -15.610000
H -19.099000 -24.650000 -14.682100
C -18.646800 -23.765200 -17.763300
C -18.570900 -23.714600 -16.388500
H -18.263200 -23.095900 -18.283900
Cl -17.751300 -22.391400 -15.621600
H -25.717100 -36.846200 -27.119700
H -25.057800 -37.329200 -25.781700
C -24.888300 -37.075400 -26.691800
O -24.774700 -35.251000 -28.733600
H -24.480700 -37.809200 -27.158300
H -24.094700 -32.896400 -29.147200
C -24.012500 -35.077100 -27.805500
N -23.991700 -35.924600 -26.718500
C -23.180000 -33.079200 -28.923000
N -23.130300 -33.999000 -27.774500
C -23.108700 -35.709300 -25.696000
N -22.957200 -36.473700 -24.586200
H -22.739900 -33.481800 -29.674000
H -22.736900 -32.258400 -28.694000
C -22.238300 -34.658400 -25.711600
C -22.171400 -33.730300 -26.787800
C -21.943400 -35.869000 -23.930000
H -21.597300 -36.178900 -23.123700
N -21.483500 -34.768800 -24.564400
O -21.400900 -32.780700 -26.884600
H -20.679800 -33.364700 -23.409400
C -20.379800 -33.945400 -24.112100
H -20.052500 -33.417400 -24.845000
H -19.674800 -34.507700 -23.784300
