41
Fragment
H -24.318200 -25.491500 -21.197400
H -23.952200 -26.338800 -22.460700
O -23.902500 -24.094900 -23.423100
C -23.590200 -25.740300 -21.788200
H -23.590000 -23.435400 -23.796300
H -23.288300 -24.641200 -19.192800
H -23.152500 -30.187600 -24.441200
C -23.081200 -24.493900 -22.476600
H -22.751700 -28.358300 -23.146600
C -22.560800 -26.484900 -20.990500
C -22.377900 -24.883300 -19.009800
H -22.282000 -25.081700 -18.075400
C -22.233100 -30.257600 -24.706500
C -22.147300 -28.577000 -22.474500
H -22.146700 -30.925200 -25.391100
O -22.070600 -23.919200 -22.186200
C -22.011900 -26.086400 -19.813600
C -21.976500 -27.749400 -21.354500
H -21.933800 -29.410600 -25.045100
H -21.799700 -24.153900 -19.243400
O -21.441900 -30.626100 -23.583400
C -21.385600 -29.731300 -22.544600
N -21.077100 -27.058100 -19.390700
C -21.076900 -28.104100 -20.347800
C -20.478900 -30.060900 -21.528700
C -20.350900 -27.118100 -18.199400
C -20.308000 -29.261300 -20.423500
H -20.106400 -26.458800 -15.683800
O -20.047600 -28.191800 -17.719400
H -19.980000 -30.841800 -21.603700
C -19.843400 -25.856200 -17.596000
C -19.749200 -25.778200 -16.209400
H -19.703200 -29.485200 -19.753300
H -19.383900 -24.856400 -19.283200
C -19.303100 -24.829300 -18.356800
C -19.135300 -24.707400 -15.610000
H -19.099000 -24.650000 -14.682100
C -18.646800 -23.765200 -17.763300
C -18.570900 -23.714600 -16.388500
H -18.263200 -23.095900 -18.283900
Cl -17.751300 -22.391400 -15.621600
41
Fragment
H -23.439200 -25.728600 -27.224600
H -23.073200 -24.881200 -28.487800
O -23.023400 -27.125100 -29.450300
C -22.711200 -25.479800 -27.815300
H -22.711000 -27.784700 -29.823500
H -22.409200 -26.578800 -25.219900
H -22.273400 -21.032400 -30.468400
C -22.202200 -26.726200 -28.503800
H -21.872600 -22.861700 -29.173700
C -21.681800 -24.735200 -27.017600
C -21.498800 -26.336800 -25.037000
H -21.403000 -26.138300 -24.102500
C -21.354000 -20.962500 -30.733700
C -21.268300 -22.643100 -28.501600
H -21.267700 -20.294800 -31.418200
O -21.191500 -27.300900 -28.213400
C -21.132900 -25.133700 -25.840700
C -21.097500 -23.470600 -27.381600
H -21.054800 -21.809500 -31.072300
H -20.920700 -27.066100 -25.270600
O -20.562900 -20.594000 -29.610600
C -20.506600 -21.488700 -28.571700
N -20.198100 -24.162000 -25.417900
C -20.197900 -23.115900 -26.375000
C -19.599900 -21.159100 -27.555800
C -19.471800 -24.102000 -24.226500
C -19.428900 -21.958800 -26.450700
H -19.227300 -24.761200 -21.710900
O -19.168600 -23.028200 -23.746500
H -19.101000 -20.378300 -27.630800
C -18.964300 -25.363900 -23.623100
C -18.870200 -25.441900 -22.236500
H -18.824100 -21.734900 -25.780500
H -18.504900 -26.363700 -25.310300
C -18.424000 -26.390800 -24.384000
C -18.256200 -26.512700 -21.637200
H -18.220000 -26.570000 -20.709200
C -17.767700 -27.454800 -23.790400
C -17.691900 -27.505500 -22.415600
H -17.384100 -28.124200 -24.311000
Cl -16.872200 -28.828700 -21.648700
82
Fragment
H -24.318200 -25.491500 -21.197400
H -23.952200 -26.338800 -22.460700
O -23.902500 -24.094900 -23.423100
C -23.590200 -25.740300 -21.788200
H -23.590000 -23.435400 -23.796300
H -23.288300 -24.641200 -19.192800
H -23.152500 -30.187600 -24.441200
C -23.081200 -24.493900 -22.476600
H -22.751700 -28.358300 -23.146600
C -22.560800 -26.484900 -20.990500
C -22.377900 -24.883300 -19.009800
H -22.282000 -25.081700 -18.075400
C -22.233100 -30.257600 -24.706500
C -22.147300 -28.577000 -22.474500
H -22.146700 -30.925200 -25.391100
O -22.070600 -23.919200 -22.186200
C -22.011900 -26.086400 -19.813600
C -21.976500 -27.749400 -21.354500
H -21.933800 -29.410600 -25.045100
H -21.799700 -24.153900 -19.243400
O -21.441900 -30.626100 -23.583400
C -21.385600 -29.731300 -22.544600
N -21.077100 -27.058100 -19.390700
C -21.076900 -28.104100 -20.347800
C -20.478900 -30.060900 -21.528700
C -20.350900 -27.118100 -18.199400
C -20.308000 -29.261300 -20.423500
H -20.106400 -26.458800 -15.683800
O -20.047600 -28.191800 -17.719400
H -19.980000 -30.841800 -21.603700
C -19.843400 -25.856200 -17.596000
C -19.749200 -25.778200 -16.209400
H -19.703200 -29.485200 -19.753300
H -19.383900 -24.856400 -19.283200
C -19.303100 -24.829300 -18.356800
C -19.135300 -24.707400 -15.610000
H -19.099000 -24.650000 -14.682100
C -18.646800 -23.765200 -17.763300
C -18.570900 -23.714600 -16.388500
H -18.263200 -23.095900 -18.283900
Cl -17.751300 -22.391400 -15.621600
H -23.439200 -25.728600 -27.224600
H -23.073200 -24.881200 -28.487800
O -23.023400 -27.125100 -29.450300
C -22.711200 -25.479800 -27.815300
H -22.711000 -27.784700 -29.823500
H -22.409200 -26.578800 -25.219900
H -22.273400 -21.032400 -30.468400
C -22.202200 -26.726200 -28.503800
H -21.872600 -22.861700 -29.173700
C -21.681800 -24.735200 -27.017600
C -21.498800 -26.336800 -25.037000
H -21.403000 -26.138300 -24.102500
C -21.354000 -20.962500 -30.733700
C -21.268300 -22.643100 -28.501600
H -21.267700 -20.294800 -31.418200
O -21.191500 -27.300900 -28.213400
C -21.132900 -25.133700 -25.840700
C -21.097500 -23.470600 -27.381600
H -21.054800 -21.809500 -31.072300
H -20.920700 -27.066100 -25.270600
O -20.562900 -20.594000 -29.610600
C -20.506600 -21.488700 -28.571700
N -20.198100 -24.162000 -25.417900
C -20.197900 -23.115900 -26.375000
C -19.599900 -21.159100 -27.555800
C -19.471800 -24.102000 -24.226500
C -19.428900 -21.958800 -26.450700
H -19.227300 -24.761200 -21.710900
O -19.168600 -23.028200 -23.746500
H -19.101000 -20.378300 -27.630800
C -18.964300 -25.363900 -23.623100
C -18.870200 -25.441900 -22.236500
H -18.824100 -21.734900 -25.780500
H -18.504900 -26.363700 -25.310300
C -18.424000 -26.390800 -24.384000
C -18.256200 -26.512700 -21.637200
H -18.220000 -26.570000 -20.709200
C -17.767700 -27.454800 -23.790400
C -17.691900 -27.505500 -22.415600
H -17.384100 -28.124200 -24.311000
Cl -16.872200 -28.828700 -21.648700
