41
Fragment
H -24.318200 -25.491500 -21.197400
H -23.952200 -26.338800 -22.460700
O -23.902500 -24.094900 -23.423100
C -23.590200 -25.740300 -21.788200
H -23.590000 -23.435400 -23.796300
H -23.288300 -24.641200 -19.192800
H -23.152500 -30.187600 -24.441200
C -23.081200 -24.493900 -22.476600
H -22.751700 -28.358300 -23.146600
C -22.560800 -26.484900 -20.990500
C -22.377900 -24.883300 -19.009800
H -22.282000 -25.081700 -18.075400
C -22.233100 -30.257600 -24.706500
C -22.147300 -28.577000 -22.474500
H -22.146700 -30.925200 -25.391100
O -22.070600 -23.919200 -22.186200
C -22.011900 -26.086400 -19.813600
C -21.976500 -27.749400 -21.354500
H -21.933800 -29.410600 -25.045100
H -21.799700 -24.153900 -19.243400
O -21.441900 -30.626100 -23.583400
C -21.385600 -29.731300 -22.544600
N -21.077100 -27.058100 -19.390700
C -21.076900 -28.104100 -20.347800
C -20.478900 -30.060900 -21.528700
C -20.350900 -27.118100 -18.199400
C -20.308000 -29.261300 -20.423500
H -20.106400 -26.458800 -15.683800
O -20.047600 -28.191800 -17.719400
H -19.980000 -30.841800 -21.603700
C -19.843400 -25.856200 -17.596000
C -19.749200 -25.778200 -16.209400
H -19.703200 -29.485200 -19.753300
H -19.383900 -24.856400 -19.283200
C -19.303100 -24.829300 -18.356800
C -19.135300 -24.707400 -15.610000
H -19.099000 -24.650000 -14.682100
C -18.646800 -23.765200 -17.763300
C -18.570900 -23.714600 -16.388500
H -18.263200 -23.095900 -18.283900
Cl -17.751300 -22.391400 -15.621600
41
Fragment
Cl -19.907400 -21.511500 -20.541200
H -19.395600 -20.807000 -17.878900
C -19.087800 -20.188300 -19.774300
C -19.011900 -20.137700 -18.399500
H -18.559700 -19.252900 -21.480700
C -18.523400 -19.195500 -20.552800
C -18.355600 -19.073600 -17.806000
H -18.274800 -19.046500 -16.879600
H -17.955500 -14.417700 -16.409500
C -17.909500 -18.124700 -19.953400
C -17.815300 -18.046700 -18.566800
H -17.678700 -13.061100 -14.559100
O -17.611100 -15.711100 -18.443400
H -17.552300 -17.444100 -20.479000
C -17.350700 -14.641600 -15.739300
C -17.307800 -16.784800 -17.963400
C -17.179800 -13.842000 -14.634100
C -16.581800 -15.798800 -15.815000
N -16.581600 -16.844800 -16.772100
C -16.273100 -14.171600 -13.618200
O -16.216800 -13.276800 -12.579400
H -15.859000 -19.749000 -16.919400
H -15.724900 -14.492300 -11.117700
C -15.682200 -16.153500 -14.808300
C -15.646800 -17.816500 -16.349200
O -15.588100 -19.983700 -13.976600
H -15.512000 -12.977700 -10.771700
C -15.511400 -15.325900 -13.688300
C -15.425600 -13.645300 -11.456300
H -15.376700 -18.821200 -18.087400
C -15.280800 -19.019600 -17.153000
C -15.097900 -17.418000 -15.172300
H -14.907000 -15.544600 -13.016200
C -14.577500 -19.409000 -13.686200
H -14.506200 -13.715300 -11.721600
H -14.370400 -19.261700 -16.970000
H -14.068700 -20.467500 -12.366500
C -14.068500 -18.162600 -14.374600
O -13.756200 -19.808000 -12.739700
H -13.706500 -17.564100 -13.702100
H -13.340500 -18.411400 -14.965400
82
Fragment
H -24.318200 -25.491500 -21.197400
H -23.952200 -26.338800 -22.460700
O -23.902500 -24.094900 -23.423100
C -23.590200 -25.740300 -21.788200
H -23.590000 -23.435400 -23.796300
H -23.288300 -24.641200 -19.192800
H -23.152500 -30.187600 -24.441200
C -23.081200 -24.493900 -22.476600
H -22.751700 -28.358300 -23.146600
C -22.560800 -26.484900 -20.990500
C -22.377900 -24.883300 -19.009800
H -22.282000 -25.081700 -18.075400
C -22.233100 -30.257600 -24.706500
C -22.147300 -28.577000 -22.474500
H -22.146700 -30.925200 -25.391100
O -22.070600 -23.919200 -22.186200
C -22.011900 -26.086400 -19.813600
C -21.976500 -27.749400 -21.354500
H -21.933800 -29.410600 -25.045100
H -21.799700 -24.153900 -19.243400
O -21.441900 -30.626100 -23.583400
C -21.385600 -29.731300 -22.544600
N -21.077100 -27.058100 -19.390700
C -21.076900 -28.104100 -20.347800
C -20.478900 -30.060900 -21.528700
C -20.350900 -27.118100 -18.199400
C -20.308000 -29.261300 -20.423500
H -20.106400 -26.458800 -15.683800
O -20.047600 -28.191800 -17.719400
H -19.980000 -30.841800 -21.603700
C -19.843400 -25.856200 -17.596000
C -19.749200 -25.778200 -16.209400
H -19.703200 -29.485200 -19.753300
H -19.383900 -24.856400 -19.283200
C -19.303100 -24.829300 -18.356800
C -19.135300 -24.707400 -15.610000
H -19.099000 -24.650000 -14.682100
C -18.646800 -23.765200 -17.763300
C -18.570900 -23.714600 -16.388500
H -18.263200 -23.095900 -18.283900
Cl -17.751300 -22.391400 -15.621600
Cl -19.907400 -21.511500 -20.541200
H -19.395600 -20.807000 -17.878900
C -19.087800 -20.188300 -19.774300
C -19.011900 -20.137700 -18.399500
H -18.559700 -19.252900 -21.480700
C -18.523400 -19.195500 -20.552800
C -18.355600 -19.073600 -17.806000
H -18.274800 -19.046500 -16.879600
H -17.955500 -14.417700 -16.409500
C -17.909500 -18.124700 -19.953400
C -17.815300 -18.046700 -18.566800
H -17.678700 -13.061100 -14.559100
O -17.611100 -15.711100 -18.443400
H -17.552300 -17.444100 -20.479000
C -17.350700 -14.641600 -15.739300
C -17.307800 -16.784800 -17.963400
C -17.179800 -13.842000 -14.634100
C -16.581800 -15.798800 -15.815000
N -16.581600 -16.844800 -16.772100
C -16.273100 -14.171600 -13.618200
O -16.216800 -13.276800 -12.579400
H -15.859000 -19.749000 -16.919400
H -15.724900 -14.492300 -11.117700
C -15.682200 -16.153500 -14.808300
C -15.646800 -17.816500 -16.349200
O -15.588100 -19.983700 -13.976600
H -15.512000 -12.977700 -10.771700
C -15.511400 -15.325900 -13.688300
C -15.425600 -13.645300 -11.456300
H -15.376700 -18.821200 -18.087400
C -15.280800 -19.019600 -17.153000
C -15.097900 -17.418000 -15.172300
H -14.907000 -15.544600 -13.016200
C -14.577500 -19.409000 -13.686200
H -14.506200 -13.715300 -11.721600
H -14.370400 -19.261700 -16.970000
H -14.068700 -20.467500 -12.366500
C -14.068500 -18.162600 -14.374600
O -13.756200 -19.808000 -12.739700
H -13.706500 -17.564100 -13.702100
H -13.340500 -18.411400 -14.965400
