41
Fragment
H -24.318200 -25.491500 -21.197400
H -23.952200 -26.338800 -22.460700
O -23.902500 -24.094900 -23.423100
C -23.590200 -25.740300 -21.788200
H -23.590000 -23.435400 -23.796300
H -23.288300 -24.641200 -19.192800
H -23.152500 -30.187600 -24.441200
C -23.081200 -24.493900 -22.476600
H -22.751700 -28.358300 -23.146600
C -22.560800 -26.484900 -20.990500
C -22.377900 -24.883300 -19.009800
H -22.282000 -25.081700 -18.075400
C -22.233100 -30.257600 -24.706500
C -22.147300 -28.577000 -22.474500
H -22.146700 -30.925200 -25.391100
O -22.070600 -23.919200 -22.186200
C -22.011900 -26.086400 -19.813600
C -21.976500 -27.749400 -21.354500
H -21.933800 -29.410600 -25.045100
H -21.799700 -24.153900 -19.243400
O -21.441900 -30.626100 -23.583400
C -21.385600 -29.731300 -22.544600
N -21.077100 -27.058100 -19.390700
C -21.076900 -28.104100 -20.347800
C -20.478900 -30.060900 -21.528700
C -20.350900 -27.118100 -18.199400
C -20.308000 -29.261300 -20.423500
H -20.106400 -26.458800 -15.683800
O -20.047600 -28.191800 -17.719400
H -19.980000 -30.841800 -21.603700
C -19.843400 -25.856200 -17.596000
C -19.749200 -25.778200 -16.209400
H -19.703200 -29.485200 -19.753300
H -19.383900 -24.856400 -19.283200
C -19.303100 -24.829300 -18.356800
C -19.135300 -24.707400 -15.610000
H -19.099000 -24.650000 -14.682100
C -18.646800 -23.765200 -17.763300
C -18.570900 -23.714600 -16.388500
H -18.263200 -23.095900 -18.283900
Cl -17.751300 -22.391400 -15.621600
41
Fragment
Cl -19.028400 -15.074200 -26.568300
H -18.516500 -15.778700 -23.906000
C -18.208700 -16.397400 -25.801400
C -18.132900 -16.448100 -24.426600
H -17.680600 -17.332900 -27.507800
C -17.644400 -17.390200 -26.579900
C -17.476600 -17.512100 -23.833100
H -17.395700 -17.539200 -22.906700
H -17.076500 -22.168000 -22.436600
C -17.030400 -18.461000 -25.980600
C -16.936300 -18.539000 -24.594000
H -16.799700 -23.524600 -20.586300
O -16.732000 -20.874700 -24.470500
H -16.673300 -19.141700 -26.506100
C -16.471700 -21.944100 -21.766400
C -16.428800 -19.800900 -23.990500
C -16.300700 -22.743800 -20.661300
C -15.702700 -20.787000 -21.842100
N -15.702500 -19.740900 -22.799200
C -15.394000 -22.414200 -19.645300
O -15.337700 -23.308900 -18.606500
H -14.980000 -16.836800 -22.946500
H -14.845800 -22.093400 -17.144800
C -14.803100 -20.432300 -20.835400
C -14.767700 -18.769200 -22.376300
O -14.709100 -16.602000 -20.003700
H -14.633000 -23.608100 -16.798800
C -14.632300 -21.259800 -19.715500
C -14.546600 -22.940400 -17.483400
H -14.497600 -17.764600 -24.114600
C -14.401800 -17.566100 -23.180100
C -14.218800 -19.167700 -21.199500
H -14.028000 -21.041200 -19.043300
C -13.698400 -17.176700 -19.713300
H -13.627200 -22.870500 -17.748700
H -13.491400 -17.324100 -22.997100
H -13.189600 -16.118200 -18.393600
C -13.189400 -18.423100 -20.401700
O -12.877200 -16.777800 -18.766800
H -12.827400 -19.021700 -19.729200
H -12.461400 -18.174300 -20.992500
82
Fragment
H -24.318200 -25.491500 -21.197400
H -23.952200 -26.338800 -22.460700
O -23.902500 -24.094900 -23.423100
C -23.590200 -25.740300 -21.788200
H -23.590000 -23.435400 -23.796300
H -23.288300 -24.641200 -19.192800
H -23.152500 -30.187600 -24.441200
C -23.081200 -24.493900 -22.476600
H -22.751700 -28.358300 -23.146600
C -22.560800 -26.484900 -20.990500
C -22.377900 -24.883300 -19.009800
H -22.282000 -25.081700 -18.075400
C -22.233100 -30.257600 -24.706500
C -22.147300 -28.577000 -22.474500
H -22.146700 -30.925200 -25.391100
O -22.070600 -23.919200 -22.186200
C -22.011900 -26.086400 -19.813600
C -21.976500 -27.749400 -21.354500
H -21.933800 -29.410600 -25.045100
H -21.799700 -24.153900 -19.243400
O -21.441900 -30.626100 -23.583400
C -21.385600 -29.731300 -22.544600
N -21.077100 -27.058100 -19.390700
C -21.076900 -28.104100 -20.347800
C -20.478900 -30.060900 -21.528700
C -20.350900 -27.118100 -18.199400
C -20.308000 -29.261300 -20.423500
H -20.106400 -26.458800 -15.683800
O -20.047600 -28.191800 -17.719400
H -19.980000 -30.841800 -21.603700
C -19.843400 -25.856200 -17.596000
C -19.749200 -25.778200 -16.209400
H -19.703200 -29.485200 -19.753300
H -19.383900 -24.856400 -19.283200
C -19.303100 -24.829300 -18.356800
C -19.135300 -24.707400 -15.610000
H -19.099000 -24.650000 -14.682100
C -18.646800 -23.765200 -17.763300
C -18.570900 -23.714600 -16.388500
H -18.263200 -23.095900 -18.283900
Cl -17.751300 -22.391400 -15.621600
Cl -19.028400 -15.074200 -26.568300
H -18.516500 -15.778700 -23.906000
C -18.208700 -16.397400 -25.801400
C -18.132900 -16.448100 -24.426600
H -17.680600 -17.332900 -27.507800
C -17.644400 -17.390200 -26.579900
C -17.476600 -17.512100 -23.833100
H -17.395700 -17.539200 -22.906700
H -17.076500 -22.168000 -22.436600
C -17.030400 -18.461000 -25.980600
C -16.936300 -18.539000 -24.594000
H -16.799700 -23.524600 -20.586300
O -16.732000 -20.874700 -24.470500
H -16.673300 -19.141700 -26.506100
C -16.471700 -21.944100 -21.766400
C -16.428800 -19.800900 -23.990500
C -16.300700 -22.743800 -20.661300
C -15.702700 -20.787000 -21.842100
N -15.702500 -19.740900 -22.799200
C -15.394000 -22.414200 -19.645300
O -15.337700 -23.308900 -18.606500
H -14.980000 -16.836800 -22.946500
H -14.845800 -22.093400 -17.144800
C -14.803100 -20.432300 -20.835400
C -14.767700 -18.769200 -22.376300
O -14.709100 -16.602000 -20.003700
H -14.633000 -23.608100 -16.798800
C -14.632300 -21.259800 -19.715500
C -14.546600 -22.940400 -17.483400
H -14.497600 -17.764600 -24.114600
C -14.401800 -17.566100 -23.180100
C -14.218800 -19.167700 -21.199500
H -14.028000 -21.041200 -19.043300
C -13.698400 -17.176700 -19.713300
H -13.627200 -22.870500 -17.748700
H -13.491400 -17.324100 -22.997100
H -13.189600 -16.118200 -18.393600
C -13.189400 -18.423100 -20.401700
O -12.877200 -16.777800 -18.766800
H -12.827400 -19.021700 -19.729200
H -12.461400 -18.174300 -20.992500
