19
Fragment
N -43.737900 -15.017700 -13.198500
N -43.535500 -16.403600 -13.102600
C -42.717900 -14.446800 -12.647600
H -42.602100 -13.506800 -12.573000
C -42.401100 -16.586700 -12.504200
H -42.022700 -17.435700 -12.312500
N -41.824100 -15.381500 -12.185100
C -40.587500 -15.127000 -11.557500
N -40.268200 -13.839900 -11.390400
N -39.780000 -17.523500 -11.170900
C -39.735900 -16.139600 -11.132100
C -39.089000 -13.565800 -10.805400
H -38.881400 -12.644900 -10.702000
C -38.644300 -17.876200 -10.613800
C -38.546200 -15.694800 -10.538300
H -38.386900 -18.783500 -10.501300
N -38.174000 -14.422900 -10.352200
N -37.864400 -16.832800 -10.210200
H -36.969900 -16.877700 -9.806700
11
Fragment
H -37.015700 -20.127800 -13.720200
H -36.436300 -18.109600 -12.681900
C -36.149100 -20.006900 -13.350100
C -35.812700 -18.824200 -12.733800
H -35.420000 -21.835800 -13.853300
C -35.213600 -21.013600 -13.423700
C -34.552300 -18.699500 -12.194400
H -34.325300 -17.885000 -11.763100
C -33.977500 -20.805500 -12.863400
N -33.639100 -19.664700 -12.247800
H -33.333800 -21.501300 -12.914600
30
Fragment
N -43.737900 -15.017700 -13.198500
N -43.535500 -16.403600 -13.102600
C -42.717900 -14.446800 -12.647600
H -42.602100 -13.506800 -12.573000
C -42.401100 -16.586700 -12.504200
H -42.022700 -17.435700 -12.312500
N -41.824100 -15.381500 -12.185100
C -40.587500 -15.127000 -11.557500
N -40.268200 -13.839900 -11.390400
N -39.780000 -17.523500 -11.170900
C -39.735900 -16.139600 -11.132100
C -39.089000 -13.565800 -10.805400
H -38.881400 -12.644900 -10.702000
C -38.644300 -17.876200 -10.613800
C -38.546200 -15.694800 -10.538300
H -38.386900 -18.783500 -10.501300
N -38.174000 -14.422900 -10.352200
N -37.864400 -16.832800 -10.210200
H -36.969900 -16.877700 -9.806700
H -37.015700 -20.127800 -13.720200
H -36.436300 -18.109600 -12.681900
C -36.149100 -20.006900 -13.350100
C -35.812700 -18.824200 -12.733800
H -35.420000 -21.835800 -13.853300
C -35.213600 -21.013600 -13.423700
C -34.552300 -18.699500 -12.194400
H -34.325300 -17.885000 -11.763100
C -33.977500 -20.805500 -12.863400
N -33.639100 -19.664700 -12.247800
H -33.333800 -21.501300 -12.914600
