19
Fragment
N -43.737900 -15.017700 -13.198500
N -43.535500 -16.403600 -13.102600
C -42.717900 -14.446800 -12.647600
H -42.602100 -13.506800 -12.573000
C -42.401100 -16.586700 -12.504200
H -42.022700 -17.435700 -12.312500
N -41.824100 -15.381500 -12.185100
C -40.587500 -15.127000 -11.557500
N -40.268200 -13.839900 -11.390400
N -39.780000 -17.523500 -11.170900
C -39.735900 -16.139600 -11.132100
C -39.089000 -13.565800 -10.805400
H -38.881400 -12.644900 -10.702000
C -38.644300 -17.876200 -10.613800
C -38.546200 -15.694800 -10.538300
H -38.386900 -18.783500 -10.501300
N -38.174000 -14.422900 -10.352200
N -37.864400 -16.832800 -10.210200
H -36.969900 -16.877700 -9.806700
11
Fragment
H -37.380300 -10.394700 -10.161900
H -36.800900 -12.412900 -9.123500
C -36.513600 -10.515600 -9.791800
C -36.177300 -11.698300 -9.175500
H -35.784600 -8.686700 -10.294900
C -35.578200 -9.508900 -9.865400
C -34.916800 -11.823000 -8.636100
H -34.689900 -12.637500 -8.204800
C -34.342100 -9.717000 -9.305100
N -34.003700 -10.857800 -8.689500
H -33.698300 -9.021200 -9.356300
30
Fragment
N -43.737900 -15.017700 -13.198500
N -43.535500 -16.403600 -13.102600
C -42.717900 -14.446800 -12.647600
H -42.602100 -13.506800 -12.573000
C -42.401100 -16.586700 -12.504200
H -42.022700 -17.435700 -12.312500
N -41.824100 -15.381500 -12.185100
C -40.587500 -15.127000 -11.557500
N -40.268200 -13.839900 -11.390400
N -39.780000 -17.523500 -11.170900
C -39.735900 -16.139600 -11.132100
C -39.089000 -13.565800 -10.805400
H -38.881400 -12.644900 -10.702000
C -38.644300 -17.876200 -10.613800
C -38.546200 -15.694800 -10.538300
H -38.386900 -18.783500 -10.501300
N -38.174000 -14.422900 -10.352200
N -37.864400 -16.832800 -10.210200
H -36.969900 -16.877700 -9.806700
H -37.380300 -10.394700 -10.161900
H -36.800900 -12.412900 -9.123500
C -36.513600 -10.515600 -9.791800
C -36.177300 -11.698300 -9.175500
H -35.784600 -8.686700 -10.294900
C -35.578200 -9.508900 -9.865400
C -34.916800 -11.823000 -8.636100
H -34.689900 -12.637500 -8.204800
C -34.342100 -9.717000 -9.305100
N -34.003700 -10.857800 -8.689500
H -33.698300 -9.021200 -9.356300
