19
Fragment
N -43.737900 -15.017700 -13.198500
N -43.535500 -16.403600 -13.102600
C -42.717900 -14.446800 -12.647600
H -42.602100 -13.506800 -12.573000
C -42.401100 -16.586700 -12.504200
H -42.022700 -17.435700 -12.312500
N -41.824100 -15.381500 -12.185100
C -40.587500 -15.127000 -11.557500
N -40.268200 -13.839900 -11.390400
N -39.780000 -17.523500 -11.170900
C -39.735900 -16.139600 -11.132100
C -39.089000 -13.565800 -10.805400
H -38.881400 -12.644900 -10.702000
C -38.644300 -17.876200 -10.613800
C -38.546200 -15.694800 -10.538300
H -38.386900 -18.783500 -10.501300
N -38.174000 -14.422900 -10.352200
N -37.864400 -16.832800 -10.210200
H -36.969900 -16.877700 -9.806700
19
Fragment
H -45.840000 -10.773200 -15.101500
N -44.945500 -10.728300 -14.698100
N -44.636000 -8.318400 -14.556000
H -44.423000 -12.679000 -14.406900
C -44.263800 -9.590300 -14.370000
C -44.165700 -11.771700 -14.294400
H -43.928600 -6.540400 -14.206200
C -43.720900 -7.461300 -14.102800
C -43.074100 -10.035100 -13.776200
N -43.030000 -11.419000 -13.737300
N -42.541700 -7.735400 -13.517900
C -42.222500 -9.022500 -13.350800
N -40.985900 -9.277000 -12.723100
H -40.787200 -11.331200 -12.595700
C -40.408800 -10.482200 -12.404100
H -40.207900 -7.402300 -12.335300
C -40.092000 -8.342300 -12.260600
N -39.274500 -10.299100 -11.805700
N -39.072000 -8.913200 -11.709700
38
Fragment
N -43.737900 -15.017700 -13.198500
N -43.535500 -16.403600 -13.102600
C -42.717900 -14.446800 -12.647600
H -42.602100 -13.506800 -12.573000
C -42.401100 -16.586700 -12.504200
H -42.022700 -17.435700 -12.312500
N -41.824100 -15.381500 -12.185100
C -40.587500 -15.127000 -11.557500
N -40.268200 -13.839900 -11.390400
N -39.780000 -17.523500 -11.170900
C -39.735900 -16.139600 -11.132100
C -39.089000 -13.565800 -10.805400
H -38.881400 -12.644900 -10.702000
C -38.644300 -17.876200 -10.613800
C -38.546200 -15.694800 -10.538300
H -38.386900 -18.783500 -10.501300
N -38.174000 -14.422900 -10.352200
N -37.864400 -16.832800 -10.210200
H -36.969900 -16.877700 -9.806700
H -45.840000 -10.773200 -15.101500
N -44.945500 -10.728300 -14.698100
N -44.636000 -8.318400 -14.556000
H -44.423000 -12.679000 -14.406900
C -44.263800 -9.590300 -14.370000
C -44.165700 -11.771700 -14.294400
H -43.928600 -6.540400 -14.206200
C -43.720900 -7.461300 -14.102800
C -43.074100 -10.035100 -13.776200
N -43.030000 -11.419000 -13.737300
N -42.541700 -7.735400 -13.517900
C -42.222500 -9.022500 -13.350800
N -40.985900 -9.277000 -12.723100
H -40.787200 -11.331200 -12.595700
C -40.408800 -10.482200 -12.404100
H -40.207900 -7.402300 -12.335300
C -40.092000 -8.342300 -12.260600
N -39.274500 -10.299100 -11.805700
N -39.072000 -8.913200 -11.709700
