22
Fragment
H -15.457000 -20.376900 -7.698700
H -15.457000 -17.668100 -12.021300
O -15.056200 -20.269200 -8.448000
O -15.056200 -17.775800 -11.272000
N -14.342500 -19.115200 -8.176700
N -14.342500 -18.929800 -11.543300
C -13.683300 -19.351700 -10.528900
C -13.683300 -18.693300 -9.191100
H -13.503500 -20.848700 -12.573500
H -13.503500 -17.196300 -7.146500
N -12.975800 -21.166600 -11.948700
N -12.975800 -16.878400 -7.771300
C -12.924400 -20.599800 -10.741900
C -12.924400 -17.445200 -8.978100
H -12.554000 -21.913900 -12.068600
H -12.554000 -16.131100 -7.651400
N -12.259000 -21.056500 -9.728300
N -12.259000 -16.988500 -9.991700
O -11.616900 -22.273800 -10.094300
O -11.616900 -15.771200 -9.625700
H -11.129700 -22.446500 -9.418300
H -11.129700 -15.598400 -10.301700
22
Fragment
H -11.565500 -20.376900 -15.965300
H -11.565500 -17.668100 -11.642700
O -11.164700 -20.269200 -15.216000
O -11.164700 -17.775800 -12.392000
N -10.451000 -19.115200 -15.487300
N -10.451000 -18.929800 -12.120700
C -9.791800 -19.351700 -13.135100
C -9.791800 -18.693300 -14.472900
H -9.612000 -20.848700 -11.090500
H -9.612000 -17.196300 -16.517500
N -9.084300 -21.166600 -11.715300
N -9.084300 -16.878400 -15.892700
C -9.032900 -20.599800 -12.922100
C -9.032900 -17.445200 -14.685900
H -8.662500 -21.913900 -11.595400
H -8.662500 -16.131100 -16.012600
N -8.367500 -21.056500 -13.935700
N -8.367500 -16.988500 -13.672300
O -7.725400 -22.273800 -13.569700
O -7.725400 -15.771200 -14.038300
H -7.238200 -22.446500 -14.245700
H -7.238200 -15.598400 -13.362300
44
Fragment
H -15.457000 -20.376900 -7.698700
H -15.457000 -17.668100 -12.021300
O -15.056200 -20.269200 -8.448000
O -15.056200 -17.775800 -11.272000
N -14.342500 -19.115200 -8.176700
N -14.342500 -18.929800 -11.543300
C -13.683300 -19.351700 -10.528900
C -13.683300 -18.693300 -9.191100
H -13.503500 -20.848700 -12.573500
H -13.503500 -17.196300 -7.146500
N -12.975800 -21.166600 -11.948700
N -12.975800 -16.878400 -7.771300
C -12.924400 -20.599800 -10.741900
C -12.924400 -17.445200 -8.978100
H -12.554000 -21.913900 -12.068600
H -12.554000 -16.131100 -7.651400
N -12.259000 -21.056500 -9.728300
N -12.259000 -16.988500 -9.991700
O -11.616900 -22.273800 -10.094300
O -11.616900 -15.771200 -9.625700
H -11.129700 -22.446500 -9.418300
H -11.129700 -15.598400 -10.301700
H -11.565500 -20.376900 -15.965300
H -11.565500 -17.668100 -11.642700
O -11.164700 -20.269200 -15.216000
O -11.164700 -17.775800 -12.392000
N -10.451000 -19.115200 -15.487300
N -10.451000 -18.929800 -12.120700
C -9.791800 -19.351700 -13.135100
C -9.791800 -18.693300 -14.472900
H -9.612000 -20.848700 -11.090500
H -9.612000 -17.196300 -16.517500
N -9.084300 -21.166600 -11.715300
N -9.084300 -16.878400 -15.892700
C -9.032900 -20.599800 -12.922100
C -9.032900 -17.445200 -14.685900
H -8.662500 -21.913900 -11.595400
H -8.662500 -16.131100 -16.012600
N -8.367500 -21.056500 -13.935700
N -8.367500 -16.988500 -13.672300
O -7.725400 -22.273800 -13.569700
O -7.725400 -15.771200 -14.038300
H -7.238200 -22.446500 -14.245700
H -7.238200 -15.598400 -13.362300
