22
Fragment
H -15.457000 -20.376900 -7.698700
H -15.457000 -17.668100 -12.021300
O -15.056200 -20.269200 -8.448000
O -15.056200 -17.775800 -11.272000
N -14.342500 -19.115200 -8.176700
N -14.342500 -18.929800 -11.543300
C -13.683300 -19.351700 -10.528900
C -13.683300 -18.693300 -9.191100
H -13.503500 -20.848700 -12.573500
H -13.503500 -17.196300 -7.146500
N -12.975800 -21.166600 -11.948700
N -12.975800 -16.878400 -7.771300
C -12.924400 -20.599800 -10.741900
C -12.924400 -17.445200 -8.978100
H -12.554000 -21.913900 -12.068600
H -12.554000 -16.131100 -7.651400
N -12.259000 -21.056500 -9.728300
N -12.259000 -16.988500 -9.991700
O -11.616900 -22.273800 -10.094300
O -11.616900 -15.771200 -9.625700
H -11.129700 -22.446500 -9.418300
H -11.129700 -15.598400 -10.301700
22
Fragment
H -12.219300 -30.055600 -13.362300
H -12.219300 -23.207500 -14.245700
O -11.732100 -29.882800 -14.038300
O -11.732100 -23.380200 -13.569700
N -11.090000 -28.665500 -13.672300
N -11.090000 -24.597500 -13.935700
H -10.795000 -29.522900 -16.012600
H -10.795000 -23.740100 -11.595400
C -10.424600 -28.208800 -14.685900
C -10.424600 -25.054200 -12.922100
N -10.373200 -28.775600 -15.892700
N -10.373200 -24.487400 -11.715300
H -9.845500 -28.457700 -16.517500
H -9.845500 -24.805300 -11.090500
C -9.665700 -26.960700 -14.472900
C -9.665700 -26.302300 -13.135100
N -9.006500 -26.724200 -12.120700
N -9.006500 -26.538800 -15.487300
O -8.292800 -27.878200 -12.392000
O -8.292800 -25.384800 -15.216000
H -7.892000 -27.985900 -11.642700
H -7.892000 -25.277100 -15.965300
44
Fragment
H -15.457000 -20.376900 -7.698700
H -15.457000 -17.668100 -12.021300
O -15.056200 -20.269200 -8.448000
O -15.056200 -17.775800 -11.272000
N -14.342500 -19.115200 -8.176700
N -14.342500 -18.929800 -11.543300
C -13.683300 -19.351700 -10.528900
C -13.683300 -18.693300 -9.191100
H -13.503500 -20.848700 -12.573500
H -13.503500 -17.196300 -7.146500
N -12.975800 -21.166600 -11.948700
N -12.975800 -16.878400 -7.771300
C -12.924400 -20.599800 -10.741900
C -12.924400 -17.445200 -8.978100
H -12.554000 -21.913900 -12.068600
H -12.554000 -16.131100 -7.651400
N -12.259000 -21.056500 -9.728300
N -12.259000 -16.988500 -9.991700
O -11.616900 -22.273800 -10.094300
O -11.616900 -15.771200 -9.625700
H -11.129700 -22.446500 -9.418300
H -11.129700 -15.598400 -10.301700
H -12.219300 -30.055600 -13.362300
H -12.219300 -23.207500 -14.245700
O -11.732100 -29.882800 -14.038300
O -11.732100 -23.380200 -13.569700
N -11.090000 -28.665500 -13.672300
N -11.090000 -24.597500 -13.935700
H -10.795000 -29.522900 -16.012600
H -10.795000 -23.740100 -11.595400
C -10.424600 -28.208800 -14.685900
C -10.424600 -25.054200 -12.922100
N -10.373200 -28.775600 -15.892700
N -10.373200 -24.487400 -11.715300
H -9.845500 -28.457700 -16.517500
H -9.845500 -24.805300 -11.090500
C -9.665700 -26.960700 -14.472900
C -9.665700 -26.302300 -13.135100
N -9.006500 -26.724200 -12.120700
N -9.006500 -26.538800 -15.487300
O -8.292800 -27.878200 -12.392000
O -8.292800 -25.384800 -15.216000
H -7.892000 -27.985900 -11.642700
H -7.892000 -25.277100 -15.965300
