22
Fragment
H -15.457000 -20.376900 -7.698700
H -15.457000 -17.668100 -12.021300
O -15.056200 -20.269200 -8.448000
O -15.056200 -17.775800 -11.272000
N -14.342500 -19.115200 -8.176700
N -14.342500 -18.929800 -11.543300
C -13.683300 -19.351700 -10.528900
C -13.683300 -18.693300 -9.191100
H -13.503500 -20.848700 -12.573500
H -13.503500 -17.196300 -7.146500
N -12.975800 -21.166600 -11.948700
N -12.975800 -16.878400 -7.771300
C -12.924400 -20.599800 -10.741900
C -12.924400 -17.445200 -8.978100
H -12.554000 -21.913900 -12.068600
H -12.554000 -16.131100 -7.651400
N -12.259000 -21.056500 -9.728300
N -12.259000 -16.988500 -9.991700
O -11.616900 -22.273800 -10.094300
O -11.616900 -15.771200 -9.625700
H -11.129700 -22.446500 -9.418300
H -11.129700 -15.598400 -10.301700
22
Fragment
H -16.110800 -30.055600 -10.301700
H -16.110800 -23.207500 -9.418300
O -15.623600 -29.882800 -9.625700
O -15.623600 -23.380200 -10.094300
N -14.981500 -28.665500 -9.991700
N -14.981500 -24.597500 -9.728300
H -14.686500 -29.522900 -7.651400
H -14.686500 -23.740100 -12.068600
C -14.316100 -28.208800 -8.978100
C -14.316100 -25.054200 -10.741900
N -14.264700 -28.775600 -7.771300
N -14.264700 -24.487400 -11.948700
H -13.737000 -28.457700 -7.146500
H -13.737000 -24.805300 -12.573500
C -13.557200 -26.960700 -9.191100
C -13.557200 -26.302300 -10.528900
N -12.898000 -26.724200 -11.543300
N -12.898000 -26.538800 -8.176700
O -12.184300 -27.878200 -11.272000
O -12.184300 -25.384800 -8.448000
H -11.783500 -27.985900 -12.021300
H -11.783500 -25.277100 -7.698700
44
Fragment
H -15.457000 -20.376900 -7.698700
H -15.457000 -17.668100 -12.021300
O -15.056200 -20.269200 -8.448000
O -15.056200 -17.775800 -11.272000
N -14.342500 -19.115200 -8.176700
N -14.342500 -18.929800 -11.543300
C -13.683300 -19.351700 -10.528900
C -13.683300 -18.693300 -9.191100
H -13.503500 -20.848700 -12.573500
H -13.503500 -17.196300 -7.146500
N -12.975800 -21.166600 -11.948700
N -12.975800 -16.878400 -7.771300
C -12.924400 -20.599800 -10.741900
C -12.924400 -17.445200 -8.978100
H -12.554000 -21.913900 -12.068600
H -12.554000 -16.131100 -7.651400
N -12.259000 -21.056500 -9.728300
N -12.259000 -16.988500 -9.991700
O -11.616900 -22.273800 -10.094300
O -11.616900 -15.771200 -9.625700
H -11.129700 -22.446500 -9.418300
H -11.129700 -15.598400 -10.301700
H -16.110800 -30.055600 -10.301700
H -16.110800 -23.207500 -9.418300
O -15.623600 -29.882800 -9.625700
O -15.623600 -23.380200 -10.094300
N -14.981500 -28.665500 -9.991700
N -14.981500 -24.597500 -9.728300
H -14.686500 -29.522900 -7.651400
H -14.686500 -23.740100 -12.068600
C -14.316100 -28.208800 -8.978100
C -14.316100 -25.054200 -10.741900
N -14.264700 -28.775600 -7.771300
N -14.264700 -24.487400 -11.948700
H -13.737000 -28.457700 -7.146500
H -13.737000 -24.805300 -12.573500
C -13.557200 -26.960700 -9.191100
C -13.557200 -26.302300 -10.528900
N -12.898000 -26.724200 -11.543300
N -12.898000 -26.538800 -8.176700
O -12.184300 -27.878200 -11.272000
O -12.184300 -25.384800 -8.448000
H -11.783500 -27.985900 -12.021300
H -11.783500 -25.277100 -7.698700
