14
Fragment
O -3.673500 -14.233100 -13.745800
O -3.654500 -15.106000 -15.696300
N -3.312600 -14.212100 -14.924600
C -2.472300 -13.167000 -15.376600
O -2.465100 -13.668600 -17.729200
H -2.283500 -12.423600 -13.404900
C -2.104300 -13.004600 -16.751400
C -1.986400 -12.269500 -14.428800
N -1.239400 -11.940600 -16.935000
N -1.195000 -11.248900 -14.679800
H -0.886600 -11.800900 -17.869000
H -0.884600 -10.632900 -13.943100
C -0.810100 -11.054200 -15.974700
O -0.073300 -10.114300 -16.278200
16
Fragment
H -5.228400 -9.282100 -13.192600
N -4.249900 -9.086000 -13.045300
H -4.059200 -7.745200 -14.628600
H -4.029500 -10.324200 -11.377000
H -3.653100 -6.508300 -12.584500
H -3.632300 -8.051200 -10.627800
C -3.449200 -8.173600 -13.874400
C -3.429400 -9.680100 -11.967600
C -2.869300 -7.082000 -13.006500
C -2.849500 -8.588600 -11.099800
H -2.666400 -8.710900 -14.346400
H -2.645600 -10.253900 -12.389700
H -2.269200 -6.437900 -13.597200
H -2.239500 -9.016900 -10.345600
N -2.048800 -7.676100 -11.928900
H -1.070200 -7.480100 -11.781600
30
Fragment
O -3.673500 -14.233100 -13.745800
O -3.654500 -15.106000 -15.696300
N -3.312600 -14.212100 -14.924600
C -2.472300 -13.167000 -15.376600
O -2.465100 -13.668600 -17.729200
H -2.283500 -12.423600 -13.404900
C -2.104300 -13.004600 -16.751400
C -1.986400 -12.269500 -14.428800
N -1.239400 -11.940600 -16.935000
N -1.195000 -11.248900 -14.679800
H -0.886600 -11.800900 -17.869000
H -0.884600 -10.632900 -13.943100
C -0.810100 -11.054200 -15.974700
O -0.073300 -10.114300 -16.278200
H -5.228400 -9.282100 -13.192600
N -4.249900 -9.086000 -13.045300
H -4.059200 -7.745200 -14.628600
H -4.029500 -10.324200 -11.377000
H -3.653100 -6.508300 -12.584500
H -3.632300 -8.051200 -10.627800
C -3.449200 -8.173600 -13.874400
C -3.429400 -9.680100 -11.967600
C -2.869300 -7.082000 -13.006500
C -2.849500 -8.588600 -11.099800
H -2.666400 -8.710900 -14.346400
H -2.645600 -10.253900 -12.389700
H -2.269200 -6.437900 -13.597200
H -2.239500 -9.016900 -10.345600
N -2.048800 -7.676100 -11.928900
H -1.070200 -7.480100 -11.781600
