6
Fragment
O -18.931000 -19.770300 -20.414600
H -18.473400 -17.398000 -20.178700
C -18.281100 -19.207400 -19.516300
N -18.073200 -17.940100 -19.426300
H -17.848600 -19.763500 -18.691200
H -17.509800 -17.540500 -18.688600
6
Fragment
H -21.855500 -17.211500 -19.550300
H -21.516700 -14.988500 -19.547700
N -21.292100 -16.811900 -18.812700
C -21.084200 -15.544600 -18.722700
H -20.891900 -17.354000 -18.060200
O -20.434300 -14.981700 -17.824300
12
Fragment
O -18.931000 -19.770300 -20.414600
H -18.473400 -17.398000 -20.178700
C -18.281100 -19.207400 -19.516300
N -18.073200 -17.940100 -19.426300
H -17.848600 -19.763500 -18.691200
H -17.509800 -17.540500 -18.688600
H -21.855500 -17.211500 -19.550300
H -21.516700 -14.988500 -19.547700
N -21.292100 -16.811900 -18.812700
C -21.084200 -15.544600 -18.722700
H -20.891900 -17.354000 -18.060200
O -20.434300 -14.981700 -17.824300
