6
Fragment
O -18.931000 -19.770300 -20.414600
H -18.473400 -17.398000 -20.178700
C -18.281100 -19.207400 -19.516300
N -18.073200 -17.940100 -19.426300
H -17.848600 -19.763500 -18.691200
H -17.509800 -17.540500 -18.688600
14
Fragment
O -20.025600 -18.191400 -16.393400
H -19.878400 -15.728800 -16.385400
C -19.594300 -17.527800 -15.475800
N -19.536400 -16.145000 -15.530600
H -19.244400 -19.064900 -14.244000
N -19.133300 -18.062800 -14.307200
H -19.068800 -14.334000 -14.732200
C -19.067300 -15.397500 -14.520800
C -18.645600 -17.401500 -13.196000
C -18.626800 -15.955800 -13.367900
O -18.305300 -18.046900 -12.220800
N -18.140100 -15.085600 -12.342200
O -17.994500 -13.898400 -12.607100
O -17.882900 -15.530400 -11.238000
20
Fragment
O -18.931000 -19.770300 -20.414600
H -18.473400 -17.398000 -20.178700
C -18.281100 -19.207400 -19.516300
N -18.073200 -17.940100 -19.426300
H -17.848600 -19.763500 -18.691200
H -17.509800 -17.540500 -18.688600
O -20.025600 -18.191400 -16.393400
H -19.878400 -15.728800 -16.385400
C -19.594300 -17.527800 -15.475800
N -19.536400 -16.145000 -15.530600
H -19.244400 -19.064900 -14.244000
N -19.133300 -18.062800 -14.307200
H -19.068800 -14.334000 -14.732200
C -19.067300 -15.397500 -14.520800
C -18.645600 -17.401500 -13.196000
C -18.626800 -15.955800 -13.367900
O -18.305300 -18.046900 -12.220800
N -18.140100 -15.085600 -12.342200
O -17.994500 -13.898400 -12.607100
O -17.882900 -15.530400 -11.238000
