14
Fragment
H -9.827500 -19.533200 -21.253500
O -9.787800 -21.953300 -21.808400
N -9.449100 -20.114100 -20.518500
C -9.421300 -21.459200 -20.765700
O -9.133100 -18.238200 -19.315000
C -9.017800 -19.453700 -19.377600
N -8.937400 -22.234500 -19.713300
H -8.932100 -23.240200 -19.807200
C -8.480600 -21.684200 -18.583200
C -8.476500 -20.354900 -18.377100
H -8.106500 -22.320700 -17.822300
N -7.890000 -19.873000 -17.145500
O -7.787000 -18.670000 -16.958800
O -7.501300 -20.707900 -16.331700
11
Fragment
H -6.352300 -16.859100 -14.678100
H -6.032000 -19.273500 -14.722400
C -5.901200 -17.357500 -13.858900
C -5.716900 -18.702200 -13.886900
H -5.623800 -15.593700 -12.681300
C -5.490500 -16.644300 -12.738500
C -5.116600 -19.308000 -12.817300
H -4.972100 -20.357400 -12.846500
C -4.907700 -17.339700 -11.711000
N -4.703300 -18.639600 -11.738000
H -4.604400 -16.802800 -10.849700
25
Fragment
H -9.827500 -19.533200 -21.253500
O -9.787800 -21.953300 -21.808400
N -9.449100 -20.114100 -20.518500
C -9.421300 -21.459200 -20.765700
O -9.133100 -18.238200 -19.315000
C -9.017800 -19.453700 -19.377600
N -8.937400 -22.234500 -19.713300
H -8.932100 -23.240200 -19.807200
C -8.480600 -21.684200 -18.583200
C -8.476500 -20.354900 -18.377100
H -8.106500 -22.320700 -17.822300
N -7.890000 -19.873000 -17.145500
O -7.787000 -18.670000 -16.958800
O -7.501300 -20.707900 -16.331700
H -6.352300 -16.859100 -14.678100
H -6.032000 -19.273500 -14.722400
C -5.901200 -17.357500 -13.858900
C -5.716900 -18.702200 -13.886900
H -5.623800 -15.593700 -12.681300
C -5.490500 -16.644300 -12.738500
C -5.116600 -19.308000 -12.817300
H -4.972100 -20.357400 -12.846500
C -4.907700 -17.339700 -11.711000
N -4.703300 -18.639600 -11.738000
H -4.604400 -16.802800 -10.849700
