14
Fragment
O -9.049900 -9.289300 -23.344900
H -9.021000 -10.846100 -24.597600
H -8.698300 -7.678500 -22.133700
C -8.311100 -10.183400 -24.173300
C -8.146100 -8.356700 -22.733100
H -7.892200 -9.646700 -24.986400
H -7.774800 -11.470900 -22.619400
H -7.644000 -7.812200 -23.492400
H -7.526700 -9.636400 -21.125300
C -7.272700 -10.926400 -23.378700
C -7.107700 -9.099700 -21.938400
H -6.720500 -11.604600 -23.978100
H -6.397800 -8.437000 -21.514200
O -6.369000 -9.993800 -22.766900
14
Fragment
H -5.873600 -5.689200 -20.006400
O -5.564100 -3.575100 -18.825900
N -5.126100 -5.127400 -20.389100
C -4.862300 -3.916400 -19.757400
O -4.844000 -6.697700 -21.993800
C -4.498500 -5.649900 -21.465000
O -3.819600 -1.500200 -18.835100
C -3.749100 -3.218300 -20.350700
N -3.438000 -4.915300 -21.938400
N -3.282500 -1.964900 -19.809600
C -3.068900 -3.742800 -21.386600
H -2.903500 -5.304800 -22.700800
O -2.357100 -1.408300 -20.384500
H -2.193900 -3.278100 -21.807800
28
Fragment
O -9.049900 -9.289300 -23.344900
H -9.021000 -10.846100 -24.597600
H -8.698300 -7.678500 -22.133700
C -8.311100 -10.183400 -24.173300
C -8.146100 -8.356700 -22.733100
H -7.892200 -9.646700 -24.986400
H -7.774800 -11.470900 -22.619400
H -7.644000 -7.812200 -23.492400
H -7.526700 -9.636400 -21.125300
C -7.272700 -10.926400 -23.378700
C -7.107700 -9.099700 -21.938400
H -6.720500 -11.604600 -23.978100
H -6.397800 -8.437000 -21.514200
O -6.369000 -9.993800 -22.766900
H -5.873600 -5.689200 -20.006400
O -5.564100 -3.575100 -18.825900
N -5.126100 -5.127400 -20.389100
C -4.862300 -3.916400 -19.757400
O -4.844000 -6.697700 -21.993800
C -4.498500 -5.649900 -21.465000
O -3.819600 -1.500200 -18.835100
C -3.749100 -3.218300 -20.350700
N -3.438000 -4.915300 -21.938400
N -3.282500 -1.964900 -19.809600
C -3.068900 -3.742800 -21.386600
H -2.903500 -5.304800 -22.700800
O -2.357100 -1.408300 -20.384500
H -2.193900 -3.278100 -21.807800
