14
Fragment
O -3.673500 -14.233100 -13.745800
O -3.654500 -15.106000 -15.696300
N -3.312600 -14.212100 -14.924600
C -2.472300 -13.167000 -15.376600
O -2.465100 -13.668600 -17.729200
H -2.283500 -12.423600 -13.404900
C -2.104300 -13.004600 -16.751400
C -1.986400 -12.269500 -14.428800
N -1.239400 -11.940600 -16.935000
N -1.195000 -11.248900 -14.679800
H -0.886600 -11.800900 -17.869000
H -0.884600 -10.632900 -13.943100
C -0.810100 -11.054200 -15.974700
O -0.073300 -10.114300 -16.278200
16
Fragment
H -2.902000 -18.132400 -17.869000
N -1.919300 -17.985400 -18.043800
H -1.720400 -16.337700 -16.780100
H -1.703700 -19.559600 -19.404900
H -1.290100 -15.572500 -19.041600
H -1.276700 -17.504000 -20.622400
C -1.111600 -16.923200 -17.419500
C -1.099400 -18.809200 -18.962900
C -0.515000 -16.049200 -18.498400
C -0.502700 -17.935200 -20.041800
H -0.337700 -17.354500 -16.838800
H -0.324300 -19.286000 -18.419700
H 0.089400 -15.298800 -18.056300
H 0.106000 -18.520700 -20.681100
N 0.304900 -16.873000 -19.417400
H 1.287600 -16.726100 -19.592200
30
Fragment
O -3.673500 -14.233100 -13.745800
O -3.654500 -15.106000 -15.696300
N -3.312600 -14.212100 -14.924600
C -2.472300 -13.167000 -15.376600
O -2.465100 -13.668600 -17.729200
H -2.283500 -12.423600 -13.404900
C -2.104300 -13.004600 -16.751400
C -1.986400 -12.269500 -14.428800
N -1.239400 -11.940600 -16.935000
N -1.195000 -11.248900 -14.679800
H -0.886600 -11.800900 -17.869000
H -0.884600 -10.632900 -13.943100
C -0.810100 -11.054200 -15.974700
O -0.073300 -10.114300 -16.278200
H -2.902000 -18.132400 -17.869000
N -1.919300 -17.985400 -18.043800
H -1.720400 -16.337700 -16.780100
H -1.703700 -19.559600 -19.404900
H -1.290100 -15.572500 -19.041600
H -1.276700 -17.504000 -20.622400
C -1.111600 -16.923200 -17.419500
C -1.099400 -18.809200 -18.962900
C -0.515000 -16.049200 -18.498400
C -0.502700 -17.935200 -20.041800
H -0.337700 -17.354500 -16.838800
H -0.324300 -19.286000 -18.419700
H 0.089400 -15.298800 -18.056300
H 0.106000 -18.520700 -20.681100
N 0.304900 -16.873000 -19.417400
H 1.287600 -16.726100 -19.592200
