22
Fragment
H -4.880800 -9.173900 -14.711600
H -4.875500 -11.358200 -13.687700
H -4.044400 -11.390900 -15.188900
C -4.010400 -11.017700 -14.197300
H -4.007700 -9.147800 -13.235000
C -4.004000 -9.520100 -14.227600
H -3.661000 -7.157000 -15.478400
H -3.648500 -13.378400 -12.959800
H -2.808700 -13.408400 -14.473400
N -2.792000 -11.539100 -13.511200
C -2.791700 -13.035200 -13.481800
C -2.786200 -7.500200 -14.986800
N -2.785900 -8.996300 -14.957400
H -2.769200 -7.127000 -13.995100
H -1.929400 -7.156900 -15.508700
H -1.917000 -13.378300 -12.990200
C -1.573900 -11.015300 -14.240900
H -1.570300 -11.387600 -15.233500
C -1.567500 -9.517700 -14.271300
H -1.533500 -9.144500 -13.279600
H -0.702400 -9.177200 -14.780900
H -0.697100 -11.361500 -13.757000
14
Fragment
O -3.339200 -15.211800 -10.601700
N -2.944100 -16.248200 -11.184400
O -2.841400 -19.036900 -12.173200
O -2.797800 -16.280400 -12.400000
C -2.693900 -17.416800 -10.403400
C -2.672000 -18.708500 -11.003100
H -2.637200 -16.272400 -8.616500
C -2.543200 -17.270000 -9.033100
N -2.433800 -19.700100 -10.054100
H -2.387500 -20.647000 -10.402400
N -2.287500 -18.284600 -8.185700
C -2.255900 -19.543700 -8.711400
H -2.126100 -18.121000 -7.201600
O -2.054000 -20.510500 -7.972100
36
Fragment
H -4.880800 -9.173900 -14.711600
H -4.875500 -11.358200 -13.687700
H -4.044400 -11.390900 -15.188900
C -4.010400 -11.017700 -14.197300
H -4.007700 -9.147800 -13.235000
C -4.004000 -9.520100 -14.227600
H -3.661000 -7.157000 -15.478400
H -3.648500 -13.378400 -12.959800
H -2.808700 -13.408400 -14.473400
N -2.792000 -11.539100 -13.511200
C -2.791700 -13.035200 -13.481800
C -2.786200 -7.500200 -14.986800
N -2.785900 -8.996300 -14.957400
H -2.769200 -7.127000 -13.995100
H -1.929400 -7.156900 -15.508700
H -1.917000 -13.378300 -12.990200
C -1.573900 -11.015300 -14.240900
H -1.570300 -11.387600 -15.233500
C -1.567500 -9.517700 -14.271300
H -1.533500 -9.144500 -13.279600
H -0.702400 -9.177200 -14.780900
H -0.697100 -11.361500 -13.757000
O -3.339200 -15.211800 -10.601700
N -2.944100 -16.248200 -11.184400
O -2.841400 -19.036900 -12.173200
O -2.797800 -16.280400 -12.400000
C -2.693900 -17.416800 -10.403400
C -2.672000 -18.708500 -11.003100
H -2.637200 -16.272400 -8.616500
C -2.543200 -17.270000 -9.033100
N -2.433800 -19.700100 -10.054100
H -2.387500 -20.647000 -10.402400
N -2.287500 -18.284600 -8.185700
C -2.255900 -19.543700 -8.711400
H -2.126100 -18.121000 -7.201600
O -2.054000 -20.510500 -7.972100
