22
Fragment
H -4.880800 -9.173900 -14.711600
H -4.875500 -11.358200 -13.687700
H -4.044400 -11.390900 -15.188900
C -4.010400 -11.017700 -14.197300
H -4.007700 -9.147800 -13.235000
C -4.004000 -9.520100 -14.227600
H -3.661000 -7.157000 -15.478400
H -3.648500 -13.378400 -12.959800
H -2.808700 -13.408400 -14.473400
N -2.792000 -11.539100 -13.511200
C -2.791700 -13.035200 -13.481800
C -2.786200 -7.500200 -14.986800
N -2.785900 -8.996300 -14.957400
H -2.769200 -7.127000 -13.995100
H -1.929400 -7.156900 -15.508700
H -1.917000 -13.378300 -12.990200
C -1.573900 -11.015300 -14.240900
H -1.570300 -11.387600 -15.233500
C -1.567500 -9.517700 -14.271300
H -1.533500 -9.144500 -13.279600
H -0.702400 -9.177200 -14.780900
H -0.697100 -11.361500 -13.757000
14
Fragment
O -2.896900 -8.884400 -11.006900
H -2.824800 -11.273900 -11.777400
C -2.695100 -9.851200 -10.267700
N -2.663400 -11.110300 -10.793400
H -2.563400 -8.747800 -8.576600
N -2.517100 -9.694800 -8.924900
C -2.407700 -12.124900 -9.946000
H -2.313800 -13.122500 -10.362600
C -2.278900 -10.686400 -7.975900
C -2.257100 -11.978000 -8.575700
O -2.153100 -13.114500 -6.579100
O -2.109500 -10.357900 -6.805900
N -2.006800 -13.146700 -7.794700
O -1.611800 -14.183000 -8.377400
36
Fragment
H -4.880800 -9.173900 -14.711600
H -4.875500 -11.358200 -13.687700
H -4.044400 -11.390900 -15.188900
C -4.010400 -11.017700 -14.197300
H -4.007700 -9.147800 -13.235000
C -4.004000 -9.520100 -14.227600
H -3.661000 -7.157000 -15.478400
H -3.648500 -13.378400 -12.959800
H -2.808700 -13.408400 -14.473400
N -2.792000 -11.539100 -13.511200
C -2.791700 -13.035200 -13.481800
C -2.786200 -7.500200 -14.986800
N -2.785900 -8.996300 -14.957400
H -2.769200 -7.127000 -13.995100
H -1.929400 -7.156900 -15.508700
H -1.917000 -13.378300 -12.990200
C -1.573900 -11.015300 -14.240900
H -1.570300 -11.387600 -15.233500
C -1.567500 -9.517700 -14.271300
H -1.533500 -9.144500 -13.279600
H -0.702400 -9.177200 -14.780900
H -0.697100 -11.361500 -13.757000
O -2.896900 -8.884400 -11.006900
H -2.824800 -11.273900 -11.777400
C -2.695100 -9.851200 -10.267700
N -2.663400 -11.110300 -10.793400
H -2.563400 -8.747800 -8.576600
N -2.517100 -9.694800 -8.924900
C -2.407700 -12.124900 -9.946000
H -2.313800 -13.122500 -10.362600
C -2.278900 -10.686400 -7.975900
C -2.257100 -11.978000 -8.575700
O -2.153100 -13.114500 -6.579100
O -2.109500 -10.357900 -6.805900
N -2.006800 -13.146700 -7.794700
O -1.611800 -14.183000 -8.377400
