14
Fragment
H -9.827500 -19.533200 -21.253500
O -9.787800 -21.953300 -21.808400
N -9.449100 -20.114100 -20.518500
C -9.421300 -21.459200 -20.765700
O -9.133100 -18.238200 -19.315000
C -9.017800 -19.453700 -19.377600
N -8.937400 -22.234500 -19.713300
H -8.932100 -23.240200 -19.807200
C -8.480600 -21.684200 -18.583200
C -8.476500 -20.354900 -18.377100
H -8.106500 -22.320700 -17.822300
N -7.890000 -19.873000 -17.145500
O -7.787000 -18.670000 -16.958800
O -7.501300 -20.707900 -16.331700
14
Fragment
O -9.889200 -27.098700 -21.445700
O -9.603500 -25.060800 -20.818500
N -9.500500 -26.263800 -20.631800
H -9.284000 -28.711500 -19.955100
C -8.914000 -26.745700 -19.400300
C -8.909800 -28.075000 -19.194100
H -8.458400 -29.631000 -17.970100
N -8.453100 -28.625400 -18.064000
C -8.372600 -25.844600 -18.399700
O -8.257300 -24.629100 -18.462300
C -7.969200 -27.850000 -17.011700
N -7.941400 -26.504900 -17.258800
O -7.602700 -28.344200 -15.968900
H -7.563000 -25.924100 -16.523800
28
Fragment
H -9.827500 -19.533200 -21.253500
O -9.787800 -21.953300 -21.808400
N -9.449100 -20.114100 -20.518500
C -9.421300 -21.459200 -20.765700
O -9.133100 -18.238200 -19.315000
C -9.017800 -19.453700 -19.377600
N -8.937400 -22.234500 -19.713300
H -8.932100 -23.240200 -19.807200
C -8.480600 -21.684200 -18.583200
C -8.476500 -20.354900 -18.377100
H -8.106500 -22.320700 -17.822300
N -7.890000 -19.873000 -17.145500
O -7.787000 -18.670000 -16.958800
O -7.501300 -20.707900 -16.331700
O -9.889200 -27.098700 -21.445700
O -9.603500 -25.060800 -20.818500
N -9.500500 -26.263800 -20.631800
H -9.284000 -28.711500 -19.955100
C -8.914000 -26.745700 -19.400300
C -8.909800 -28.075000 -19.194100
H -8.458400 -29.631000 -17.970100
N -8.453100 -28.625400 -18.064000
C -8.372600 -25.844600 -18.399700
O -8.257300 -24.629100 -18.462300
C -7.969200 -27.850000 -17.011700
N -7.941400 -26.504900 -17.258800
O -7.602700 -28.344200 -15.968900
H -7.563000 -25.924100 -16.523800
