22
Fragment
H -4.880800 -9.173900 -14.711600
H -4.875500 -11.358200 -13.687700
H -4.044400 -11.390900 -15.188900
C -4.010400 -11.017700 -14.197300
H -4.007700 -9.147800 -13.235000
C -4.004000 -9.520100 -14.227600
H -3.661000 -7.157000 -15.478400
H -3.648500 -13.378400 -12.959800
H -2.808700 -13.408400 -14.473400
N -2.792000 -11.539100 -13.511200
C -2.791700 -13.035200 -13.481800
C -2.786200 -7.500200 -14.986800
N -2.785900 -8.996300 -14.957400
H -2.769200 -7.127000 -13.995100
H -1.929400 -7.156900 -15.508700
H -1.917000 -13.378300 -12.990200
C -1.573900 -11.015300 -14.240900
H -1.570300 -11.387600 -15.233500
C -1.567500 -9.517700 -14.271300
H -1.533500 -9.144500 -13.279600
H -0.702400 -9.177200 -14.780900
H -0.697100 -11.361500 -13.757000
14
Fragment
O -3.565100 -13.486000 -20.496400
H -3.493100 -15.875500 -21.267000
C -3.363300 -14.452800 -19.757200
N -3.331600 -15.711900 -20.282900
H -3.231600 -13.349400 -18.066200
N -3.185400 -14.296400 -18.414400
C -3.076000 -16.726500 -19.435500
H -2.982000 -17.724100 -19.852100
C -2.947100 -15.288000 -17.465500
C -2.925300 -16.579600 -18.065200
O -2.821300 -17.716100 -16.068600
O -2.777700 -14.959500 -16.295400
N -2.675000 -17.748300 -17.284200
O -2.280000 -18.784600 -17.866900
36
Fragment
H -4.880800 -9.173900 -14.711600
H -4.875500 -11.358200 -13.687700
H -4.044400 -11.390900 -15.188900
C -4.010400 -11.017700 -14.197300
H -4.007700 -9.147800 -13.235000
C -4.004000 -9.520100 -14.227600
H -3.661000 -7.157000 -15.478400
H -3.648500 -13.378400 -12.959800
H -2.808700 -13.408400 -14.473400
N -2.792000 -11.539100 -13.511200
C -2.791700 -13.035200 -13.481800
C -2.786200 -7.500200 -14.986800
N -2.785900 -8.996300 -14.957400
H -2.769200 -7.127000 -13.995100
H -1.929400 -7.156900 -15.508700
H -1.917000 -13.378300 -12.990200
C -1.573900 -11.015300 -14.240900
H -1.570300 -11.387600 -15.233500
C -1.567500 -9.517700 -14.271300
H -1.533500 -9.144500 -13.279600
H -0.702400 -9.177200 -14.780900
H -0.697100 -11.361500 -13.757000
O -3.565100 -13.486000 -20.496400
H -3.493100 -15.875500 -21.267000
C -3.363300 -14.452800 -19.757200
N -3.331600 -15.711900 -20.282900
H -3.231600 -13.349400 -18.066200
N -3.185400 -14.296400 -18.414400
C -3.076000 -16.726500 -19.435500
H -2.982000 -17.724100 -19.852100
C -2.947100 -15.288000 -17.465500
C -2.925300 -16.579600 -18.065200
O -2.821300 -17.716100 -16.068600
O -2.777700 -14.959500 -16.295400
N -2.675000 -17.748300 -17.284200
O -2.280000 -18.784600 -17.866900
