22
Fragment
H -4.880800 -9.173900 -14.711600
H -4.875500 -11.358200 -13.687700
H -4.044400 -11.390900 -15.188900
C -4.010400 -11.017700 -14.197300
H -4.007700 -9.147800 -13.235000
C -4.004000 -9.520100 -14.227600
H -3.661000 -7.157000 -15.478400
H -3.648500 -13.378400 -12.959800
H -2.808700 -13.408400 -14.473400
N -2.792000 -11.539100 -13.511200
C -2.791700 -13.035200 -13.481800
C -2.786200 -7.500200 -14.986800
N -2.785900 -8.996300 -14.957400
H -2.769200 -7.127000 -13.995100
H -1.929400 -7.156900 -15.508700
H -1.917000 -13.378300 -12.990200
C -1.573900 -11.015300 -14.240900
H -1.570300 -11.387600 -15.233500
C -1.567500 -9.517700 -14.271300
H -1.533500 -9.144500 -13.279600
H -0.702400 -9.177200 -14.780900
H -0.697100 -11.361500 -13.757000
22
Fragment
H -1.307600 -2.443300 -14.711600
H -1.302300 -4.627600 -13.687700
H -0.471200 -4.660300 -15.188900
C -0.437200 -4.287100 -14.197300
H -0.434400 -2.417200 -13.235000
C -0.430800 -2.789500 -14.227600
H -0.087700 -0.426500 -15.478400
H -0.075300 -6.647900 -12.959800
H 0.764600 -6.677800 -14.473400
N 0.781200 -4.808500 -13.511200
C 0.781500 -6.304600 -13.481800
C 0.787100 -0.769600 -14.986800
N 0.787300 -2.265700 -14.957400
H 0.804000 -0.396500 -13.995100
H 1.643800 -0.426400 -15.508700
H 1.656300 -6.647800 -12.990200
C 1.999400 -4.284700 -14.240900
H 2.003000 -4.657000 -15.233500
C 2.005800 -2.787100 -14.271300
H 2.039700 -2.413900 -13.279600
H 2.870800 -2.446600 -14.780900
H 2.876100 -4.630900 -13.757000
44
Fragment
H -4.880800 -9.173900 -14.711600
H -4.875500 -11.358200 -13.687700
H -4.044400 -11.390900 -15.188900
C -4.010400 -11.017700 -14.197300
H -4.007700 -9.147800 -13.235000
C -4.004000 -9.520100 -14.227600
H -3.661000 -7.157000 -15.478400
H -3.648500 -13.378400 -12.959800
H -2.808700 -13.408400 -14.473400
N -2.792000 -11.539100 -13.511200
C -2.791700 -13.035200 -13.481800
C -2.786200 -7.500200 -14.986800
N -2.785900 -8.996300 -14.957400
H -2.769200 -7.127000 -13.995100
H -1.929400 -7.156900 -15.508700
H -1.917000 -13.378300 -12.990200
C -1.573900 -11.015300 -14.240900
H -1.570300 -11.387600 -15.233500
C -1.567500 -9.517700 -14.271300
H -1.533500 -9.144500 -13.279600
H -0.702400 -9.177200 -14.780900
H -0.697100 -11.361500 -13.757000
H -1.307600 -2.443300 -14.711600
H -1.302300 -4.627600 -13.687700
H -0.471200 -4.660300 -15.188900
C -0.437200 -4.287100 -14.197300
H -0.434400 -2.417200 -13.235000
C -0.430800 -2.789500 -14.227600
H -0.087700 -0.426500 -15.478400
H -0.075300 -6.647900 -12.959800
H 0.764600 -6.677800 -14.473400
N 0.781200 -4.808500 -13.511200
C 0.781500 -6.304600 -13.481800
C 0.787100 -0.769600 -14.986800
N 0.787300 -2.265700 -14.957400
H 0.804000 -0.396500 -13.995100
H 1.643800 -0.426400 -15.508700
H 1.656300 -6.647800 -12.990200
C 1.999400 -4.284700 -14.240900
H 2.003000 -4.657000 -15.233500
C 2.005800 -2.787100 -14.271300
H 2.039700 -2.413900 -13.279600
H 2.870800 -2.446600 -14.780900
H 2.876100 -4.630900 -13.757000
