14
Fragment
O -3.673500 -14.233100 -13.745800
O -3.654500 -15.106000 -15.696300
N -3.312600 -14.212100 -14.924600
C -2.472300 -13.167000 -15.376600
O -2.465100 -13.668600 -17.729200
H -2.283500 -12.423600 -13.404900
C -2.104300 -13.004600 -16.751400
C -1.986400 -12.269500 -14.428800
N -1.239400 -11.940600 -16.935000
N -1.195000 -11.248900 -14.679800
H -0.886600 -11.800900 -17.869000
H -0.884600 -10.632900 -13.943100
C -0.810100 -11.054200 -15.974700
O -0.073300 -10.114300 -16.278200
16
Fragment
H -8.289500 -18.997300 -13.192600
N -7.311000 -18.801300 -13.045300
H -7.120300 -17.460400 -14.628600
H -7.090600 -20.039400 -11.377000
H -6.714200 -16.223500 -12.584500
H -6.693400 -17.766400 -10.627800
C -6.510300 -17.888800 -13.874400
C -6.490500 -19.395400 -11.967600
C -5.930400 -16.797300 -13.006500
C -5.910500 -18.303800 -11.099800
H -5.727500 -18.426200 -14.346400
H -5.706600 -19.969100 -12.389700
H -5.330300 -16.153200 -13.597200
H -5.300500 -18.732200 -10.345600
N -5.109900 -17.391300 -11.928900
H -4.131300 -17.195300 -11.781600
30
Fragment
O -3.673500 -14.233100 -13.745800
O -3.654500 -15.106000 -15.696300
N -3.312600 -14.212100 -14.924600
C -2.472300 -13.167000 -15.376600
O -2.465100 -13.668600 -17.729200
H -2.283500 -12.423600 -13.404900
C -2.104300 -13.004600 -16.751400
C -1.986400 -12.269500 -14.428800
N -1.239400 -11.940600 -16.935000
N -1.195000 -11.248900 -14.679800
H -0.886600 -11.800900 -17.869000
H -0.884600 -10.632900 -13.943100
C -0.810100 -11.054200 -15.974700
O -0.073300 -10.114300 -16.278200
H -8.289500 -18.997300 -13.192600
N -7.311000 -18.801300 -13.045300
H -7.120300 -17.460400 -14.628600
H -7.090600 -20.039400 -11.377000
H -6.714200 -16.223500 -12.584500
H -6.693400 -17.766400 -10.627800
C -6.510300 -17.888800 -13.874400
C -6.490500 -19.395400 -11.967600
C -5.930400 -16.797300 -13.006500
C -5.910500 -18.303800 -11.099800
H -5.727500 -18.426200 -14.346400
H -5.706600 -19.969100 -12.389700
H -5.330300 -16.153200 -13.597200
H -5.300500 -18.732200 -10.345600
N -5.109900 -17.391300 -11.928900
H -4.131300 -17.195300 -11.781600
