14
Fragment
H -9.827500 -19.533200 -21.253500
O -9.787800 -21.953300 -21.808400
N -9.449100 -20.114100 -20.518500
C -9.421300 -21.459200 -20.765700
O -9.133100 -18.238200 -19.315000
C -9.017800 -19.453700 -19.377600
N -8.937400 -22.234500 -19.713300
H -8.932100 -23.240200 -19.807200
C -8.480600 -21.684200 -18.583200
C -8.476500 -20.354900 -18.377100
H -8.106500 -22.320700 -17.822300
N -7.890000 -19.873000 -17.145500
O -7.787000 -18.670000 -16.958800
O -7.501300 -20.707900 -16.331700
14
Fragment
H -9.090100 -25.202700 -26.650300
O -9.050400 -22.782600 -27.205200
N -8.711700 -24.621900 -25.915300
C -8.684000 -23.276800 -26.162400
O -8.395800 -26.497700 -24.711800
C -8.280500 -25.282200 -24.774400
N -8.200000 -22.501400 -25.110100
H -8.194700 -21.495800 -25.204000
C -7.743300 -23.051800 -23.980000
C -7.739100 -24.381100 -23.773800
H -7.369200 -22.415300 -23.219000
N -7.152700 -24.863000 -22.542300
O -7.049600 -26.066000 -22.355500
O -6.763900 -24.028100 -21.728400
28
Fragment
H -9.827500 -19.533200 -21.253500
O -9.787800 -21.953300 -21.808400
N -9.449100 -20.114100 -20.518500
C -9.421300 -21.459200 -20.765700
O -9.133100 -18.238200 -19.315000
C -9.017800 -19.453700 -19.377600
N -8.937400 -22.234500 -19.713300
H -8.932100 -23.240200 -19.807200
C -8.480600 -21.684200 -18.583200
C -8.476500 -20.354900 -18.377100
H -8.106500 -22.320700 -17.822300
N -7.890000 -19.873000 -17.145500
O -7.787000 -18.670000 -16.958800
O -7.501300 -20.707900 -16.331700
H -9.090100 -25.202700 -26.650300
O -9.050400 -22.782600 -27.205200
N -8.711700 -24.621900 -25.915300
C -8.684000 -23.276800 -26.162400
O -8.395800 -26.497700 -24.711800
C -8.280500 -25.282200 -24.774400
N -8.200000 -22.501400 -25.110100
H -8.194700 -21.495800 -25.204000
C -7.743300 -23.051800 -23.980000
C -7.739100 -24.381100 -23.773800
H -7.369200 -22.415300 -23.219000
N -7.152700 -24.863000 -22.542300
O -7.049600 -26.066000 -22.355500
O -6.763900 -24.028100 -21.728400
