14
Fragment
O -9.049900 -9.289300 -23.344900
H -9.021000 -10.846100 -24.597600
H -8.698300 -7.678500 -22.133700
C -8.311100 -10.183400 -24.173300
C -8.146100 -8.356700 -22.733100
H -7.892200 -9.646700 -24.986400
H -7.774800 -11.470900 -22.619400
H -7.644000 -7.812200 -23.492400
H -7.526700 -9.636400 -21.125300
C -7.272700 -10.926400 -23.378700
C -7.107700 -9.099700 -21.938400
H -6.720500 -11.604600 -23.978100
H -6.397800 -8.437000 -21.514200
O -6.369000 -9.993800 -22.766900
14
Fragment
H -13.224900 -9.577300 -24.304000
O -13.061800 -11.447100 -25.727300
H -12.515300 -7.550600 -23.411000
C -12.349900 -9.112600 -24.725100
N -12.136300 -10.890500 -26.302200
N -11.980800 -7.940100 -24.173300
C -11.669700 -9.637100 -25.761100
O -11.599200 -11.355200 -27.276700
C -10.920300 -7.205500 -24.646700
O -10.574800 -6.157700 -24.118000
C -10.556600 -8.939000 -26.354400
N -10.292700 -7.728000 -25.722700
O -9.854800 -9.280300 -27.285900
H -9.545300 -7.166200 -26.105400
28
Fragment
O -9.049900 -9.289300 -23.344900
H -9.021000 -10.846100 -24.597600
H -8.698300 -7.678500 -22.133700
C -8.311100 -10.183400 -24.173300
C -8.146100 -8.356700 -22.733100
H -7.892200 -9.646700 -24.986400
H -7.774800 -11.470900 -22.619400
H -7.644000 -7.812200 -23.492400
H -7.526700 -9.636400 -21.125300
C -7.272700 -10.926400 -23.378700
C -7.107700 -9.099700 -21.938400
H -6.720500 -11.604600 -23.978100
H -6.397800 -8.437000 -21.514200
O -6.369000 -9.993800 -22.766900
H -13.224900 -9.577300 -24.304000
O -13.061800 -11.447100 -25.727300
H -12.515300 -7.550600 -23.411000
C -12.349900 -9.112600 -24.725100
N -12.136300 -10.890500 -26.302200
N -11.980800 -7.940100 -24.173300
C -11.669700 -9.637100 -25.761100
O -11.599200 -11.355200 -27.276700
C -10.920300 -7.205500 -24.646700
O -10.574800 -6.157700 -24.118000
C -10.556600 -8.939000 -26.354400
N -10.292700 -7.728000 -25.722700
O -9.854800 -9.280300 -27.285900
H -9.545300 -7.166200 -26.105400
