22
Fragment
H -4.880800 -9.173900 -14.711600
H -4.875500 -11.358200 -13.687700
H -4.044400 -11.390900 -15.188900
C -4.010400 -11.017700 -14.197300
H -4.007700 -9.147800 -13.235000
C -4.004000 -9.520100 -14.227600
H -3.661000 -7.157000 -15.478400
H -3.648500 -13.378400 -12.959800
H -2.808700 -13.408400 -14.473400
N -2.792000 -11.539100 -13.511200
C -2.791700 -13.035200 -13.481800
C -2.786200 -7.500200 -14.986800
N -2.785900 -8.996300 -14.957400
H -2.769200 -7.127000 -13.995100
H -1.929400 -7.156900 -15.508700
H -1.917000 -13.378300 -12.990200
C -1.573900 -11.015300 -14.240900
H -1.570300 -11.387600 -15.233500
C -1.567500 -9.517700 -14.271300
H -1.533500 -9.144500 -13.279600
H -0.702400 -9.177200 -14.780900
H -0.697100 -11.361500 -13.757000
14
Fragment
O -3.966200 -6.352300 -20.091200
N -3.571100 -7.388700 -20.673900
O -3.468400 -10.177400 -21.662700
O -3.424800 -7.420900 -21.889500
C -3.320800 -8.557300 -19.892900
C -3.299000 -9.849000 -20.492600
H -3.264200 -7.412900 -18.106000
C -3.170200 -8.410400 -18.522600
N -3.060800 -10.840600 -19.543700
H -3.014500 -11.787500 -19.891900
N -2.914500 -9.425100 -17.675200
C -2.882800 -10.684200 -18.200900
H -2.753100 -9.261500 -16.691100
O -2.681000 -11.651000 -17.461700
36
Fragment
H -4.880800 -9.173900 -14.711600
H -4.875500 -11.358200 -13.687700
H -4.044400 -11.390900 -15.188900
C -4.010400 -11.017700 -14.197300
H -4.007700 -9.147800 -13.235000
C -4.004000 -9.520100 -14.227600
H -3.661000 -7.157000 -15.478400
H -3.648500 -13.378400 -12.959800
H -2.808700 -13.408400 -14.473400
N -2.792000 -11.539100 -13.511200
C -2.791700 -13.035200 -13.481800
C -2.786200 -7.500200 -14.986800
N -2.785900 -8.996300 -14.957400
H -2.769200 -7.127000 -13.995100
H -1.929400 -7.156900 -15.508700
H -1.917000 -13.378300 -12.990200
C -1.573900 -11.015300 -14.240900
H -1.570300 -11.387600 -15.233500
C -1.567500 -9.517700 -14.271300
H -1.533500 -9.144500 -13.279600
H -0.702400 -9.177200 -14.780900
H -0.697100 -11.361500 -13.757000
O -3.966200 -6.352300 -20.091200
N -3.571100 -7.388700 -20.673900
O -3.468400 -10.177400 -21.662700
O -3.424800 -7.420900 -21.889500
C -3.320800 -8.557300 -19.892900
C -3.299000 -9.849000 -20.492600
H -3.264200 -7.412900 -18.106000
C -3.170200 -8.410400 -18.522600
N -3.060800 -10.840600 -19.543700
H -3.014500 -11.787500 -19.891900
N -2.914500 -9.425100 -17.675200
C -2.882800 -10.684200 -18.200900
H -2.753100 -9.261500 -16.691100
O -2.681000 -11.651000 -17.461700
