14
Fragment
H -9.827500 -19.533200 -21.253500
O -9.787800 -21.953300 -21.808400
N -9.449100 -20.114100 -20.518500
C -9.421300 -21.459200 -20.765700
O -9.133100 -18.238200 -19.315000
C -9.017800 -19.453700 -19.377600
N -8.937400 -22.234500 -19.713300
H -8.932100 -23.240200 -19.807200
C -8.480600 -21.684200 -18.583200
C -8.476500 -20.354900 -18.377100
H -8.106500 -22.320700 -17.822300
N -7.890000 -19.873000 -17.145500
O -7.787000 -18.670000 -16.958800
O -7.501300 -20.707900 -16.331700
14
Fragment
H -10.564800 -25.202700 -15.856800
O -10.525100 -22.782600 -16.411700
N -10.186400 -24.621900 -15.121700
C -10.158600 -23.276800 -15.368900
O -9.870500 -26.497700 -13.918200
C -9.755200 -25.282200 -13.980900
N -9.674700 -22.501400 -14.316500
H -9.669400 -21.495800 -14.410400
C -9.218000 -23.051800 -13.186400
C -9.213800 -24.381100 -12.980300
H -8.843800 -22.415300 -12.425500
N -8.627300 -24.863000 -11.748800
O -8.524300 -26.066000 -11.562000
O -8.238600 -24.028100 -10.934900
28
Fragment
H -9.827500 -19.533200 -21.253500
O -9.787800 -21.953300 -21.808400
N -9.449100 -20.114100 -20.518500
C -9.421300 -21.459200 -20.765700
O -9.133100 -18.238200 -19.315000
C -9.017800 -19.453700 -19.377600
N -8.937400 -22.234500 -19.713300
H -8.932100 -23.240200 -19.807200
C -8.480600 -21.684200 -18.583200
C -8.476500 -20.354900 -18.377100
H -8.106500 -22.320700 -17.822300
N -7.890000 -19.873000 -17.145500
O -7.787000 -18.670000 -16.958800
O -7.501300 -20.707900 -16.331700
H -10.564800 -25.202700 -15.856800
O -10.525100 -22.782600 -16.411700
N -10.186400 -24.621900 -15.121700
C -10.158600 -23.276800 -15.368900
O -9.870500 -26.497700 -13.918200
C -9.755200 -25.282200 -13.980900
N -9.674700 -22.501400 -14.316500
H -9.669400 -21.495800 -14.410400
C -9.218000 -23.051800 -13.186400
C -9.213800 -24.381100 -12.980300
H -8.843800 -22.415300 -12.425500
N -8.627300 -24.863000 -11.748800
O -8.524300 -26.066000 -11.562000
O -8.238600 -24.028100 -10.934900
