6
Fragment
O -18.931000 -19.770300 -20.414600
H -18.473400 -17.398000 -20.178700
C -18.281100 -19.207400 -19.516300
N -18.073200 -17.940100 -19.426300
H -17.848600 -19.763500 -18.691200
H -17.509800 -17.540500 -18.688600
14
Fragment
O -21.482400 -19.221600 -27.000900
O -21.370800 -20.853600 -25.631800
N -21.225200 -19.666400 -25.896700
O -21.060000 -16.705100 -26.018100
C -20.738500 -18.796200 -24.871000
C -20.719700 -17.350500 -25.042900
C -20.297900 -19.354500 -23.718100
H -20.296400 -20.418000 -23.506700
N -20.232000 -16.689200 -23.931700
H -20.120900 -15.687100 -23.994900
N -19.828900 -18.607000 -22.708300
C -19.771000 -17.224200 -22.763100
H -19.486900 -19.023200 -21.853500
O -19.339700 -16.560600 -21.845500
20
Fragment
O -18.931000 -19.770300 -20.414600
H -18.473400 -17.398000 -20.178700
C -18.281100 -19.207400 -19.516300
N -18.073200 -17.940100 -19.426300
H -17.848600 -19.763500 -18.691200
H -17.509800 -17.540500 -18.688600
O -21.482400 -19.221600 -27.000900
O -21.370800 -20.853600 -25.631800
N -21.225200 -19.666400 -25.896700
O -21.060000 -16.705100 -26.018100
C -20.738500 -18.796200 -24.871000
C -20.719700 -17.350500 -25.042900
C -20.297900 -19.354500 -23.718100
H -20.296400 -20.418000 -23.506700
N -20.232000 -16.689200 -23.931700
H -20.120900 -15.687100 -23.994900
N -19.828900 -18.607000 -22.708300
C -19.771000 -17.224200 -22.763100
H -19.486900 -19.023200 -21.853500
O -19.339700 -16.560600 -21.845500
