14
Fragment
O -3.673500 -14.233100 -13.745800
O -3.654500 -15.106000 -15.696300
N -3.312600 -14.212100 -14.924600
C -2.472300 -13.167000 -15.376600
O -2.465100 -13.668600 -17.729200
H -2.283500 -12.423600 -13.404900
C -2.104300 -13.004600 -16.751400
C -1.986400 -12.269500 -14.428800
N -1.239400 -11.940600 -16.935000
N -1.195000 -11.248900 -14.679800
H -0.886600 -11.800900 -17.869000
H -0.884600 -10.632900 -13.943100
C -0.810100 -11.054200 -15.974700
O -0.073300 -10.114300 -16.278200
16
Fragment
H 0.159100 -8.417100 -17.869000
N 1.141800 -8.270200 -18.043800
H 1.340700 -6.622500 -16.780100
H 1.357300 -9.844400 -19.404900
H 1.771000 -5.857200 -19.041600
H 1.784400 -7.788700 -20.622400
C 1.949500 -7.208000 -17.419500
C 1.961700 -9.094000 -18.962900
C 2.546100 -6.334000 -18.498400
C 2.558400 -8.220000 -20.041800
H 2.723400 -7.639200 -16.838800
H 2.736800 -9.570800 -18.419700
H 3.150500 -5.583600 -18.056300
H 3.167100 -8.805500 -20.681100
N 3.366000 -7.157800 -19.417400
H 4.348700 -7.010800 -19.592200
30
Fragment
O -3.673500 -14.233100 -13.745800
O -3.654500 -15.106000 -15.696300
N -3.312600 -14.212100 -14.924600
C -2.472300 -13.167000 -15.376600
O -2.465100 -13.668600 -17.729200
H -2.283500 -12.423600 -13.404900
C -2.104300 -13.004600 -16.751400
C -1.986400 -12.269500 -14.428800
N -1.239400 -11.940600 -16.935000
N -1.195000 -11.248900 -14.679800
H -0.886600 -11.800900 -17.869000
H -0.884600 -10.632900 -13.943100
C -0.810100 -11.054200 -15.974700
O -0.073300 -10.114300 -16.278200
H 0.159100 -8.417100 -17.869000
N 1.141800 -8.270200 -18.043800
H 1.340700 -6.622500 -16.780100
H 1.357300 -9.844400 -19.404900
H 1.771000 -5.857200 -19.041600
H 1.784400 -7.788700 -20.622400
C 1.949500 -7.208000 -17.419500
C 1.961700 -9.094000 -18.962900
C 2.546100 -6.334000 -18.498400
C 2.558400 -8.220000 -20.041800
H 2.723400 -7.639200 -16.838800
H 2.736800 -9.570800 -18.419700
H 3.150500 -5.583600 -18.056300
H 3.167100 -8.805500 -20.681100
N 3.366000 -7.157800 -19.417400
H 4.348700 -7.010800 -19.592200
