22
Fragment
H -4.880800 -9.173900 -14.711600
H -4.875500 -11.358200 -13.687700
H -4.044400 -11.390900 -15.188900
C -4.010400 -11.017700 -14.197300
H -4.007700 -9.147800 -13.235000
C -4.004000 -9.520100 -14.227600
H -3.661000 -7.157000 -15.478400
H -3.648500 -13.378400 -12.959800
H -2.808700 -13.408400 -14.473400
N -2.792000 -11.539100 -13.511200
C -2.791700 -13.035200 -13.481800
C -2.786200 -7.500200 -14.986800
N -2.785900 -8.996300 -14.957400
H -2.769200 -7.127000 -13.995100
H -1.929400 -7.156900 -15.508700
H -1.917000 -13.378300 -12.990200
C -1.573900 -11.015300 -14.240900
H -1.570300 -11.387600 -15.233500
C -1.567500 -9.517700 -14.271300
H -1.533500 -9.144500 -13.279600
H -0.702400 -9.177200 -14.780900
H -0.697100 -11.361500 -13.757000
22
Fragment
H -1.348800 -15.904500 -14.711600
H -1.343600 -18.088700 -13.687700
H -0.512400 -18.121400 -15.188900
C -0.478500 -17.748200 -14.197300
H -0.475700 -15.878300 -13.235000
C -0.472100 -16.250600 -14.227600
H -0.129000 -13.887600 -15.478400
H -0.116600 -20.109000 -12.959800
H 0.723300 -20.138900 -14.473400
N 0.739900 -18.269700 -13.511200
C 0.740200 -19.765700 -13.481800
C 0.745800 -14.230700 -14.986800
N 0.746100 -15.726800 -14.957400
H 0.762700 -13.857600 -13.995100
H 1.602600 -13.887500 -15.508700
H 1.615000 -20.108900 -12.990200
C 1.958100 -17.745900 -14.240900
H 1.961700 -18.118200 -15.233500
C 1.964500 -16.248200 -14.271300
H 1.998500 -15.875000 -13.279600
H 2.829600 -15.907800 -14.780900
H 2.834900 -18.092000 -13.757000
44
Fragment
H -4.880800 -9.173900 -14.711600
H -4.875500 -11.358200 -13.687700
H -4.044400 -11.390900 -15.188900
C -4.010400 -11.017700 -14.197300
H -4.007700 -9.147800 -13.235000
C -4.004000 -9.520100 -14.227600
H -3.661000 -7.157000 -15.478400
H -3.648500 -13.378400 -12.959800
H -2.808700 -13.408400 -14.473400
N -2.792000 -11.539100 -13.511200
C -2.791700 -13.035200 -13.481800
C -2.786200 -7.500200 -14.986800
N -2.785900 -8.996300 -14.957400
H -2.769200 -7.127000 -13.995100
H -1.929400 -7.156900 -15.508700
H -1.917000 -13.378300 -12.990200
C -1.573900 -11.015300 -14.240900
H -1.570300 -11.387600 -15.233500
C -1.567500 -9.517700 -14.271300
H -1.533500 -9.144500 -13.279600
H -0.702400 -9.177200 -14.780900
H -0.697100 -11.361500 -13.757000
H -1.348800 -15.904500 -14.711600
H -1.343600 -18.088700 -13.687700
H -0.512400 -18.121400 -15.188900
C -0.478500 -17.748200 -14.197300
H -0.475700 -15.878300 -13.235000
C -0.472100 -16.250600 -14.227600
H -0.129000 -13.887600 -15.478400
H -0.116600 -20.109000 -12.959800
H 0.723300 -20.138900 -14.473400
N 0.739900 -18.269700 -13.511200
C 0.740200 -19.765700 -13.481800
C 0.745800 -14.230700 -14.986800
N 0.746100 -15.726800 -14.957400
H 0.762700 -13.857600 -13.995100
H 1.602600 -13.887500 -15.508700
H 1.615000 -20.108900 -12.990200
C 1.958100 -17.745900 -14.240900
H 1.961700 -18.118200 -15.233500
C 1.964500 -16.248200 -14.271300
H 1.998500 -15.875000 -13.279600
H 2.829600 -15.907800 -14.780900
H 2.834900 -18.092000 -13.757000
