24
Fragment
H -16.522900 -11.726900 -50.675500
O -15.934500 -11.178900 -51.095700
H -15.667900 -13.754500 -51.652800
H -15.663900 -12.958100 -53.042200
H -15.390900 -9.701200 -52.705100
C -15.139700 -13.176600 -52.242600
C -14.778500 -11.897600 -51.507100
N -14.548600 -9.917900 -52.851200
H -14.341300 -5.922000 -54.407800
H -14.319500 -13.644300 -52.507600
H -14.236100 -12.130000 -50.699300
H -14.209300 -9.224600 -54.642700
N -13.957400 -9.103000 -53.811800
C -13.944200 -11.019100 -52.424800
C -13.366200 -5.826700 -54.413200
C -13.177400 -8.076800 -53.456000
O -13.105400 -7.775700 -55.818300
H -13.100100 -5.239800 -55.150100
H -13.070300 -5.438400 -53.563200
O -12.854000 -7.848600 -52.286500
O -12.790100 -11.348300 -52.736700
H -12.759500 -7.328000 -56.416900
C -12.734300 -7.174200 -54.593700
H -11.739800 -7.075800 -54.564400
24
Fragment
H -13.754500 -5.738300 -50.508600
H -13.644300 -4.389900 -49.653800
C -13.176600 -5.210100 -49.918800
H -12.958100 -5.734300 -49.119200
H -12.130000 -4.306500 -51.462100
C -11.897600 -4.848900 -50.654300
H -11.726900 -6.593300 -51.485900
O -11.348300 -2.860500 -49.424700
O -11.178900 -6.004900 -51.065700
C -11.019100 -4.014600 -49.736600
N -9.917900 -4.619000 -49.310200
H -9.701200 -5.461300 -49.456300
H -9.224600 -4.279700 -47.518700
N -9.103000 -4.027800 -48.349600
C -8.076800 -3.247800 -48.705400
O -7.848600 -2.924400 -49.874900
O -7.775700 -3.175800 -46.343100
H -7.328000 -2.829900 -45.744500
C -7.174200 -2.804700 -47.567700
H -7.075800 -1.810200 -47.597000
H -5.922000 -4.411700 -47.753600
C -5.826700 -3.436600 -47.748200
H -5.438400 -3.140700 -48.598200
H -5.239800 -3.170500 -47.011300
48
Fragment
H -16.522900 -11.726900 -50.675500
O -15.934500 -11.178900 -51.095700
H -15.667900 -13.754500 -51.652800
H -15.663900 -12.958100 -53.042200
H -15.390900 -9.701200 -52.705100
C -15.139700 -13.176600 -52.242600
C -14.778500 -11.897600 -51.507100
N -14.548600 -9.917900 -52.851200
H -14.341300 -5.922000 -54.407800
H -14.319500 -13.644300 -52.507600
H -14.236100 -12.130000 -50.699300
H -14.209300 -9.224600 -54.642700
N -13.957400 -9.103000 -53.811800
C -13.944200 -11.019100 -52.424800
C -13.366200 -5.826700 -54.413200
C -13.177400 -8.076800 -53.456000
O -13.105400 -7.775700 -55.818300
H -13.100100 -5.239800 -55.150100
H -13.070300 -5.438400 -53.563200
O -12.854000 -7.848600 -52.286500
O -12.790100 -11.348300 -52.736700
H -12.759500 -7.328000 -56.416900
C -12.734300 -7.174200 -54.593700
H -11.739800 -7.075800 -54.564400
H -13.754500 -5.738300 -50.508600
H -13.644300 -4.389900 -49.653800
C -13.176600 -5.210100 -49.918800
H -12.958100 -5.734300 -49.119200
H -12.130000 -4.306500 -51.462100
C -11.897600 -4.848900 -50.654300
H -11.726900 -6.593300 -51.485900
O -11.348300 -2.860500 -49.424700
O -11.178900 -6.004900 -51.065700
C -11.019100 -4.014600 -49.736600
N -9.917900 -4.619000 -49.310200
H -9.701200 -5.461300 -49.456300
H -9.224600 -4.279700 -47.518700
N -9.103000 -4.027800 -48.349600
C -8.076800 -3.247800 -48.705400
O -7.848600 -2.924400 -49.874900
O -7.775700 -3.175800 -46.343100
H -7.328000 -2.829900 -45.744500
C -7.174200 -2.804700 -47.567700
H -7.075800 -1.810200 -47.597000
H -5.922000 -4.411700 -47.753600
C -5.826700 -3.436600 -47.748200
H -5.438400 -3.140700 -48.598200
H -5.239800 -3.170500 -47.011300
