24
Fragment
H -16.522900 -11.726900 -50.675500
O -15.934500 -11.178900 -51.095700
H -15.667900 -13.754500 -51.652800
H -15.663900 -12.958100 -53.042200
H -15.390900 -9.701200 -52.705100
C -15.139700 -13.176600 -52.242600
C -14.778500 -11.897600 -51.507100
N -14.548600 -9.917900 -52.851200
H -14.341300 -5.922000 -54.407800
H -14.319500 -13.644300 -52.507600
H -14.236100 -12.130000 -50.699300
H -14.209300 -9.224600 -54.642700
N -13.957400 -9.103000 -53.811800
C -13.944200 -11.019100 -52.424800
C -13.366200 -5.826700 -54.413200
C -13.177400 -8.076800 -53.456000
O -13.105400 -7.775700 -55.818300
H -13.100100 -5.239800 -55.150100
H -13.070300 -5.438400 -53.563200
O -12.854000 -7.848600 -52.286500
O -12.790100 -11.348300 -52.736700
H -12.759500 -7.328000 -56.416900
C -12.734300 -7.174200 -54.593700
H -11.739800 -7.075800 -54.564400
24
Fragment
O -17.596200 -3.930800 -57.403800
H -17.565500 -3.703700 -56.546300
H -17.483000 -10.424100 -57.540700
N -17.146400 -6.442500 -56.020200
N -16.897300 -7.819100 -55.848600
H -16.781000 -9.794600 -58.834800
C -16.634100 -10.320800 -58.021200
C -16.498900 -6.062600 -57.095600
C -16.418500 -4.670700 -57.679600
H -16.353100 -4.767200 -58.671300
H -16.285500 -11.204600 -58.262600
C -16.109300 -8.196900 -56.827600
H -16.076000 -10.545200 -55.572400
N -15.832200 -7.127200 -57.625200
C -15.628900 -9.602100 -57.125600
H -15.430600 -7.347900 -59.543100
O -15.357700 -10.310800 -55.927900
H -15.200200 -3.829800 -56.239900
C -15.152600 -3.971800 -57.207300
H -15.069200 -3.107000 -57.659900
N -15.009200 -7.109600 -58.762200
H -14.771300 -9.527500 -57.632700
H -14.374100 -4.527900 -57.418100
H -14.338300 -6.871300 -58.633800
48
Fragment
H -16.522900 -11.726900 -50.675500
O -15.934500 -11.178900 -51.095700
H -15.667900 -13.754500 -51.652800
H -15.663900 -12.958100 -53.042200
H -15.390900 -9.701200 -52.705100
C -15.139700 -13.176600 -52.242600
C -14.778500 -11.897600 -51.507100
N -14.548600 -9.917900 -52.851200
H -14.341300 -5.922000 -54.407800
H -14.319500 -13.644300 -52.507600
H -14.236100 -12.130000 -50.699300
H -14.209300 -9.224600 -54.642700
N -13.957400 -9.103000 -53.811800
C -13.944200 -11.019100 -52.424800
C -13.366200 -5.826700 -54.413200
C -13.177400 -8.076800 -53.456000
O -13.105400 -7.775700 -55.818300
H -13.100100 -5.239800 -55.150100
H -13.070300 -5.438400 -53.563200
O -12.854000 -7.848600 -52.286500
O -12.790100 -11.348300 -52.736700
H -12.759500 -7.328000 -56.416900
C -12.734300 -7.174200 -54.593700
H -11.739800 -7.075800 -54.564400
O -17.596200 -3.930800 -57.403800
H -17.565500 -3.703700 -56.546300
H -17.483000 -10.424100 -57.540700
N -17.146400 -6.442500 -56.020200
N -16.897300 -7.819100 -55.848600
H -16.781000 -9.794600 -58.834800
C -16.634100 -10.320800 -58.021200
C -16.498900 -6.062600 -57.095600
C -16.418500 -4.670700 -57.679600
H -16.353100 -4.767200 -58.671300
H -16.285500 -11.204600 -58.262600
C -16.109300 -8.196900 -56.827600
H -16.076000 -10.545200 -55.572400
N -15.832200 -7.127200 -57.625200
C -15.628900 -9.602100 -57.125600
H -15.430600 -7.347900 -59.543100
O -15.357700 -10.310800 -55.927900
H -15.200200 -3.829800 -56.239900
C -15.152600 -3.971800 -57.207300
H -15.069200 -3.107000 -57.659900
N -15.009200 -7.109600 -58.762200
H -14.771300 -9.527500 -57.632700
H -14.374100 -4.527900 -57.418100
H -14.338300 -6.871300 -58.633800
