24
Fragment
H -16.522900 -11.726900 -50.675500
O -15.934500 -11.178900 -51.095700
H -15.667900 -13.754500 -51.652800
H -15.663900 -12.958100 -53.042200
H -15.390900 -9.701200 -52.705100
C -15.139700 -13.176600 -52.242600
C -14.778500 -11.897600 -51.507100
N -14.548600 -9.917900 -52.851200
H -14.341300 -5.922000 -54.407800
H -14.319500 -13.644300 -52.507600
H -14.236100 -12.130000 -50.699300
H -14.209300 -9.224600 -54.642700
N -13.957400 -9.103000 -53.811800
C -13.944200 -11.019100 -52.424800
C -13.366200 -5.826700 -54.413200
C -13.177400 -8.076800 -53.456000
O -13.105400 -7.775700 -55.818300
H -13.100100 -5.239800 -55.150100
H -13.070300 -5.438400 -53.563200
O -12.854000 -7.848600 -52.286500
O -12.790100 -11.348300 -52.736700
H -12.759500 -7.328000 -56.416900
C -12.734300 -7.174200 -54.593700
H -11.739800 -7.075800 -54.564400
24
Fragment
H -23.684100 -15.667900 -50.508600
H -23.573900 -14.319500 -49.653800
C -23.106200 -15.139700 -49.918800
H -22.887700 -15.663900 -49.119200
H -22.059600 -14.236100 -51.462100
C -21.827200 -14.778500 -50.654300
H -21.656500 -16.522900 -51.485900
O -21.277900 -12.790100 -49.424700
O -21.108500 -15.934500 -51.065700
C -20.948700 -13.944200 -49.736600
N -19.847500 -14.548600 -49.310200
H -19.630800 -15.390900 -49.456300
H -19.154200 -14.209300 -47.518700
N -19.032600 -13.957400 -48.349600
C -18.006400 -13.177400 -48.705400
O -17.778200 -12.854000 -49.874900
O -17.705300 -13.105400 -46.343100
H -17.257600 -12.759500 -45.744500
C -17.103800 -12.734300 -47.567700
H -17.005400 -11.739800 -47.597000
H -15.851600 -14.341300 -47.753600
C -15.756300 -13.366200 -47.748200
H -15.368000 -13.070300 -48.598200
H -15.169400 -13.100100 -47.011300
48
Fragment
H -16.522900 -11.726900 -50.675500
O -15.934500 -11.178900 -51.095700
H -15.667900 -13.754500 -51.652800
H -15.663900 -12.958100 -53.042200
H -15.390900 -9.701200 -52.705100
C -15.139700 -13.176600 -52.242600
C -14.778500 -11.897600 -51.507100
N -14.548600 -9.917900 -52.851200
H -14.341300 -5.922000 -54.407800
H -14.319500 -13.644300 -52.507600
H -14.236100 -12.130000 -50.699300
H -14.209300 -9.224600 -54.642700
N -13.957400 -9.103000 -53.811800
C -13.944200 -11.019100 -52.424800
C -13.366200 -5.826700 -54.413200
C -13.177400 -8.076800 -53.456000
O -13.105400 -7.775700 -55.818300
H -13.100100 -5.239800 -55.150100
H -13.070300 -5.438400 -53.563200
O -12.854000 -7.848600 -52.286500
O -12.790100 -11.348300 -52.736700
H -12.759500 -7.328000 -56.416900
C -12.734300 -7.174200 -54.593700
H -11.739800 -7.075800 -54.564400
H -23.684100 -15.667900 -50.508600
H -23.573900 -14.319500 -49.653800
C -23.106200 -15.139700 -49.918800
H -22.887700 -15.663900 -49.119200
H -22.059600 -14.236100 -51.462100
C -21.827200 -14.778500 -50.654300
H -21.656500 -16.522900 -51.485900
O -21.277900 -12.790100 -49.424700
O -21.108500 -15.934500 -51.065700
C -20.948700 -13.944200 -49.736600
N -19.847500 -14.548600 -49.310200
H -19.630800 -15.390900 -49.456300
H -19.154200 -14.209300 -47.518700
N -19.032600 -13.957400 -48.349600
C -18.006400 -13.177400 -48.705400
O -17.778200 -12.854000 -49.874900
O -17.705300 -13.105400 -46.343100
H -17.257600 -12.759500 -45.744500
C -17.103800 -12.734300 -47.567700
H -17.005400 -11.739800 -47.597000
H -15.851600 -14.341300 -47.753600
C -15.756300 -13.366200 -47.748200
H -15.368000 -13.070300 -48.598200
H -15.169400 -13.100100 -47.011300
