24
Fragment
H -16.522900 -11.726900 -50.675500
O -15.934500 -11.178900 -51.095700
H -15.667900 -13.754500 -51.652800
H -15.663900 -12.958100 -53.042200
H -15.390900 -9.701200 -52.705100
C -15.139700 -13.176600 -52.242600
C -14.778500 -11.897600 -51.507100
N -14.548600 -9.917900 -52.851200
H -14.341300 -5.922000 -54.407800
H -14.319500 -13.644300 -52.507600
H -14.236100 -12.130000 -50.699300
H -14.209300 -9.224600 -54.642700
N -13.957400 -9.103000 -53.811800
C -13.944200 -11.019100 -52.424800
C -13.366200 -5.826700 -54.413200
C -13.177400 -8.076800 -53.456000
O -13.105400 -7.775700 -55.818300
H -13.100100 -5.239800 -55.150100
H -13.070300 -5.438400 -53.563200
O -12.854000 -7.848600 -52.286500
O -12.790100 -11.348300 -52.736700
H -12.759500 -7.328000 -56.416900
C -12.734300 -7.174200 -54.593700
H -11.739800 -7.075800 -54.564400
24
Fragment
H -26.099000 -8.538500 -49.749200
H -25.439600 -8.748000 -47.058900
H -25.318500 -7.341000 -49.027300
C -25.215200 -8.189900 -49.507800
O -25.205200 -9.466300 -47.414500
H -24.689000 -8.043000 -50.321300
C -24.496500 -9.195100 -48.612100
H -24.421900 -10.052700 -49.119200
C -23.091300 -8.714700 -48.314200
N -22.713500 -7.926700 -47.335100
H -22.242300 -9.393400 -51.029600
N -22.021600 -8.991800 -49.111700
N -22.004000 -9.814800 -50.248800
H -21.765700 -10.485700 -50.120400
N -21.336900 -7.677600 -47.506800
C -20.957000 -8.325100 -48.582200
H -19.661600 -8.470900 -50.157800
C -19.565100 -8.405500 -49.166200
H -19.422300 -10.449900 -48.904700
C -18.866200 -9.671400 -48.693900
O -18.825200 -7.227800 -48.890400
H -18.724200 -9.623800 -47.726400
H -18.598100 -7.258500 -48.032900
H -18.001400 -9.754800 -49.146400
48
Fragment
H -16.522900 -11.726900 -50.675500
O -15.934500 -11.178900 -51.095700
H -15.667900 -13.754500 -51.652800
H -15.663900 -12.958100 -53.042200
H -15.390900 -9.701200 -52.705100
C -15.139700 -13.176600 -52.242600
C -14.778500 -11.897600 -51.507100
N -14.548600 -9.917900 -52.851200
H -14.341300 -5.922000 -54.407800
H -14.319500 -13.644300 -52.507600
H -14.236100 -12.130000 -50.699300
H -14.209300 -9.224600 -54.642700
N -13.957400 -9.103000 -53.811800
C -13.944200 -11.019100 -52.424800
C -13.366200 -5.826700 -54.413200
C -13.177400 -8.076800 -53.456000
O -13.105400 -7.775700 -55.818300
H -13.100100 -5.239800 -55.150100
H -13.070300 -5.438400 -53.563200
O -12.854000 -7.848600 -52.286500
O -12.790100 -11.348300 -52.736700
H -12.759500 -7.328000 -56.416900
C -12.734300 -7.174200 -54.593700
H -11.739800 -7.075800 -54.564400
H -26.099000 -8.538500 -49.749200
H -25.439600 -8.748000 -47.058900
H -25.318500 -7.341000 -49.027300
C -25.215200 -8.189900 -49.507800
O -25.205200 -9.466300 -47.414500
H -24.689000 -8.043000 -50.321300
C -24.496500 -9.195100 -48.612100
H -24.421900 -10.052700 -49.119200
C -23.091300 -8.714700 -48.314200
N -22.713500 -7.926700 -47.335100
H -22.242300 -9.393400 -51.029600
N -22.021600 -8.991800 -49.111700
N -22.004000 -9.814800 -50.248800
H -21.765700 -10.485700 -50.120400
N -21.336900 -7.677600 -47.506800
C -20.957000 -8.325100 -48.582200
H -19.661600 -8.470900 -50.157800
C -19.565100 -8.405500 -49.166200
H -19.422300 -10.449900 -48.904700
C -18.866200 -9.671400 -48.693900
O -18.825200 -7.227800 -48.890400
H -18.724200 -9.623800 -47.726400
H -18.598100 -7.258500 -48.032900
H -18.001400 -9.754800 -49.146400
