24
Fragment
H -16.522900 -11.726900 -50.675500
O -15.934500 -11.178900 -51.095700
H -15.667900 -13.754500 -51.652800
H -15.663900 -12.958100 -53.042200
H -15.390900 -9.701200 -52.705100
C -15.139700 -13.176600 -52.242600
C -14.778500 -11.897600 -51.507100
N -14.548600 -9.917900 -52.851200
H -14.341300 -5.922000 -54.407800
H -14.319500 -13.644300 -52.507600
H -14.236100 -12.130000 -50.699300
H -14.209300 -9.224600 -54.642700
N -13.957400 -9.103000 -53.811800
C -13.944200 -11.019100 -52.424800
C -13.366200 -5.826700 -54.413200
C -13.177400 -8.076800 -53.456000
O -13.105400 -7.775700 -55.818300
H -13.100100 -5.239800 -55.150100
H -13.070300 -5.438400 -53.563200
O -12.854000 -7.848600 -52.286500
O -12.790100 -11.348300 -52.736700
H -12.759500 -7.328000 -56.416900
C -12.734300 -7.174200 -54.593700
H -11.739800 -7.075800 -54.564400
24
Fragment
H -10.485700 -1.906500 -52.041000
H -10.449900 0.436900 -53.256700
H -10.052700 -4.562700 -53.042200
N -9.814800 -2.144800 -51.912600
H -9.754800 1.857800 -53.015000
C -9.671400 0.993000 -53.467500
H -9.623800 1.135000 -54.435000
O -9.466300 -5.346000 -54.746900
H -9.393400 -2.383100 -51.131800
C -9.195100 -4.637300 -53.549300
N -8.991800 -2.162400 -53.049700
H -8.748000 -5.580400 -55.102500
C -8.714700 -3.232100 -53.847200
H -8.538500 -6.239800 -52.412200
H -8.470900 0.197600 -52.003600
C -8.405500 0.294100 -52.995200
C -8.325100 -1.097800 -53.579200
C -8.189900 -5.356000 -52.653600
H -8.043000 -4.829800 -51.840100
N -7.926700 -2.854300 -54.826300
N -7.677600 -1.477700 -54.654600
H -7.341000 -5.459300 -53.134100
H -7.258500 1.261100 -54.128500
O -7.227800 1.034000 -53.271000
48
Fragment
H -16.522900 -11.726900 -50.675500
O -15.934500 -11.178900 -51.095700
H -15.667900 -13.754500 -51.652800
H -15.663900 -12.958100 -53.042200
H -15.390900 -9.701200 -52.705100
C -15.139700 -13.176600 -52.242600
C -14.778500 -11.897600 -51.507100
N -14.548600 -9.917900 -52.851200
H -14.341300 -5.922000 -54.407800
H -14.319500 -13.644300 -52.507600
H -14.236100 -12.130000 -50.699300
H -14.209300 -9.224600 -54.642700
N -13.957400 -9.103000 -53.811800
C -13.944200 -11.019100 -52.424800
C -13.366200 -5.826700 -54.413200
C -13.177400 -8.076800 -53.456000
O -13.105400 -7.775700 -55.818300
H -13.100100 -5.239800 -55.150100
H -13.070300 -5.438400 -53.563200
O -12.854000 -7.848600 -52.286500
O -12.790100 -11.348300 -52.736700
H -12.759500 -7.328000 -56.416900
C -12.734300 -7.174200 -54.593700
H -11.739800 -7.075800 -54.564400
H -10.485700 -1.906500 -52.041000
H -10.449900 0.436900 -53.256700
H -10.052700 -4.562700 -53.042200
N -9.814800 -2.144800 -51.912600
H -9.754800 1.857800 -53.015000
C -9.671400 0.993000 -53.467500
H -9.623800 1.135000 -54.435000
O -9.466300 -5.346000 -54.746900
H -9.393400 -2.383100 -51.131800
C -9.195100 -4.637300 -53.549300
N -8.991800 -2.162400 -53.049700
H -8.748000 -5.580400 -55.102500
C -8.714700 -3.232100 -53.847200
H -8.538500 -6.239800 -52.412200
H -8.470900 0.197600 -52.003600
C -8.405500 0.294100 -52.995200
C -8.325100 -1.097800 -53.579200
C -8.189900 -5.356000 -52.653600
H -8.043000 -4.829800 -51.840100
N -7.926700 -2.854300 -54.826300
N -7.677600 -1.477700 -54.654600
H -7.341000 -5.459300 -53.134100
H -7.258500 1.261100 -54.128500
O -7.227800 1.034000 -53.271000
