15
Fragment
N -8.798700 -30.629000 -15.634200
N -8.653200 -30.398000 -14.370600
N -8.397500 -29.549600 -16.362900
N -8.146700 -29.167400 -14.256500
C -8.002300 -28.656000 -15.476800
H -7.972900 -28.805500 -13.471400
H -7.737500 -27.373600 -17.761200
C -7.491100 -27.312700 -15.772200
C -7.433100 -26.836900 -17.065000
N -7.089900 -26.581500 -14.726000
N -6.951600 -25.628900 -17.337100
C -6.596500 -25.377300 -15.009000
C -6.522400 -24.901400 -16.312000
H -6.293300 -24.839900 -14.313900
H -6.165400 -24.057500 -16.469600
15
Fragment
H -3.328100 -25.177200 -14.747100
C -2.971100 -24.377800 -15.057800
N -2.948700 -24.151200 -16.364100
H -2.517900 -23.680700 -13.244600
C -2.484500 -23.471500 -14.149500
C -2.434100 -22.981600 -16.753100
H -2.401900 -22.778100 -17.659100
N -1.965300 -22.300400 -14.522000
C -1.949300 -22.068400 -15.837200
C -1.424000 -20.774300 -16.277600
N -1.304400 -20.373600 -17.528600
N -1.028900 -19.803200 -15.469500
H -1.022100 -19.734800 -14.628000
N -0.805500 -19.121300 -17.449900
N -0.642500 -18.764800 -16.212300
30
Fragment
N -8.798700 -30.629000 -15.634200
N -8.653200 -30.398000 -14.370600
N -8.397500 -29.549600 -16.362900
N -8.146700 -29.167400 -14.256500
C -8.002300 -28.656000 -15.476800
H -7.972900 -28.805500 -13.471400
H -7.737500 -27.373600 -17.761200
C -7.491100 -27.312700 -15.772200
C -7.433100 -26.836900 -17.065000
N -7.089900 -26.581500 -14.726000
N -6.951600 -25.628900 -17.337100
C -6.596500 -25.377300 -15.009000
C -6.522400 -24.901400 -16.312000
H -6.293300 -24.839900 -14.313900
H -6.165400 -24.057500 -16.469600
H -3.328100 -25.177200 -14.747100
C -2.971100 -24.377800 -15.057800
N -2.948700 -24.151200 -16.364100
H -2.517900 -23.680700 -13.244600
C -2.484500 -23.471500 -14.149500
C -2.434100 -22.981600 -16.753100
H -2.401900 -22.778100 -17.659100
N -1.965300 -22.300400 -14.522000
C -1.949300 -22.068400 -15.837200
C -1.424000 -20.774300 -16.277600
N -1.304400 -20.373600 -17.528600
N -1.028900 -19.803200 -15.469500
H -1.022100 -19.734800 -14.628000
N -0.805500 -19.121300 -17.449900
N -0.642500 -18.764800 -16.212300
