15
Fragment
N -8.798700 -30.629000 -15.634200
N -8.653200 -30.398000 -14.370600
N -8.397500 -29.549600 -16.362900
N -8.146700 -29.167400 -14.256500
C -8.002300 -28.656000 -15.476800
H -7.972900 -28.805500 -13.471400
H -7.737500 -27.373600 -17.761200
C -7.491100 -27.312700 -15.772200
C -7.433100 -26.836900 -17.065000
N -7.089900 -26.581500 -14.726000
N -6.951600 -25.628900 -17.337100
C -6.596500 -25.377300 -15.009000
C -6.522400 -24.901400 -16.312000
H -6.293300 -24.839900 -14.313900
H -6.165400 -24.057500 -16.469600
15
Fragment
N -12.272700 -39.601000 -15.634200
N -12.127200 -39.370000 -14.370600
N -11.871500 -38.521600 -16.362900
N -11.620700 -38.139400 -14.256500
C -11.476300 -37.628000 -15.476800
H -11.446900 -37.777500 -13.471400
H -11.211500 -36.345600 -17.761200
C -10.965100 -36.284700 -15.772200
C -10.907100 -35.808900 -17.065000
N -10.563900 -35.553500 -14.726000
N -10.425600 -34.600900 -17.337100
C -10.070500 -34.349300 -15.009000
C -9.996400 -33.873400 -16.312000
H -9.767300 -33.811900 -14.313900
H -9.639400 -33.029500 -16.469600
30
Fragment
N -8.798700 -30.629000 -15.634200
N -8.653200 -30.398000 -14.370600
N -8.397500 -29.549600 -16.362900
N -8.146700 -29.167400 -14.256500
C -8.002300 -28.656000 -15.476800
H -7.972900 -28.805500 -13.471400
H -7.737500 -27.373600 -17.761200
C -7.491100 -27.312700 -15.772200
C -7.433100 -26.836900 -17.065000
N -7.089900 -26.581500 -14.726000
N -6.951600 -25.628900 -17.337100
C -6.596500 -25.377300 -15.009000
C -6.522400 -24.901400 -16.312000
H -6.293300 -24.839900 -14.313900
H -6.165400 -24.057500 -16.469600
N -12.272700 -39.601000 -15.634200
N -12.127200 -39.370000 -14.370600
N -11.871500 -38.521600 -16.362900
N -11.620700 -38.139400 -14.256500
C -11.476300 -37.628000 -15.476800
H -11.446900 -37.777500 -13.471400
H -11.211500 -36.345600 -17.761200
C -10.965100 -36.284700 -15.772200
C -10.907100 -35.808900 -17.065000
N -10.563900 -35.553500 -14.726000
N -10.425600 -34.600900 -17.337100
C -10.070500 -34.349300 -15.009000
C -9.996400 -33.873400 -16.312000
H -9.767300 -33.811900 -14.313900
H -9.639400 -33.029500 -16.469600
