15
Fragment
N -8.798700 -30.629000 -15.634200
N -8.653200 -30.398000 -14.370600
N -8.397500 -29.549600 -16.362900
N -8.146700 -29.167400 -14.256500
C -8.002300 -28.656000 -15.476800
H -7.972900 -28.805500 -13.471400
H -7.737500 -27.373600 -17.761200
C -7.491100 -27.312700 -15.772200
C -7.433100 -26.836900 -17.065000
N -7.089900 -26.581500 -14.726000
N -6.951600 -25.628900 -17.337100
C -6.596500 -25.377300 -15.009000
C -6.522400 -24.901400 -16.312000
H -6.293300 -24.839900 -14.313900
H -6.165400 -24.057500 -16.469600
3
Fragment
H -4.612600 -27.364600 -12.711600
O -4.251000 -28.137400 -12.975900
H -4.202900 -28.566800 -12.314800
18
Fragment
N -8.798700 -30.629000 -15.634200
N -8.653200 -30.398000 -14.370600
N -8.397500 -29.549600 -16.362900
N -8.146700 -29.167400 -14.256500
C -8.002300 -28.656000 -15.476800
H -7.972900 -28.805500 -13.471400
H -7.737500 -27.373600 -17.761200
C -7.491100 -27.312700 -15.772200
C -7.433100 -26.836900 -17.065000
N -7.089900 -26.581500 -14.726000
N -6.951600 -25.628900 -17.337100
C -6.596500 -25.377300 -15.009000
C -6.522400 -24.901400 -16.312000
H -6.293300 -24.839900 -14.313900
H -6.165400 -24.057500 -16.469600
H -4.612600 -27.364600 -12.711600
O -4.251000 -28.137400 -12.975900
H -4.202900 -28.566800 -12.314800
