15
Fragment
N -8.798700 -30.629000 -15.634200
N -8.653200 -30.398000 -14.370600
N -8.397500 -29.549600 -16.362900
N -8.146700 -29.167400 -14.256500
C -8.002300 -28.656000 -15.476800
H -7.972900 -28.805500 -13.471400
H -7.737500 -27.373600 -17.761200
C -7.491100 -27.312700 -15.772200
C -7.433100 -26.836900 -17.065000
N -7.089900 -26.581500 -14.726000
N -6.951600 -25.628900 -17.337100
C -6.596500 -25.377300 -15.009000
C -6.522400 -24.901400 -16.312000
H -6.293300 -24.839900 -14.313900
H -6.165400 -24.057500 -16.469600
15
Fragment
N -9.595500 -23.203000 -9.964400
N -9.450000 -23.434000 -8.700800
N -9.194300 -24.282400 -10.693100
N -8.943500 -24.664600 -8.586800
C -8.799100 -25.176000 -9.807000
H -8.769700 -25.026500 -7.801600
H -8.534400 -26.458400 -12.091400
C -8.287900 -26.519300 -10.102400
C -8.229900 -26.995100 -11.395200
N -7.886800 -27.250500 -9.056200
N -7.748400 -28.203100 -11.667300
C -7.393300 -28.454700 -9.339300
C -7.319300 -28.930600 -10.642200
H -7.090100 -28.992100 -8.644100
H -6.962200 -29.774500 -10.799800
30
Fragment
N -8.798700 -30.629000 -15.634200
N -8.653200 -30.398000 -14.370600
N -8.397500 -29.549600 -16.362900
N -8.146700 -29.167400 -14.256500
C -8.002300 -28.656000 -15.476800
H -7.972900 -28.805500 -13.471400
H -7.737500 -27.373600 -17.761200
C -7.491100 -27.312700 -15.772200
C -7.433100 -26.836900 -17.065000
N -7.089900 -26.581500 -14.726000
N -6.951600 -25.628900 -17.337100
C -6.596500 -25.377300 -15.009000
C -6.522400 -24.901400 -16.312000
H -6.293300 -24.839900 -14.313900
H -6.165400 -24.057500 -16.469600
N -9.595500 -23.203000 -9.964400
N -9.450000 -23.434000 -8.700800
N -9.194300 -24.282400 -10.693100
N -8.943500 -24.664600 -8.586800
C -8.799100 -25.176000 -9.807000
H -8.769700 -25.026500 -7.801600
H -8.534400 -26.458400 -12.091400
C -8.287900 -26.519300 -10.102400
C -8.229900 -26.995100 -11.395200
N -7.886800 -27.250500 -9.056200
N -7.748400 -28.203100 -11.667300
C -7.393300 -28.454700 -9.339300
C -7.319300 -28.930600 -10.642200
H -7.090100 -28.992100 -8.644100
H -6.962200 -29.774500 -10.799800
