23
Fragment
H -21.818500 -37.643800 -4.914900
N -21.738500 -39.524100 -4.385300
C -21.238300 -38.319500 -4.648300
H -21.231600 -41.329400 -3.813500
C -20.893300 -40.486500 -4.008500
N -20.273900 -35.686500 -4.975200
C -19.888900 -38.033600 -4.539900
H -19.788600 -33.845000 -5.460400
C -19.533500 -40.271000 -3.897900
H -19.515900 -43.056900 -4.155800
C -19.475700 -34.706300 -5.303200
N -19.413200 -36.731700 -4.848500
C -19.007000 -39.023800 -4.154700
C -18.780900 -42.649300 -3.759100
N -18.669000 -41.333200 -3.526300
C -18.172500 -36.305900 -5.103000
N -18.172400 -35.022300 -5.398600
H -18.095600 -38.856800 -4.071700
N -17.704200 -43.280700 -3.347000
N -17.460600 -41.074400 -2.944100
H -17.413100 -36.843200 -5.074700
C -16.939700 -42.273900 -2.860000
H -16.099600 -42.424900 -2.489800
23
Fragment
H -28.103000 -39.972200 -4.914900
N -28.023000 -38.091900 -4.385300
C -27.522800 -39.296500 -4.648300
H -27.516100 -36.286600 -3.813500
C -27.177800 -37.129500 -4.008500
N -26.558400 -41.929500 -4.975200
C -26.173400 -39.582400 -4.539900
H -26.073100 -43.771000 -5.460400
C -25.818000 -37.345000 -3.897900
H -25.800400 -34.559100 -4.155800
C -25.760200 -42.909700 -5.303200
N -25.697700 -40.884300 -4.848500
C -25.291500 -38.592200 -4.154700
C -25.065400 -34.966700 -3.759100
N -24.953500 -36.282800 -3.526300
C -24.457000 -41.310100 -5.103000
N -24.456900 -42.593700 -5.398600
H -24.380100 -38.759200 -4.071700
N -23.988700 -34.335300 -3.347000
N -23.745100 -36.541600 -2.944100
H -23.697600 -40.772800 -5.074700
C -23.224200 -35.342100 -2.860000
H -22.384100 -35.191100 -2.489800
46
Fragment
H -21.818500 -37.643800 -4.914900
N -21.738500 -39.524100 -4.385300
C -21.238300 -38.319500 -4.648300
H -21.231600 -41.329400 -3.813500
C -20.893300 -40.486500 -4.008500
N -20.273900 -35.686500 -4.975200
C -19.888900 -38.033600 -4.539900
H -19.788600 -33.845000 -5.460400
C -19.533500 -40.271000 -3.897900
H -19.515900 -43.056900 -4.155800
C -19.475700 -34.706300 -5.303200
N -19.413200 -36.731700 -4.848500
C -19.007000 -39.023800 -4.154700
C -18.780900 -42.649300 -3.759100
N -18.669000 -41.333200 -3.526300
C -18.172500 -36.305900 -5.103000
N -18.172400 -35.022300 -5.398600
H -18.095600 -38.856800 -4.071700
N -17.704200 -43.280700 -3.347000
N -17.460600 -41.074400 -2.944100
H -17.413100 -36.843200 -5.074700
C -16.939700 -42.273900 -2.860000
H -16.099600 -42.424900 -2.489800
H -28.103000 -39.972200 -4.914900
N -28.023000 -38.091900 -4.385300
C -27.522800 -39.296500 -4.648300
H -27.516100 -36.286600 -3.813500
C -27.177800 -37.129500 -4.008500
N -26.558400 -41.929500 -4.975200
C -26.173400 -39.582400 -4.539900
H -26.073100 -43.771000 -5.460400
C -25.818000 -37.345000 -3.897900
H -25.800400 -34.559100 -4.155800
C -25.760200 -42.909700 -5.303200
N -25.697700 -40.884300 -4.848500
C -25.291500 -38.592200 -4.154700
C -25.065400 -34.966700 -3.759100
N -24.953500 -36.282800 -3.526300
C -24.457000 -41.310100 -5.103000
N -24.456900 -42.593700 -5.398600
H -24.380100 -38.759200 -4.071700
N -23.988700 -34.335300 -3.347000
N -23.745100 -36.541600 -2.944100
H -23.697600 -40.772800 -5.074700
C -23.224200 -35.342100 -2.860000
H -22.384100 -35.191100 -2.489800
