23
Fragment
H -21.818500 -37.643800 -4.914900
N -21.738500 -39.524100 -4.385300
C -21.238300 -38.319500 -4.648300
H -21.231600 -41.329400 -3.813500
C -20.893300 -40.486500 -4.008500
N -20.273900 -35.686500 -4.975200
C -19.888900 -38.033600 -4.539900
H -19.788600 -33.845000 -5.460400
C -19.533500 -40.271000 -3.897900
H -19.515900 -43.056900 -4.155800
C -19.475700 -34.706300 -5.303200
N -19.413200 -36.731700 -4.848500
C -19.007000 -39.023800 -4.154700
C -18.780900 -42.649300 -3.759100
N -18.669000 -41.333200 -3.526300
C -18.172500 -36.305900 -5.103000
N -18.172400 -35.022300 -5.398600
H -18.095600 -38.856800 -4.071700
N -17.704200 -43.280700 -3.347000
N -17.460600 -41.074400 -2.944100
H -17.413100 -36.843200 -5.074700
C -16.939700 -42.273900 -2.860000
H -16.099600 -42.424900 -2.489800
23
Fragment
H -21.607400 -24.103100 -4.326200
C -20.767300 -24.254100 -4.696400
H -20.293900 -29.684800 -6.911100
N -20.246400 -25.453600 -4.780500
N -20.002800 -23.247300 -5.183400
H -19.611400 -27.671200 -5.908100
N -19.534600 -31.505700 -7.235000
C -19.534500 -30.222100 -6.939400
N -19.038000 -25.194800 -5.362700
C -18.926100 -23.878700 -5.595500
C -18.700000 -27.504200 -5.991100
N -18.293800 -29.796300 -6.684900
C -18.231300 -31.821700 -7.139600
H -18.191100 -23.471100 -5.992200
C -18.173500 -26.257000 -5.734300
H -17.918400 -32.683000 -7.296800
C -17.818100 -28.494400 -6.376300
N -17.433100 -30.841500 -6.811600
C -16.813700 -26.041500 -5.844900
H -16.475400 -25.198600 -5.649900
C -16.468700 -28.208500 -6.484700
N -15.968500 -27.003900 -6.221700
H -15.888500 -28.884200 -6.751300
46
Fragment
H -21.818500 -37.643800 -4.914900
N -21.738500 -39.524100 -4.385300
C -21.238300 -38.319500 -4.648300
H -21.231600 -41.329400 -3.813500
C -20.893300 -40.486500 -4.008500
N -20.273900 -35.686500 -4.975200
C -19.888900 -38.033600 -4.539900
H -19.788600 -33.845000 -5.460400
C -19.533500 -40.271000 -3.897900
H -19.515900 -43.056900 -4.155800
C -19.475700 -34.706300 -5.303200
N -19.413200 -36.731700 -4.848500
C -19.007000 -39.023800 -4.154700
C -18.780900 -42.649300 -3.759100
N -18.669000 -41.333200 -3.526300
C -18.172500 -36.305900 -5.103000
N -18.172400 -35.022300 -5.398600
H -18.095600 -38.856800 -4.071700
N -17.704200 -43.280700 -3.347000
N -17.460600 -41.074400 -2.944100
H -17.413100 -36.843200 -5.074700
C -16.939700 -42.273900 -2.860000
H -16.099600 -42.424900 -2.489800
H -21.607400 -24.103100 -4.326200
C -20.767300 -24.254100 -4.696400
H -20.293900 -29.684800 -6.911100
N -20.246400 -25.453600 -4.780500
N -20.002800 -23.247300 -5.183400
H -19.611400 -27.671200 -5.908100
N -19.534600 -31.505700 -7.235000
C -19.534500 -30.222100 -6.939400
N -19.038000 -25.194800 -5.362700
C -18.926100 -23.878700 -5.595500
C -18.700000 -27.504200 -5.991100
N -18.293800 -29.796300 -6.684900
C -18.231300 -31.821700 -7.139600
H -18.191100 -23.471100 -5.992200
C -18.173500 -26.257000 -5.734300
H -17.918400 -32.683000 -7.296800
C -17.818100 -28.494400 -6.376300
N -17.433100 -30.841500 -6.811600
C -16.813700 -26.041500 -5.844900
H -16.475400 -25.198600 -5.649900
C -16.468700 -28.208500 -6.484700
N -15.968500 -27.003900 -6.221700
H -15.888500 -28.884200 -6.751300
