23
Fragment
H -21.818500 -37.643800 -4.914900
N -21.738500 -39.524100 -4.385300
C -21.238300 -38.319500 -4.648300
H -21.231600 -41.329400 -3.813500
C -20.893300 -40.486500 -4.008500
N -20.273900 -35.686500 -4.975200
C -19.888900 -38.033600 -4.539900
H -19.788600 -33.845000 -5.460400
C -19.533500 -40.271000 -3.897900
H -19.515900 -43.056900 -4.155800
C -19.475700 -34.706300 -5.303200
N -19.413200 -36.731700 -4.848500
C -19.007000 -39.023800 -4.154700
C -18.780900 -42.649300 -3.759100
N -18.669000 -41.333200 -3.526300
C -18.172500 -36.305900 -5.103000
N -18.172400 -35.022300 -5.398600
H -18.095600 -38.856800 -4.071700
N -17.704200 -43.280700 -3.347000
N -17.460600 -41.074400 -2.944100
H -17.413100 -36.843200 -5.074700
C -16.939700 -42.273900 -2.860000
H -16.099600 -42.424900 -2.489800
23
Fragment
H -15.534000 -39.972200 -1.242100
N -15.454000 -38.091900 -0.712500
C -14.953800 -39.296500 -0.975500
H -14.947100 -36.286600 -0.140700
C -14.608800 -37.129500 -0.335700
N -13.989400 -41.929500 -1.302400
C -13.604400 -39.582400 -0.867100
H -13.504100 -43.771000 -1.787600
C -13.249000 -37.345000 -0.225100
H -13.231400 -34.559100 -0.483000
C -13.191200 -42.909700 -1.630400
N -13.128700 -40.884300 -1.175700
C -12.722500 -38.592200 -0.481900
C -12.496400 -34.966700 -0.086300
N -12.384500 -36.282800 0.146500
C -11.888000 -41.310100 -1.430200
N -11.887900 -42.593700 -1.725800
H -11.811100 -38.759200 -0.398900
N -11.419700 -34.335300 0.325800
N -11.176100 -36.541600 0.728700
H -11.128600 -40.772800 -1.401900
C -10.655200 -35.342100 0.812800
H -9.815100 -35.191100 1.183000
46
Fragment
H -21.818500 -37.643800 -4.914900
N -21.738500 -39.524100 -4.385300
C -21.238300 -38.319500 -4.648300
H -21.231600 -41.329400 -3.813500
C -20.893300 -40.486500 -4.008500
N -20.273900 -35.686500 -4.975200
C -19.888900 -38.033600 -4.539900
H -19.788600 -33.845000 -5.460400
C -19.533500 -40.271000 -3.897900
H -19.515900 -43.056900 -4.155800
C -19.475700 -34.706300 -5.303200
N -19.413200 -36.731700 -4.848500
C -19.007000 -39.023800 -4.154700
C -18.780900 -42.649300 -3.759100
N -18.669000 -41.333200 -3.526300
C -18.172500 -36.305900 -5.103000
N -18.172400 -35.022300 -5.398600
H -18.095600 -38.856800 -4.071700
N -17.704200 -43.280700 -3.347000
N -17.460600 -41.074400 -2.944100
H -17.413100 -36.843200 -5.074700
C -16.939700 -42.273900 -2.860000
H -16.099600 -42.424900 -2.489800
H -15.534000 -39.972200 -1.242100
N -15.454000 -38.091900 -0.712500
C -14.953800 -39.296500 -0.975500
H -14.947100 -36.286600 -0.140700
C -14.608800 -37.129500 -0.335700
N -13.989400 -41.929500 -1.302400
C -13.604400 -39.582400 -0.867100
H -13.504100 -43.771000 -1.787600
C -13.249000 -37.345000 -0.225100
H -13.231400 -34.559100 -0.483000
C -13.191200 -42.909700 -1.630400
N -13.128700 -40.884300 -1.175700
C -12.722500 -38.592200 -0.481900
C -12.496400 -34.966700 -0.086300
N -12.384500 -36.282800 0.146500
C -11.888000 -41.310100 -1.430200
N -11.887900 -42.593700 -1.725800
H -11.811100 -38.759200 -0.398900
N -11.419700 -34.335300 0.325800
N -11.176100 -36.541600 0.728700
H -11.128600 -40.772800 -1.401900
C -10.655200 -35.342100 0.812800
H -9.815100 -35.191100 1.183000
