20
Fragment
N -8.391800 -9.016400 -15.113500
N -7.905400 -13.049000 -16.138100
C -7.844500 -9.701300 -15.859400
C -7.568700 -11.996700 -16.457800
C -7.181600 -10.641100 -16.724100
F -6.416400 -7.960900 -17.182500
C -6.235500 -10.290400 -17.662000
F -5.906900 -12.536700 -18.384100
C -5.804600 -8.926100 -17.865200
C -5.541900 -11.259600 -18.478400
C -4.809800 -8.597500 -18.707600
C -4.542900 -10.929400 -19.307300
F -4.450200 -7.317100 -18.789800
C -4.123700 -9.561900 -19.524100
F -3.923100 -11.896200 -19.986200
C -3.166300 -9.209600 -20.449500
C -2.782900 -7.849200 -20.696100
C -2.509500 -10.130400 -21.325500
N -2.435700 -6.786600 -20.986000
N -1.954800 -10.787600 -22.086200
20
Fragment
N -6.079600 -6.819900 -21.308100
N -5.593100 -2.787200 -22.332700
C -5.532300 -6.135000 -22.053900
C -5.256400 -3.839500 -22.652300
C -4.869300 -5.195100 -22.918700
F -4.104200 -7.875400 -23.377100
C -3.923300 -5.545800 -23.856600
F -3.594700 -3.299500 -24.578700
C -3.492300 -6.910100 -24.059700
C -3.229700 -4.576700 -24.673000
C -2.497600 -7.238700 -24.902200
C -2.230600 -4.906900 -25.501800
F -2.138000 -8.519100 -24.984300
C -1.811400 -6.274300 -25.718700
F -1.610800 -3.940100 -26.180800
C -0.854100 -6.626700 -26.644100
C -0.470700 -7.987000 -26.890700
C -0.197300 -5.705800 -27.520000
N -0.123500 -9.049600 -27.180600
N 0.357400 -5.048600 -28.280700
40
Fragment
N -8.391800 -9.016400 -15.113500
N -7.905400 -13.049000 -16.138100
C -7.844500 -9.701300 -15.859400
C -7.568700 -11.996700 -16.457800
C -7.181600 -10.641100 -16.724100
F -6.416400 -7.960900 -17.182500
C -6.235500 -10.290400 -17.662000
F -5.906900 -12.536700 -18.384100
C -5.804600 -8.926100 -17.865200
C -5.541900 -11.259600 -18.478400
C -4.809800 -8.597500 -18.707600
C -4.542900 -10.929400 -19.307300
F -4.450200 -7.317100 -18.789800
C -4.123700 -9.561900 -19.524100
F -3.923100 -11.896200 -19.986200
C -3.166300 -9.209600 -20.449500
C -2.782900 -7.849200 -20.696100
C -2.509500 -10.130400 -21.325500
N -2.435700 -6.786600 -20.986000
N -1.954800 -10.787600 -22.086200
N -6.079600 -6.819900 -21.308100
N -5.593100 -2.787200 -22.332700
C -5.532300 -6.135000 -22.053900
C -5.256400 -3.839500 -22.652300
C -4.869300 -5.195100 -22.918700
F -4.104200 -7.875400 -23.377100
C -3.923300 -5.545800 -23.856600
F -3.594700 -3.299500 -24.578700
C -3.492300 -6.910100 -24.059700
C -3.229700 -4.576700 -24.673000
C -2.497600 -7.238700 -24.902200
C -2.230600 -4.906900 -25.501800
F -2.138000 -8.519100 -24.984300
C -1.811400 -6.274300 -25.718700
F -1.610800 -3.940100 -26.180800
C -0.854100 -6.626700 -26.644100
C -0.470700 -7.987000 -26.890700
C -0.197300 -5.705800 -27.520000
N -0.123500 -9.049600 -27.180600
N 0.357400 -5.048600 -28.280700
