20
Fragment
N -8.391800 -9.016400 -15.113500
N -7.905400 -13.049000 -16.138100
C -7.844500 -9.701300 -15.859400
C -7.568700 -11.996700 -16.457800
C -7.181600 -10.641100 -16.724100
F -6.416400 -7.960900 -17.182500
C -6.235500 -10.290400 -17.662000
F -5.906900 -12.536700 -18.384100
C -5.804600 -8.926100 -17.865200
C -5.541900 -11.259600 -18.478400
C -4.809800 -8.597500 -18.707600
C -4.542900 -10.929400 -19.307300
F -4.450200 -7.317100 -18.789800
C -4.123700 -9.561900 -19.524100
F -3.923100 -11.896200 -19.986200
C -3.166300 -9.209600 -20.449500
C -2.782900 -7.849200 -20.696100
C -2.509500 -10.130400 -21.325500
N -2.435700 -6.786600 -20.986000
N -1.954800 -10.787600 -22.086200
22
Fragment
H -12.309600 -18.408000 -16.160400
H -11.885100 -16.083300 -16.346300
C -11.663300 -18.101600 -16.784800
C -11.413600 -16.701700 -16.891400
H -11.179400 -19.951300 -17.463800
C -10.992000 -19.025600 -17.564100
H -10.707400 -14.315200 -18.479700
C -10.479600 -16.264600 -17.797000
C -10.029100 -18.603600 -18.506900
C -9.970600 -14.886800 -18.146400
C -9.800900 -17.209200 -18.591200
H -9.562000 -14.452900 -17.356000
H -9.374700 -20.345600 -19.394000
C -9.262300 -19.402500 -19.396500
H -9.167800 -14.655600 -20.096500
C -8.906000 -15.117300 -19.261400
C -8.865300 -16.616200 -19.468300
C -8.363200 -18.829300 -20.256300
C -8.140900 -17.417500 -20.309500
H -8.021000 -14.779900 -18.974000
H -7.868500 -19.391500 -20.841000
H -7.506700 -17.046100 -20.911700
42
Fragment
N -8.391800 -9.016400 -15.113500
N -7.905400 -13.049000 -16.138100
C -7.844500 -9.701300 -15.859400
C -7.568700 -11.996700 -16.457800
C -7.181600 -10.641100 -16.724100
F -6.416400 -7.960900 -17.182500
C -6.235500 -10.290400 -17.662000
F -5.906900 -12.536700 -18.384100
C -5.804600 -8.926100 -17.865200
C -5.541900 -11.259600 -18.478400
C -4.809800 -8.597500 -18.707600
C -4.542900 -10.929400 -19.307300
F -4.450200 -7.317100 -18.789800
C -4.123700 -9.561900 -19.524100
F -3.923100 -11.896200 -19.986200
C -3.166300 -9.209600 -20.449500
C -2.782900 -7.849200 -20.696100
C -2.509500 -10.130400 -21.325500
N -2.435700 -6.786600 -20.986000
N -1.954800 -10.787600 -22.086200
H -12.309600 -18.408000 -16.160400
H -11.885100 -16.083300 -16.346300
C -11.663300 -18.101600 -16.784800
C -11.413600 -16.701700 -16.891400
H -11.179400 -19.951300 -17.463800
C -10.992000 -19.025600 -17.564100
H -10.707400 -14.315200 -18.479700
C -10.479600 -16.264600 -17.797000
C -10.029100 -18.603600 -18.506900
C -9.970600 -14.886800 -18.146400
C -9.800900 -17.209200 -18.591200
H -9.562000 -14.452900 -17.356000
H -9.374700 -20.345600 -19.394000
C -9.262300 -19.402500 -19.396500
H -9.167800 -14.655600 -20.096500
C -8.906000 -15.117300 -19.261400
C -8.865300 -16.616200 -19.468300
C -8.363200 -18.829300 -20.256300
C -8.140900 -17.417500 -20.309500
H -8.021000 -14.779900 -18.974000
H -7.868500 -19.391500 -20.841000
H -7.506700 -17.046100 -20.911700
