20
Fragment
N -8.391800 -9.016400 -15.113500
N -7.905400 -13.049000 -16.138100
C -7.844500 -9.701300 -15.859400
C -7.568700 -11.996700 -16.457800
C -7.181600 -10.641100 -16.724100
F -6.416400 -7.960900 -17.182500
C -6.235500 -10.290400 -17.662000
F -5.906900 -12.536700 -18.384100
C -5.804600 -8.926100 -17.865200
C -5.541900 -11.259600 -18.478400
C -4.809800 -8.597500 -18.707600
C -4.542900 -10.929400 -19.307300
F -4.450200 -7.317100 -18.789800
C -4.123700 -9.561900 -19.524100
F -3.923100 -11.896200 -19.986200
C -3.166300 -9.209600 -20.449500
C -2.782900 -7.849200 -20.696100
C -2.509500 -10.130400 -21.325500
N -2.435700 -6.786600 -20.986000
N -1.954800 -10.787600 -22.086200
22
Fragment
H -14.621800 -13.264400 -9.965800
H -14.197300 -15.589200 -10.151700
C -13.975500 -13.570800 -10.590300
C -13.725800 -14.970800 -10.696800
H -13.491600 -11.721200 -11.269200
C -13.304200 -12.646800 -11.369500
H -13.019600 -17.357300 -12.285100
C -12.791800 -15.407900 -11.602400
C -12.341300 -13.068800 -12.312300
C -12.282900 -16.785600 -11.951800
C -12.113100 -14.463200 -12.396600
H -11.874200 -17.219500 -11.161400
H -11.686900 -11.326900 -13.199400
C -11.574500 -12.269900 -13.201900
H -11.480000 -17.016800 -13.901900
C -11.218200 -16.555200 -13.066800
C -11.177500 -15.056300 -13.273700
C -10.675400 -12.843200 -14.061700
C -10.453100 -14.255000 -14.115000
H -10.333200 -16.892500 -12.779400
H -10.180700 -12.281000 -14.646500
H -9.818900 -14.626300 -14.717100
42
Fragment
N -8.391800 -9.016400 -15.113500
N -7.905400 -13.049000 -16.138100
C -7.844500 -9.701300 -15.859400
C -7.568700 -11.996700 -16.457800
C -7.181600 -10.641100 -16.724100
F -6.416400 -7.960900 -17.182500
C -6.235500 -10.290400 -17.662000
F -5.906900 -12.536700 -18.384100
C -5.804600 -8.926100 -17.865200
C -5.541900 -11.259600 -18.478400
C -4.809800 -8.597500 -18.707600
C -4.542900 -10.929400 -19.307300
F -4.450200 -7.317100 -18.789800
C -4.123700 -9.561900 -19.524100
F -3.923100 -11.896200 -19.986200
C -3.166300 -9.209600 -20.449500
C -2.782900 -7.849200 -20.696100
C -2.509500 -10.130400 -21.325500
N -2.435700 -6.786600 -20.986000
N -1.954800 -10.787600 -22.086200
H -14.621800 -13.264400 -9.965800
H -14.197300 -15.589200 -10.151700
C -13.975500 -13.570800 -10.590300
C -13.725800 -14.970800 -10.696800
H -13.491600 -11.721200 -11.269200
C -13.304200 -12.646800 -11.369500
H -13.019600 -17.357300 -12.285100
C -12.791800 -15.407900 -11.602400
C -12.341300 -13.068800 -12.312300
C -12.282900 -16.785600 -11.951800
C -12.113100 -14.463200 -12.396600
H -11.874200 -17.219500 -11.161400
H -11.686900 -11.326900 -13.199400
C -11.574500 -12.269900 -13.201900
H -11.480000 -17.016800 -13.901900
C -11.218200 -16.555200 -13.066800
C -11.177500 -15.056300 -13.273700
C -10.675400 -12.843200 -14.061700
C -10.453100 -14.255000 -14.115000
H -10.333200 -16.892500 -12.779400
H -10.180700 -12.281000 -14.646500
H -9.818900 -14.626300 -14.717100
