20
Fragment
N -8.391800 -9.016400 -15.113500
N -7.905400 -13.049000 -16.138100
C -7.844500 -9.701300 -15.859400
C -7.568700 -11.996700 -16.457800
C -7.181600 -10.641100 -16.724100
F -6.416400 -7.960900 -17.182500
C -6.235500 -10.290400 -17.662000
F -5.906900 -12.536700 -18.384100
C -5.804600 -8.926100 -17.865200
C -5.541900 -11.259600 -18.478400
C -4.809800 -8.597500 -18.707600
C -4.542900 -10.929400 -19.307300
F -4.450200 -7.317100 -18.789800
C -4.123700 -9.561900 -19.524100
F -3.923100 -11.896200 -19.986200
C -3.166300 -9.209600 -20.449500
C -2.782900 -7.849200 -20.696100
C -2.509500 -10.130400 -21.325500
N -2.435700 -6.786600 -20.986000
N -1.954800 -10.787600 -22.086200
22
Fragment
H -0.626900 -5.346300 -22.355000
H -0.202400 -7.671100 -22.540800
C 0.019400 -5.652700 -22.979400
C 0.269100 -7.052700 -23.086000
H 0.503300 -3.803100 -23.658300
C 0.690700 -4.728700 -23.758700
H 0.975300 -9.439200 -24.674200
C 1.203100 -7.489700 -23.991600
C 1.653600 -5.150700 -24.701500
C 1.712000 -8.867500 -24.341000
C 1.881800 -6.545100 -24.785800
H 2.120700 -9.301400 -23.550600
H 2.308000 -3.408700 -25.588600
C 2.420400 -4.351800 -25.591000
H 2.514900 -9.098700 -26.291000
C 2.776700 -8.637100 -25.456000
C 2.817400 -7.138200 -25.662900
C 3.319500 -4.925100 -26.450900
C 3.541800 -6.336900 -26.504100
H 3.661700 -8.974400 -25.168600
H 3.814200 -4.362900 -27.035600
H 4.176000 -6.708200 -27.106200
42
Fragment
N -8.391800 -9.016400 -15.113500
N -7.905400 -13.049000 -16.138100
C -7.844500 -9.701300 -15.859400
C -7.568700 -11.996700 -16.457800
C -7.181600 -10.641100 -16.724100
F -6.416400 -7.960900 -17.182500
C -6.235500 -10.290400 -17.662000
F -5.906900 -12.536700 -18.384100
C -5.804600 -8.926100 -17.865200
C -5.541900 -11.259600 -18.478400
C -4.809800 -8.597500 -18.707600
C -4.542900 -10.929400 -19.307300
F -4.450200 -7.317100 -18.789800
C -4.123700 -9.561900 -19.524100
F -3.923100 -11.896200 -19.986200
C -3.166300 -9.209600 -20.449500
C -2.782900 -7.849200 -20.696100
C -2.509500 -10.130400 -21.325500
N -2.435700 -6.786600 -20.986000
N -1.954800 -10.787600 -22.086200
H -0.626900 -5.346300 -22.355000
H -0.202400 -7.671100 -22.540800
C 0.019400 -5.652700 -22.979400
C 0.269100 -7.052700 -23.086000
H 0.503300 -3.803100 -23.658300
C 0.690700 -4.728700 -23.758700
H 0.975300 -9.439200 -24.674200
C 1.203100 -7.489700 -23.991600
C 1.653600 -5.150700 -24.701500
C 1.712000 -8.867500 -24.341000
C 1.881800 -6.545100 -24.785800
H 2.120700 -9.301400 -23.550600
H 2.308000 -3.408700 -25.588600
C 2.420400 -4.351800 -25.591000
H 2.514900 -9.098700 -26.291000
C 2.776700 -8.637100 -25.456000
C 2.817400 -7.138200 -25.662900
C 3.319500 -4.925100 -26.450900
C 3.541800 -6.336900 -26.504100
H 3.661700 -8.974400 -25.168600
H 3.814200 -4.362900 -27.035600
H 4.176000 -6.708200 -27.106200
