20
Fragment
N -8.391800 -9.016400 -15.113500
N -7.905400 -13.049000 -16.138100
C -7.844500 -9.701300 -15.859400
C -7.568700 -11.996700 -16.457800
C -7.181600 -10.641100 -16.724100
F -6.416400 -7.960900 -17.182500
C -6.235500 -10.290400 -17.662000
F -5.906900 -12.536700 -18.384100
C -5.804600 -8.926100 -17.865200
C -5.541900 -11.259600 -18.478400
C -4.809800 -8.597500 -18.707600
C -4.542900 -10.929400 -19.307300
F -4.450200 -7.317100 -18.789800
C -4.123700 -9.561900 -19.524100
F -3.923100 -11.896200 -19.986200
C -3.166300 -9.209600 -20.449500
C -2.782900 -7.849200 -20.696100
C -2.509500 -10.130400 -21.325500
N -2.435700 -6.786600 -20.986000
N -1.954800 -10.787600 -22.086200
20
Fragment
N -8.391800 -1.098200 -15.113500
N -7.905400 -5.130900 -16.138100
C -7.844500 -1.783200 -15.859400
C -7.568700 -4.078600 -16.457800
C -7.181600 -2.723000 -16.724100
F -6.416400 -0.042800 -17.182500
C -6.235500 -2.372300 -17.662000
F -5.906900 -4.618600 -18.384100
C -5.804600 -1.008000 -17.865200
C -5.541900 -3.341400 -18.478400
C -4.809800 -0.679400 -18.707600
C -4.542900 -3.011300 -19.307300
F -4.450200 0.601000 -18.789800
C -4.123700 -1.643800 -19.524100
F -3.923100 -3.978100 -19.986200
C -3.166300 -1.291400 -20.449500
C -2.782900 0.068900 -20.696100
C -2.509500 -2.212300 -21.325500
N -2.435700 1.131500 -20.986000
N -1.954800 -2.869500 -22.086200
40
Fragment
N -8.391800 -9.016400 -15.113500
N -7.905400 -13.049000 -16.138100
C -7.844500 -9.701300 -15.859400
C -7.568700 -11.996700 -16.457800
C -7.181600 -10.641100 -16.724100
F -6.416400 -7.960900 -17.182500
C -6.235500 -10.290400 -17.662000
F -5.906900 -12.536700 -18.384100
C -5.804600 -8.926100 -17.865200
C -5.541900 -11.259600 -18.478400
C -4.809800 -8.597500 -18.707600
C -4.542900 -10.929400 -19.307300
F -4.450200 -7.317100 -18.789800
C -4.123700 -9.561900 -19.524100
F -3.923100 -11.896200 -19.986200
C -3.166300 -9.209600 -20.449500
C -2.782900 -7.849200 -20.696100
C -2.509500 -10.130400 -21.325500
N -2.435700 -6.786600 -20.986000
N -1.954800 -10.787600 -22.086200
N -8.391800 -1.098200 -15.113500
N -7.905400 -5.130900 -16.138100
C -7.844500 -1.783200 -15.859400
C -7.568700 -4.078600 -16.457800
C -7.181600 -2.723000 -16.724100
F -6.416400 -0.042800 -17.182500
C -6.235500 -2.372300 -17.662000
F -5.906900 -4.618600 -18.384100
C -5.804600 -1.008000 -17.865200
C -5.541900 -3.341400 -18.478400
C -4.809800 -0.679400 -18.707600
C -4.542900 -3.011300 -19.307300
F -4.450200 0.601000 -18.789800
C -4.123700 -1.643800 -19.524100
F -3.923100 -3.978100 -19.986200
C -3.166300 -1.291400 -20.449500
C -2.782900 0.068900 -20.696100
C -2.509500 -2.212300 -21.325500
N -2.435700 1.131500 -20.986000
N -1.954800 -2.869500 -22.086200
