30
Fragment
O -8.698500 -19.846100 -49.450600
H -8.582100 -21.907200 -48.481400
N -8.182500 -21.333400 -47.908600
N -7.988400 -19.369200 -45.520200
O -7.960000 -18.295900 -44.616000
N -7.912600 -20.146100 -48.578400
O -7.839900 -12.884400 -40.267300
N -7.815100 -13.928400 -41.175300
N -7.290000 -16.458900 -42.533300
C -7.157700 -21.829400 -47.099400
C -6.965000 -20.093400 -45.153800
N -6.952300 -13.100800 -39.241500
O -6.939700 -19.500500 -48.213200
C -6.915300 -14.755100 -40.739300
C -6.908100 -18.532500 -43.821200
C -6.635400 -17.538600 -42.788800
C -6.628200 -21.316000 -45.870700
O -6.603800 -16.570600 -38.396800
N -6.591200 -22.970300 -47.368500
C -6.578500 -15.977700 -41.456200
C -6.385800 -14.241700 -39.510600
N -6.253500 -19.612200 -44.076700
N -5.728400 -22.142700 -45.434700
O -5.703600 -23.186700 -46.342700
N -5.630900 -15.925000 -38.031600
O -5.583500 -17.775200 -41.994000
N -5.555100 -16.701900 -41.089800
N -5.361000 -14.737700 -38.701400
H -4.961400 -14.163900 -38.128600
O -4.845000 -16.225000 -37.159400
30
Fragment
O -6.441300 -19.846100 -51.594400
H -6.324800 -21.907200 -52.563600
N -5.925300 -21.333400 -53.136400
N -5.731200 -19.369200 -55.524800
O -5.702700 -18.295900 -56.429000
N -5.655300 -20.146100 -52.466600
O -5.582600 -12.884400 -60.777700
N -5.557800 -13.928400 -59.869700
N -5.032800 -16.458900 -58.511700
C -4.900500 -21.829400 -53.945600
C -4.707700 -20.093400 -55.891200
N -4.695100 -13.100800 -61.803500
O -4.682400 -19.500500 -52.831800
C -4.658100 -14.755100 -60.305700
C -4.650800 -18.532500 -57.223800
C -4.378200 -17.538600 -58.256200
C -4.370900 -21.316000 -55.174300
O -4.346600 -16.570600 -62.648200
N -4.333900 -22.970300 -53.676500
C -4.321300 -15.977700 -59.588800
C -4.128500 -14.241700 -61.534400
N -3.996200 -19.612200 -56.968300
N -3.471200 -22.142700 -55.610300
O -3.446400 -23.186700 -54.702300
N -3.373700 -15.925000 -63.013400
O -3.326300 -17.775200 -59.051000
N -3.297800 -16.701900 -59.955200
N -3.103700 -14.737700 -62.343600
H -2.704200 -14.163900 -62.916400
O -2.587700 -16.225000 -63.885600
60
Fragment
O -8.698500 -19.846100 -49.450600
H -8.582100 -21.907200 -48.481400
N -8.182500 -21.333400 -47.908600
N -7.988400 -19.369200 -45.520200
O -7.960000 -18.295900 -44.616000
N -7.912600 -20.146100 -48.578400
O -7.839900 -12.884400 -40.267300
N -7.815100 -13.928400 -41.175300
N -7.290000 -16.458900 -42.533300
C -7.157700 -21.829400 -47.099400
C -6.965000 -20.093400 -45.153800
N -6.952300 -13.100800 -39.241500
O -6.939700 -19.500500 -48.213200
C -6.915300 -14.755100 -40.739300
C -6.908100 -18.532500 -43.821200
C -6.635400 -17.538600 -42.788800
C -6.628200 -21.316000 -45.870700
O -6.603800 -16.570600 -38.396800
N -6.591200 -22.970300 -47.368500
C -6.578500 -15.977700 -41.456200
C -6.385800 -14.241700 -39.510600
N -6.253500 -19.612200 -44.076700
N -5.728400 -22.142700 -45.434700
O -5.703600 -23.186700 -46.342700
N -5.630900 -15.925000 -38.031600
O -5.583500 -17.775200 -41.994000
N -5.555100 -16.701900 -41.089800
N -5.361000 -14.737700 -38.701400
H -4.961400 -14.163900 -38.128600
O -4.845000 -16.225000 -37.159400
O -6.441300 -19.846100 -51.594400
H -6.324800 -21.907200 -52.563600
N -5.925300 -21.333400 -53.136400
N -5.731200 -19.369200 -55.524800
O -5.702700 -18.295900 -56.429000
N -5.655300 -20.146100 -52.466600
O -5.582600 -12.884400 -60.777700
N -5.557800 -13.928400 -59.869700
N -5.032800 -16.458900 -58.511700
C -4.900500 -21.829400 -53.945600
C -4.707700 -20.093400 -55.891200
N -4.695100 -13.100800 -61.803500
O -4.682400 -19.500500 -52.831800
C -4.658100 -14.755100 -60.305700
C -4.650800 -18.532500 -57.223800
C -4.378200 -17.538600 -58.256200
C -4.370900 -21.316000 -55.174300
O -4.346600 -16.570600 -62.648200
N -4.333900 -22.970300 -53.676500
C -4.321300 -15.977700 -59.588800
C -4.128500 -14.241700 -61.534400
N -3.996200 -19.612200 -56.968300
N -3.471200 -22.142700 -55.610300
O -3.446400 -23.186700 -54.702300
N -3.373700 -15.925000 -63.013400
O -3.326300 -17.775200 -59.051000
N -3.297800 -16.701900 -59.955200
N -3.103700 -14.737700 -62.343600
H -2.704200 -14.163900 -62.916400
O -2.587700 -16.225000 -63.885600
