32
Fragment
H -36.420900 -15.784700 -17.942400
H -36.075900 -14.252600 -19.630300
C -35.620300 -15.273700 -17.960900
C -35.415300 -14.369700 -18.956600
H -34.821100 -16.086500 -16.275400
C -34.657100 -15.453400 -16.964000
H -34.653700 -12.547600 -20.706900
C -34.225800 -13.599700 -18.998400
C -34.011900 -12.650000 -20.014400
C -33.472900 -14.739400 -16.947100
H -33.368500 -16.415900 -14.864700
C -33.237600 -13.778300 -17.981200
C -32.892400 -11.879000 -20.009900
H -32.768700 -11.223100 -20.686600
C -32.591700 -15.869800 -14.885600
C -32.454600 -14.931800 -15.901700
C -32.059300 -12.980800 -18.003800
C -31.922200 -12.042800 -19.019800
H -31.745200 -16.689500 -13.218800
C -31.621500 -16.033600 -13.895600
C -31.276300 -14.134300 -15.924300
H -31.145400 -11.496700 -19.040800
C -31.041000 -13.173200 -16.958400
C -30.502000 -15.262600 -13.891100
C -30.288100 -14.312900 -14.907100
H -29.860200 -15.365000 -13.198600
C -29.856800 -12.459200 -16.941400
H -29.692800 -11.826100 -17.630100
C -29.098600 -13.542900 -14.948900
C -28.893600 -12.638900 -15.944600
H -28.438000 -13.660000 -14.275200
H -28.093000 -12.128000 -15.963000
32
Fragment
H -41.893400 -11.107700 -23.185800
H -41.802900 -9.650800 -24.970800
C -41.145000 -10.533000 -23.289700
C -41.090600 -9.670500 -24.343000
H -40.616500 -7.897600 -26.247700
H -40.142900 -11.188900 -21.637500
C -40.095200 -10.572600 -22.358400
C -39.986500 -8.805000 -24.510300
C -39.916500 -7.911600 -25.605400
C -38.995900 -9.744800 -22.459000
C -38.925400 -8.831700 -23.559800
C -38.854300 -7.072400 -25.746700
H -38.823100 -6.468000 -26.479100
H -38.637800 -11.208500 -20.271500
C -37.900900 -10.619900 -20.390800
C -37.894000 -9.766000 -21.475700
C -37.813800 -7.951300 -23.731600
C -37.806900 -7.097400 -24.816600
H -37.070000 -6.508800 -24.935800
H -36.884700 -11.249300 -18.728300
C -36.853500 -10.644900 -19.460600
C -36.782400 -8.885600 -21.647500
C -36.711900 -7.972600 -22.748300
C -35.791200 -9.805700 -19.601900
C -35.721300 -8.912400 -20.697000
C -35.612600 -7.144700 -22.848900
H -35.564900 -6.528400 -23.569800
H -35.091300 -9.819700 -18.959600
C -34.617200 -8.046800 -20.864300
C -34.562800 -7.184400 -21.917600
H -33.904800 -8.066500 -20.236500
H -33.814400 -6.609600 -22.021500
64
Fragment
H -36.420900 -15.784700 -17.942400
H -36.075900 -14.252600 -19.630300
C -35.620300 -15.273700 -17.960900
C -35.415300 -14.369700 -18.956600
H -34.821100 -16.086500 -16.275400
C -34.657100 -15.453400 -16.964000
H -34.653700 -12.547600 -20.706900
C -34.225800 -13.599700 -18.998400
C -34.011900 -12.650000 -20.014400
C -33.472900 -14.739400 -16.947100
H -33.368500 -16.415900 -14.864700
C -33.237600 -13.778300 -17.981200
C -32.892400 -11.879000 -20.009900
H -32.768700 -11.223100 -20.686600
C -32.591700 -15.869800 -14.885600
C -32.454600 -14.931800 -15.901700
C -32.059300 -12.980800 -18.003800
C -31.922200 -12.042800 -19.019800
H -31.745200 -16.689500 -13.218800
C -31.621500 -16.033600 -13.895600
C -31.276300 -14.134300 -15.924300
H -31.145400 -11.496700 -19.040800
C -31.041000 -13.173200 -16.958400
C -30.502000 -15.262600 -13.891100
C -30.288100 -14.312900 -14.907100
H -29.860200 -15.365000 -13.198600
C -29.856800 -12.459200 -16.941400
H -29.692800 -11.826100 -17.630100
C -29.098600 -13.542900 -14.948900
C -28.893600 -12.638900 -15.944600
H -28.438000 -13.660000 -14.275200
H -28.093000 -12.128000 -15.963000
H -41.893400 -11.107700 -23.185800
H -41.802900 -9.650800 -24.970800
C -41.145000 -10.533000 -23.289700
C -41.090600 -9.670500 -24.343000
H -40.616500 -7.897600 -26.247700
H -40.142900 -11.188900 -21.637500
C -40.095200 -10.572600 -22.358400
C -39.986500 -8.805000 -24.510300
C -39.916500 -7.911600 -25.605400
C -38.995900 -9.744800 -22.459000
C -38.925400 -8.831700 -23.559800
C -38.854300 -7.072400 -25.746700
H -38.823100 -6.468000 -26.479100
H -38.637800 -11.208500 -20.271500
C -37.900900 -10.619900 -20.390800
C -37.894000 -9.766000 -21.475700
C -37.813800 -7.951300 -23.731600
C -37.806900 -7.097400 -24.816600
H -37.070000 -6.508800 -24.935800
H -36.884700 -11.249300 -18.728300
C -36.853500 -10.644900 -19.460600
C -36.782400 -8.885600 -21.647500
C -36.711900 -7.972600 -22.748300
C -35.791200 -9.805700 -19.601900
C -35.721300 -8.912400 -20.697000
C -35.612600 -7.144700 -22.848900
H -35.564900 -6.528400 -23.569800
H -35.091300 -9.819700 -18.959600
C -34.617200 -8.046800 -20.864300
C -34.562800 -7.184400 -21.917600
H -33.904800 -8.066500 -20.236500
H -33.814400 -6.609600 -22.021500
