32
Fragment
H -36.420900 -15.784700 -17.942400
H -36.075900 -14.252600 -19.630300
C -35.620300 -15.273700 -17.960900
C -35.415300 -14.369700 -18.956600
H -34.821100 -16.086500 -16.275400
C -34.657100 -15.453400 -16.964000
H -34.653700 -12.547600 -20.706900
C -34.225800 -13.599700 -18.998400
C -34.011900 -12.650000 -20.014400
C -33.472900 -14.739400 -16.947100
H -33.368500 -16.415900 -14.864700
C -33.237600 -13.778300 -17.981200
C -32.892400 -11.879000 -20.009900
H -32.768700 -11.223100 -20.686600
C -32.591700 -15.869800 -14.885600
C -32.454600 -14.931800 -15.901700
C -32.059300 -12.980800 -18.003800
C -31.922200 -12.042800 -19.019800
H -31.745200 -16.689500 -13.218800
C -31.621500 -16.033600 -13.895600
C -31.276300 -14.134300 -15.924300
H -31.145400 -11.496700 -19.040800
C -31.041000 -13.173200 -16.958400
C -30.502000 -15.262600 -13.891100
C -30.288100 -14.312900 -14.907100
H -29.860200 -15.365000 -13.198600
C -29.856800 -12.459200 -16.941400
H -29.692800 -11.826100 -17.630100
C -29.098600 -13.542900 -14.948900
C -28.893600 -12.638900 -15.944600
H -28.438000 -13.660000 -14.275200
H -28.093000 -12.128000 -15.963000
24
Fragment
N -40.405400 -13.652500 -25.053900
H -40.241800 -10.423700 -27.162900
H -40.051100 -11.993900 -27.406600
C -39.604500 -11.121800 -27.420500
C -39.531700 -12.922000 -25.183900
H -39.269300 -10.940900 -28.323800
C -38.454100 -11.132600 -26.453100
C -38.426500 -12.002500 -25.360200
H -38.172400 -13.539700 -23.294200
N -37.412300 -8.589600 -28.589100
H -37.403000 -12.436700 -22.426900
C -37.383400 -9.329200 -27.708700
C -37.381000 -12.963000 -23.253500
C -37.374600 -12.034900 -24.440200
C -37.370300 -10.258200 -26.600000
H -36.572500 -13.516500 -23.266600
C -36.312900 -11.152800 -24.656100
C -36.283600 -10.242300 -25.717300
H -35.355400 -8.643700 -26.598700
C -35.183400 -11.190300 -23.755300
C -35.130900 -9.298800 -25.906000
H -34.948600 -8.833900 -25.062700
H -34.336800 -9.804200 -26.178500
N -34.280600 -11.239600 -23.047800
56
Fragment
H -36.420900 -15.784700 -17.942400
H -36.075900 -14.252600 -19.630300
C -35.620300 -15.273700 -17.960900
C -35.415300 -14.369700 -18.956600
H -34.821100 -16.086500 -16.275400
C -34.657100 -15.453400 -16.964000
H -34.653700 -12.547600 -20.706900
C -34.225800 -13.599700 -18.998400
C -34.011900 -12.650000 -20.014400
C -33.472900 -14.739400 -16.947100
H -33.368500 -16.415900 -14.864700
C -33.237600 -13.778300 -17.981200
C -32.892400 -11.879000 -20.009900
H -32.768700 -11.223100 -20.686600
C -32.591700 -15.869800 -14.885600
C -32.454600 -14.931800 -15.901700
C -32.059300 -12.980800 -18.003800
C -31.922200 -12.042800 -19.019800
H -31.745200 -16.689500 -13.218800
C -31.621500 -16.033600 -13.895600
C -31.276300 -14.134300 -15.924300
H -31.145400 -11.496700 -19.040800
C -31.041000 -13.173200 -16.958400
C -30.502000 -15.262600 -13.891100
C -30.288100 -14.312900 -14.907100
H -29.860200 -15.365000 -13.198600
C -29.856800 -12.459200 -16.941400
H -29.692800 -11.826100 -17.630100
C -29.098600 -13.542900 -14.948900
C -28.893600 -12.638900 -15.944600
H -28.438000 -13.660000 -14.275200
H -28.093000 -12.128000 -15.963000
N -40.405400 -13.652500 -25.053900
H -40.241800 -10.423700 -27.162900
H -40.051100 -11.993900 -27.406600
C -39.604500 -11.121800 -27.420500
C -39.531700 -12.922000 -25.183900
H -39.269300 -10.940900 -28.323800
C -38.454100 -11.132600 -26.453100
C -38.426500 -12.002500 -25.360200
H -38.172400 -13.539700 -23.294200
N -37.412300 -8.589600 -28.589100
H -37.403000 -12.436700 -22.426900
C -37.383400 -9.329200 -27.708700
C -37.381000 -12.963000 -23.253500
C -37.374600 -12.034900 -24.440200
C -37.370300 -10.258200 -26.600000
H -36.572500 -13.516500 -23.266600
C -36.312900 -11.152800 -24.656100
C -36.283600 -10.242300 -25.717300
H -35.355400 -8.643700 -26.598700
C -35.183400 -11.190300 -23.755300
C -35.130900 -9.298800 -25.906000
H -34.948600 -8.833900 -25.062700
H -34.336800 -9.804200 -26.178500
N -34.280600 -11.239600 -23.047800
