32
Fragment
H -36.420900 -15.784700 -17.942400
H -36.075900 -14.252600 -19.630300
C -35.620300 -15.273700 -17.960900
C -35.415300 -14.369700 -18.956600
H -34.821100 -16.086500 -16.275400
C -34.657100 -15.453400 -16.964000
H -34.653700 -12.547600 -20.706900
C -34.225800 -13.599700 -18.998400
C -34.011900 -12.650000 -20.014400
C -33.472900 -14.739400 -16.947100
H -33.368500 -16.415900 -14.864700
C -33.237600 -13.778300 -17.981200
C -32.892400 -11.879000 -20.009900
H -32.768700 -11.223100 -20.686600
C -32.591700 -15.869800 -14.885600
C -32.454600 -14.931800 -15.901700
C -32.059300 -12.980800 -18.003800
C -31.922200 -12.042800 -19.019800
H -31.745200 -16.689500 -13.218800
C -31.621500 -16.033600 -13.895600
C -31.276300 -14.134300 -15.924300
H -31.145400 -11.496700 -19.040800
C -31.041000 -13.173200 -16.958400
C -30.502000 -15.262600 -13.891100
C -30.288100 -14.312900 -14.907100
H -29.860200 -15.365000 -13.198600
C -29.856800 -12.459200 -16.941400
H -29.692800 -11.826100 -17.630100
C -29.098600 -13.542900 -14.948900
C -28.893600 -12.638900 -15.944600
H -28.438000 -13.660000 -14.275200
H -28.093000 -12.128000 -15.963000
24
Fragment
N -36.005200 -14.098100 -13.752100
H -35.841600 -10.869300 -15.861100
H -35.650800 -12.439400 -16.104800
C -35.204200 -11.567400 -16.118700
C -35.131400 -13.367600 -13.882000
H -34.869000 -11.386500 -17.022000
C -34.053800 -11.578200 -15.151200
C -34.026200 -12.448100 -14.058300
H -33.772200 -13.985200 -11.992400
N -33.012100 -9.035100 -17.287300
H -33.002800 -12.882200 -11.125100
C -32.983100 -9.774700 -16.406900
C -32.980700 -13.408600 -11.951700
C -32.974300 -12.480400 -13.138400
C -32.970100 -10.703700 -15.298200
H -32.172200 -13.962000 -11.964800
C -31.912600 -11.598300 -13.354200
C -31.883300 -10.687800 -14.415500
H -30.955200 -9.089300 -15.296900
C -30.783200 -11.635800 -12.453500
C -30.730600 -9.744400 -14.604200
H -30.548300 -9.279400 -13.760900
H -29.936500 -10.249800 -14.876700
N -29.880300 -11.685100 -11.746000
56
Fragment
H -36.420900 -15.784700 -17.942400
H -36.075900 -14.252600 -19.630300
C -35.620300 -15.273700 -17.960900
C -35.415300 -14.369700 -18.956600
H -34.821100 -16.086500 -16.275400
C -34.657100 -15.453400 -16.964000
H -34.653700 -12.547600 -20.706900
C -34.225800 -13.599700 -18.998400
C -34.011900 -12.650000 -20.014400
C -33.472900 -14.739400 -16.947100
H -33.368500 -16.415900 -14.864700
C -33.237600 -13.778300 -17.981200
C -32.892400 -11.879000 -20.009900
H -32.768700 -11.223100 -20.686600
C -32.591700 -15.869800 -14.885600
C -32.454600 -14.931800 -15.901700
C -32.059300 -12.980800 -18.003800
C -31.922200 -12.042800 -19.019800
H -31.745200 -16.689500 -13.218800
C -31.621500 -16.033600 -13.895600
C -31.276300 -14.134300 -15.924300
H -31.145400 -11.496700 -19.040800
C -31.041000 -13.173200 -16.958400
C -30.502000 -15.262600 -13.891100
C -30.288100 -14.312900 -14.907100
H -29.860200 -15.365000 -13.198600
C -29.856800 -12.459200 -16.941400
H -29.692800 -11.826100 -17.630100
C -29.098600 -13.542900 -14.948900
C -28.893600 -12.638900 -15.944600
H -28.438000 -13.660000 -14.275200
H -28.093000 -12.128000 -15.963000
N -36.005200 -14.098100 -13.752100
H -35.841600 -10.869300 -15.861100
H -35.650800 -12.439400 -16.104800
C -35.204200 -11.567400 -16.118700
C -35.131400 -13.367600 -13.882000
H -34.869000 -11.386500 -17.022000
C -34.053800 -11.578200 -15.151200
C -34.026200 -12.448100 -14.058300
H -33.772200 -13.985200 -11.992400
N -33.012100 -9.035100 -17.287300
H -33.002800 -12.882200 -11.125100
C -32.983100 -9.774700 -16.406900
C -32.980700 -13.408600 -11.951700
C -32.974300 -12.480400 -13.138400
C -32.970100 -10.703700 -15.298200
H -32.172200 -13.962000 -11.964800
C -31.912600 -11.598300 -13.354200
C -31.883300 -10.687800 -14.415500
H -30.955200 -9.089300 -15.296900
C -30.783200 -11.635800 -12.453500
C -30.730600 -9.744400 -14.604200
H -30.548300 -9.279400 -13.760900
H -29.936500 -10.249800 -14.876700
N -29.880300 -11.685100 -11.746000
