32
Fragment
H -36.420900 -15.784700 -17.942400
H -36.075900 -14.252600 -19.630300
C -35.620300 -15.273700 -17.960900
C -35.415300 -14.369700 -18.956600
H -34.821100 -16.086500 -16.275400
C -34.657100 -15.453400 -16.964000
H -34.653700 -12.547600 -20.706900
C -34.225800 -13.599700 -18.998400
C -34.011900 -12.650000 -20.014400
C -33.472900 -14.739400 -16.947100
H -33.368500 -16.415900 -14.864700
C -33.237600 -13.778300 -17.981200
C -32.892400 -11.879000 -20.009900
H -32.768700 -11.223100 -20.686600
C -32.591700 -15.869800 -14.885600
C -32.454600 -14.931800 -15.901700
C -32.059300 -12.980800 -18.003800
C -31.922200 -12.042800 -19.019800
H -31.745200 -16.689500 -13.218800
C -31.621500 -16.033600 -13.895600
C -31.276300 -14.134300 -15.924300
H -31.145400 -11.496700 -19.040800
C -31.041000 -13.173200 -16.958400
C -30.502000 -15.262600 -13.891100
C -30.288100 -14.312900 -14.907100
H -29.860200 -15.365000 -13.198600
C -29.856800 -12.459200 -16.941400
H -29.692800 -11.826100 -17.630100
C -29.098600 -13.542900 -14.948900
C -28.893600 -12.638900 -15.944600
H -28.438000 -13.660000 -14.275200
H -28.093000 -12.128000 -15.963000
32
Fragment
H -30.699500 -21.303000 -11.884000
H -30.609000 -19.846100 -13.669000
C -29.951000 -20.728200 -11.987800
C -29.896700 -19.865800 -13.041200
H -29.422500 -18.092900 -14.945900
H -28.949000 -21.384200 -10.335600
C -28.901200 -20.767900 -11.056600
C -28.792600 -19.000200 -13.208400
C -28.722600 -18.106900 -14.303600
C -27.802000 -19.940100 -11.157200
C -27.731500 -19.027000 -12.258000
C -27.660400 -17.267700 -14.444900
H -27.629200 -16.663300 -15.177200
H -27.443900 -21.403800 -8.969700
C -26.707000 -20.815200 -9.088900
C -26.700100 -19.961300 -10.173900
C -26.619800 -18.146600 -12.429700
C -26.613000 -17.292700 -13.514700
H -25.876100 -16.704100 -13.634000
H -25.690800 -21.444600 -7.426400
C -25.659600 -20.840200 -8.158800
C -25.588500 -19.080900 -10.345700
C -25.518000 -18.167800 -11.446500
C -24.597300 -20.001000 -8.300100
C -24.527400 -19.107700 -9.395200
C -24.418700 -17.340000 -11.547100
H -24.370900 -16.723700 -12.268000
H -23.897400 -20.015000 -7.657800
C -23.423300 -18.242100 -9.562500
C -23.368900 -17.379700 -10.615800
H -22.710900 -18.261800 -8.934700
H -22.620400 -16.804900 -10.719700
64
Fragment
H -36.420900 -15.784700 -17.942400
H -36.075900 -14.252600 -19.630300
C -35.620300 -15.273700 -17.960900
C -35.415300 -14.369700 -18.956600
H -34.821100 -16.086500 -16.275400
C -34.657100 -15.453400 -16.964000
H -34.653700 -12.547600 -20.706900
C -34.225800 -13.599700 -18.998400
C -34.011900 -12.650000 -20.014400
C -33.472900 -14.739400 -16.947100
H -33.368500 -16.415900 -14.864700
C -33.237600 -13.778300 -17.981200
C -32.892400 -11.879000 -20.009900
H -32.768700 -11.223100 -20.686600
C -32.591700 -15.869800 -14.885600
C -32.454600 -14.931800 -15.901700
C -32.059300 -12.980800 -18.003800
C -31.922200 -12.042800 -19.019800
H -31.745200 -16.689500 -13.218800
C -31.621500 -16.033600 -13.895600
C -31.276300 -14.134300 -15.924300
H -31.145400 -11.496700 -19.040800
C -31.041000 -13.173200 -16.958400
C -30.502000 -15.262600 -13.891100
C -30.288100 -14.312900 -14.907100
H -29.860200 -15.365000 -13.198600
C -29.856800 -12.459200 -16.941400
H -29.692800 -11.826100 -17.630100
C -29.098600 -13.542900 -14.948900
C -28.893600 -12.638900 -15.944600
H -28.438000 -13.660000 -14.275200
H -28.093000 -12.128000 -15.963000
H -30.699500 -21.303000 -11.884000
H -30.609000 -19.846100 -13.669000
C -29.951000 -20.728200 -11.987800
C -29.896700 -19.865800 -13.041200
H -29.422500 -18.092900 -14.945900
H -28.949000 -21.384200 -10.335600
C -28.901200 -20.767900 -11.056600
C -28.792600 -19.000200 -13.208400
C -28.722600 -18.106900 -14.303600
C -27.802000 -19.940100 -11.157200
C -27.731500 -19.027000 -12.258000
C -27.660400 -17.267700 -14.444900
H -27.629200 -16.663300 -15.177200
H -27.443900 -21.403800 -8.969700
C -26.707000 -20.815200 -9.088900
C -26.700100 -19.961300 -10.173900
C -26.619800 -18.146600 -12.429700
C -26.613000 -17.292700 -13.514700
H -25.876100 -16.704100 -13.634000
H -25.690800 -21.444600 -7.426400
C -25.659600 -20.840200 -8.158800
C -25.588500 -19.080900 -10.345700
C -25.518000 -18.167800 -11.446500
C -24.597300 -20.001000 -8.300100
C -24.527400 -19.107700 -9.395200
C -24.418700 -17.340000 -11.547100
H -24.370900 -16.723700 -12.268000
H -23.897400 -20.015000 -7.657800
C -23.423300 -18.242100 -9.562500
C -23.368900 -17.379700 -10.615800
H -22.710900 -18.261800 -8.934700
H -22.620400 -16.804900 -10.719700
