20
Fragment
H -13.874100 -15.740100 -34.036700
N -13.101000 -15.657800 -33.669900
O -12.941100 -17.873500 -33.220200
H -12.729500 -14.884000 -33.616500
C -12.481500 -16.723700 -33.186500
C -11.156400 -16.490200 -32.580900
N -10.646500 -15.222900 -32.386700
C -10.246700 -17.430500 -32.150600
N -10.242400 -18.803500 -32.123800
C -9.473400 -15.376500 -31.837900
N -9.222300 -19.401300 -31.661300
N -9.169400 -16.698200 -31.675500
H -8.915300 -14.675200 -31.588400
N -8.145500 -18.670600 -31.183400
C -8.046700 -17.298400 -31.110700
H -7.308100 -20.403700 -30.640400
O -7.127400 -16.690400 -30.631000
C -7.048400 -19.479000 -30.650300
H -6.846500 -19.194500 -29.757300
H -6.272300 -19.370400 -31.204700
30
Fragment
H -24.780000 -17.842400 -39.578900
C -23.964300 -17.706100 -39.154000
H -23.897600 -15.709900 -39.408400
H -23.629400 -19.632900 -38.665400
C -23.432100 -16.433400 -39.053100
C -23.268900 -18.777200 -38.614600
C -22.211500 -16.225400 -38.428000
C -22.047800 -18.585500 -38.001500
H -21.866500 -15.365000 -38.360900
H -21.586000 -19.314100 -37.654400
C -21.498100 -17.303800 -37.898800
C -20.198100 -17.085200 -37.234800
O -19.820000 -15.778700 -37.295900
H -19.719600 -18.900500 -36.610900
C -19.430500 -18.016100 -36.625900
H -18.878700 -13.450900 -37.315300
C -18.632800 -15.375100 -36.734700
C -18.302700 -14.041700 -36.885200
C -18.183100 -17.680700 -36.003300
C -17.807100 -16.287400 -36.066400
O -17.450600 -18.527700 -35.431400
H -17.211200 -11.881700 -36.852500
C -17.081000 -13.608200 -36.372800
O -16.638400 -12.339800 -36.485200
C -16.590600 -15.811100 -35.535100
C -16.222600 -14.486800 -35.689800
H -16.003500 -17.405500 -34.925900
O -15.737800 -16.631000 -34.870900
O -15.025900 -14.095500 -35.168300
H -14.858100 -13.331300 -35.413100
50
Fragment
H -13.874100 -15.740100 -34.036700
N -13.101000 -15.657800 -33.669900
O -12.941100 -17.873500 -33.220200
H -12.729500 -14.884000 -33.616500
C -12.481500 -16.723700 -33.186500
C -11.156400 -16.490200 -32.580900
N -10.646500 -15.222900 -32.386700
C -10.246700 -17.430500 -32.150600
N -10.242400 -18.803500 -32.123800
C -9.473400 -15.376500 -31.837900
N -9.222300 -19.401300 -31.661300
N -9.169400 -16.698200 -31.675500
H -8.915300 -14.675200 -31.588400
N -8.145500 -18.670600 -31.183400
C -8.046700 -17.298400 -31.110700
H -7.308100 -20.403700 -30.640400
O -7.127400 -16.690400 -30.631000
C -7.048400 -19.479000 -30.650300
H -6.846500 -19.194500 -29.757300
H -6.272300 -19.370400 -31.204700
H -24.780000 -17.842400 -39.578900
C -23.964300 -17.706100 -39.154000
H -23.897600 -15.709900 -39.408400
H -23.629400 -19.632900 -38.665400
C -23.432100 -16.433400 -39.053100
C -23.268900 -18.777200 -38.614600
C -22.211500 -16.225400 -38.428000
C -22.047800 -18.585500 -38.001500
H -21.866500 -15.365000 -38.360900
H -21.586000 -19.314100 -37.654400
C -21.498100 -17.303800 -37.898800
C -20.198100 -17.085200 -37.234800
O -19.820000 -15.778700 -37.295900
H -19.719600 -18.900500 -36.610900
C -19.430500 -18.016100 -36.625900
H -18.878700 -13.450900 -37.315300
C -18.632800 -15.375100 -36.734700
C -18.302700 -14.041700 -36.885200
C -18.183100 -17.680700 -36.003300
C -17.807100 -16.287400 -36.066400
O -17.450600 -18.527700 -35.431400
H -17.211200 -11.881700 -36.852500
C -17.081000 -13.608200 -36.372800
O -16.638400 -12.339800 -36.485200
C -16.590600 -15.811100 -35.535100
C -16.222600 -14.486800 -35.689800
H -16.003500 -17.405500 -34.925900
O -15.737800 -16.631000 -34.870900
O -15.025900 -14.095500 -35.168300
H -14.858100 -13.331300 -35.413100
