20
Fragment
H -13.874100 -15.740100 -34.036700
N -13.101000 -15.657800 -33.669900
O -12.941100 -17.873500 -33.220200
H -12.729500 -14.884000 -33.616500
C -12.481500 -16.723700 -33.186500
C -11.156400 -16.490200 -32.580900
N -10.646500 -15.222900 -32.386700
C -10.246700 -17.430500 -32.150600
N -10.242400 -18.803500 -32.123800
C -9.473400 -15.376500 -31.837900
N -9.222300 -19.401300 -31.661300
N -9.169400 -16.698200 -31.675500
H -8.915300 -14.675200 -31.588400
N -8.145500 -18.670600 -31.183400
C -8.046700 -17.298400 -31.110700
H -7.308100 -20.403700 -30.640400
O -7.127400 -16.690400 -30.631000
C -7.048400 -19.479000 -30.650300
H -6.846500 -19.194500 -29.757300
H -6.272300 -19.370400 -31.204700
20
Fragment
H -6.742800 -15.740100 -34.036700
N -5.969700 -15.657800 -33.669900
O -5.809900 -17.873500 -33.220200
H -5.598300 -14.884000 -33.616500
C -5.350200 -16.723700 -33.186500
C -4.025200 -16.490200 -32.580900
N -3.515200 -15.222900 -32.386700
C -3.115400 -17.430500 -32.150600
N -3.111200 -18.803500 -32.123800
C -2.342200 -15.376500 -31.837900
N -2.091100 -19.401300 -31.661300
N -2.038200 -16.698200 -31.675500
H -1.784100 -14.675200 -31.588400
N -1.014300 -18.670600 -31.183400
C -0.915500 -17.298400 -31.110700
H -0.176900 -20.403700 -30.640400
O 0.003900 -16.690400 -30.631000
C 0.082900 -19.479000 -30.650300
H 0.284800 -19.194500 -29.757300
H 0.859000 -19.370400 -31.204700
40
Fragment
H -13.874100 -15.740100 -34.036700
N -13.101000 -15.657800 -33.669900
O -12.941100 -17.873500 -33.220200
H -12.729500 -14.884000 -33.616500
C -12.481500 -16.723700 -33.186500
C -11.156400 -16.490200 -32.580900
N -10.646500 -15.222900 -32.386700
C -10.246700 -17.430500 -32.150600
N -10.242400 -18.803500 -32.123800
C -9.473400 -15.376500 -31.837900
N -9.222300 -19.401300 -31.661300
N -9.169400 -16.698200 -31.675500
H -8.915300 -14.675200 -31.588400
N -8.145500 -18.670600 -31.183400
C -8.046700 -17.298400 -31.110700
H -7.308100 -20.403700 -30.640400
O -7.127400 -16.690400 -30.631000
C -7.048400 -19.479000 -30.650300
H -6.846500 -19.194500 -29.757300
H -6.272300 -19.370400 -31.204700
H -6.742800 -15.740100 -34.036700
N -5.969700 -15.657800 -33.669900
O -5.809900 -17.873500 -33.220200
H -5.598300 -14.884000 -33.616500
C -5.350200 -16.723700 -33.186500
C -4.025200 -16.490200 -32.580900
N -3.515200 -15.222900 -32.386700
C -3.115400 -17.430500 -32.150600
N -3.111200 -18.803500 -32.123800
C -2.342200 -15.376500 -31.837900
N -2.091100 -19.401300 -31.661300
N -2.038200 -16.698200 -31.675500
H -1.784100 -14.675200 -31.588400
N -1.014300 -18.670600 -31.183400
C -0.915500 -17.298400 -31.110700
H -0.176900 -20.403700 -30.640400
O 0.003900 -16.690400 -30.631000
C 0.082900 -19.479000 -30.650300
H 0.284800 -19.194500 -29.757300
H 0.859000 -19.370400 -31.204700
