20
Fragment
H -13.874100 -15.740100 -34.036700
N -13.101000 -15.657800 -33.669900
O -12.941100 -17.873500 -33.220200
H -12.729500 -14.884000 -33.616500
C -12.481500 -16.723700 -33.186500
C -11.156400 -16.490200 -32.580900
N -10.646500 -15.222900 -32.386700
C -10.246700 -17.430500 -32.150600
N -10.242400 -18.803500 -32.123800
C -9.473400 -15.376500 -31.837900
N -9.222300 -19.401300 -31.661300
N -9.169400 -16.698200 -31.675500
H -8.915300 -14.675200 -31.588400
N -8.145500 -18.670600 -31.183400
C -8.046700 -17.298400 -31.110700
H -7.308100 -20.403700 -30.640400
O -7.127400 -16.690400 -30.631000
C -7.048400 -19.479000 -30.650300
H -6.846500 -19.194500 -29.757300
H -6.272300 -19.370400 -31.204700
30
Fragment
H -16.475900 -20.201700 -35.640500
O -16.308100 -20.965900 -35.885300
O -15.596200 -23.501400 -36.182800
H -15.330500 -24.275900 -36.127700
C -15.111400 -21.357200 -35.363800
C -14.743400 -22.681500 -35.518500
O -14.695500 -19.210200 -34.568400
C -14.253000 -20.478600 -34.680900
H -14.122800 -18.752100 -34.201200
O -13.883300 -25.398100 -35.622200
C -13.526900 -23.157800 -34.987200
C -13.150900 -24.551100 -35.050400
C -13.031300 -20.912100 -34.168500
C -12.701100 -22.245500 -34.318900
H -12.455300 -20.321300 -33.738300
C -11.903400 -24.886500 -34.427700
H -11.614300 -25.770900 -34.442800
O -11.514000 -22.649100 -33.757800
C -11.135800 -23.955600 -33.818900
C -9.835900 -24.174200 -33.154900
H -9.748000 -26.184500 -33.399300
H -9.467500 -22.235400 -32.692800
C -9.286200 -25.455900 -33.052100
C -9.122500 -23.095800 -32.625600
C -8.065100 -25.647600 -32.439000
C -7.901800 -23.303800 -32.000500
H -7.704600 -26.503300 -32.388300
H -7.436400 -22.580300 -31.645300
C -7.369700 -24.576500 -31.899600
H -6.553900 -24.712800 -31.474700
50
Fragment
H -13.874100 -15.740100 -34.036700
N -13.101000 -15.657800 -33.669900
O -12.941100 -17.873500 -33.220200
H -12.729500 -14.884000 -33.616500
C -12.481500 -16.723700 -33.186500
C -11.156400 -16.490200 -32.580900
N -10.646500 -15.222900 -32.386700
C -10.246700 -17.430500 -32.150600
N -10.242400 -18.803500 -32.123800
C -9.473400 -15.376500 -31.837900
N -9.222300 -19.401300 -31.661300
N -9.169400 -16.698200 -31.675500
H -8.915300 -14.675200 -31.588400
N -8.145500 -18.670600 -31.183400
C -8.046700 -17.298400 -31.110700
H -7.308100 -20.403700 -30.640400
O -7.127400 -16.690400 -30.631000
C -7.048400 -19.479000 -30.650300
H -6.846500 -19.194500 -29.757300
H -6.272300 -19.370400 -31.204700
H -16.475900 -20.201700 -35.640500
O -16.308100 -20.965900 -35.885300
O -15.596200 -23.501400 -36.182800
H -15.330500 -24.275900 -36.127700
C -15.111400 -21.357200 -35.363800
C -14.743400 -22.681500 -35.518500
O -14.695500 -19.210200 -34.568400
C -14.253000 -20.478600 -34.680900
H -14.122800 -18.752100 -34.201200
O -13.883300 -25.398100 -35.622200
C -13.526900 -23.157800 -34.987200
C -13.150900 -24.551100 -35.050400
C -13.031300 -20.912100 -34.168500
C -12.701100 -22.245500 -34.318900
H -12.455300 -20.321300 -33.738300
C -11.903400 -24.886500 -34.427700
H -11.614300 -25.770900 -34.442800
O -11.514000 -22.649100 -33.757800
C -11.135800 -23.955600 -33.818900
C -9.835900 -24.174200 -33.154900
H -9.748000 -26.184500 -33.399300
H -9.467500 -22.235400 -32.692800
C -9.286200 -25.455900 -33.052100
C -9.122500 -23.095800 -32.625600
C -8.065100 -25.647600 -32.439000
C -7.901800 -23.303800 -32.000500
H -7.704600 -26.503300 -32.388300
H -7.436400 -22.580300 -31.645300
C -7.369700 -24.576500 -31.899600
H -6.553900 -24.712800 -31.474700
