20
Fragment
H -13.874100 -15.740100 -34.036700
N -13.101000 -15.657800 -33.669900
O -12.941100 -17.873500 -33.220200
H -12.729500 -14.884000 -33.616500
C -12.481500 -16.723700 -33.186500
C -11.156400 -16.490200 -32.580900
N -10.646500 -15.222900 -32.386700
C -10.246700 -17.430500 -32.150600
N -10.242400 -18.803500 -32.123800
C -9.473400 -15.376500 -31.837900
N -9.222300 -19.401300 -31.661300
N -9.169400 -16.698200 -31.675500
H -8.915300 -14.675200 -31.588400
N -8.145500 -18.670600 -31.183400
C -8.046700 -17.298400 -31.110700
H -7.308100 -20.403700 -30.640400
O -7.127400 -16.690400 -30.631000
C -7.048400 -19.479000 -30.650300
H -6.846500 -19.194500 -29.757300
H -6.272300 -19.370400 -31.204700
30
Fragment
H -5.022500 -16.509600 -29.428400
C -4.206800 -16.645900 -29.003500
H -4.140100 -18.642100 -29.257900
H -3.871900 -14.719100 -28.514800
C -3.674600 -17.918600 -28.902600
C -3.511400 -15.574800 -28.464100
C -2.454000 -18.126600 -28.277500
C -2.290200 -15.766500 -27.851000
H -2.108900 -18.987000 -28.210300
H -1.828500 -15.037900 -27.503900
C -1.740600 -17.048200 -27.748300
C -0.440600 -17.266800 -27.084200
O -0.062400 -18.573300 -27.145300
H 0.037900 -15.451500 -26.460400
C 0.327000 -16.335900 -26.475400
H 0.878800 -20.901100 -27.164800
C 1.124700 -18.976900 -26.584200
C 1.454800 -20.310300 -26.734600
C 1.574400 -16.671300 -25.852800
C 1.950400 -18.064600 -25.915900
O 2.306900 -15.824300 -25.280900
H 2.546400 -22.470300 -26.702000
C 2.676600 -20.743800 -26.222200
O 3.119100 -22.012200 -26.334700
C 3.166900 -18.540900 -25.384600
C 3.534900 -19.865200 -25.539300
H 3.754000 -16.946500 -24.775400
O 4.019700 -17.721000 -24.720400
O 4.731600 -20.256500 -25.017800
H 4.899400 -21.020700 -25.262600
50
Fragment
H -13.874100 -15.740100 -34.036700
N -13.101000 -15.657800 -33.669900
O -12.941100 -17.873500 -33.220200
H -12.729500 -14.884000 -33.616500
C -12.481500 -16.723700 -33.186500
C -11.156400 -16.490200 -32.580900
N -10.646500 -15.222900 -32.386700
C -10.246700 -17.430500 -32.150600
N -10.242400 -18.803500 -32.123800
C -9.473400 -15.376500 -31.837900
N -9.222300 -19.401300 -31.661300
N -9.169400 -16.698200 -31.675500
H -8.915300 -14.675200 -31.588400
N -8.145500 -18.670600 -31.183400
C -8.046700 -17.298400 -31.110700
H -7.308100 -20.403700 -30.640400
O -7.127400 -16.690400 -30.631000
C -7.048400 -19.479000 -30.650300
H -6.846500 -19.194500 -29.757300
H -6.272300 -19.370400 -31.204700
H -5.022500 -16.509600 -29.428400
C -4.206800 -16.645900 -29.003500
H -4.140100 -18.642100 -29.257900
H -3.871900 -14.719100 -28.514800
C -3.674600 -17.918600 -28.902600
C -3.511400 -15.574800 -28.464100
C -2.454000 -18.126600 -28.277500
C -2.290200 -15.766500 -27.851000
H -2.108900 -18.987000 -28.210300
H -1.828500 -15.037900 -27.503900
C -1.740600 -17.048200 -27.748300
C -0.440600 -17.266800 -27.084200
O -0.062400 -18.573300 -27.145300
H 0.037900 -15.451500 -26.460400
C 0.327000 -16.335900 -26.475400
H 0.878800 -20.901100 -27.164800
C 1.124700 -18.976900 -26.584200
C 1.454800 -20.310300 -26.734600
C 1.574400 -16.671300 -25.852800
C 1.950400 -18.064600 -25.915900
O 2.306900 -15.824300 -25.280900
H 2.546400 -22.470300 -26.702000
C 2.676600 -20.743800 -26.222200
O 3.119100 -22.012200 -26.334700
C 3.166900 -18.540900 -25.384600
C 3.534900 -19.865200 -25.539300
H 3.754000 -16.946500 -24.775400
O 4.019700 -17.721000 -24.720400
O 4.731600 -20.256500 -25.017800
H 4.899400 -21.020700 -25.262600
