28
Fragment
O -13.626300 -16.743500 -34.912800
O -13.214300 -11.667700 -29.528600
H -13.160500 -13.589500 -30.705300
N -13.041100 -13.495300 -31.559000
H -12.897400 -14.275900 -31.906500
N -12.481200 -16.660800 -35.281200
N -12.107400 -11.233300 -29.812500
N -12.041900 -14.734200 -33.914900
N -11.941800 -12.663600 -31.811300
O -11.841000 -17.546600 -35.822100
C -11.788600 -15.403800 -35.042100
C -11.553700 -11.565300 -31.081900
O -11.442500 -10.520000 -29.085100
C -11.203100 -13.684300 -33.936700
C -11.159300 -12.677200 -32.920500
O -10.920000 -15.841500 -37.772100
C -10.808700 -14.796200 -35.775300
C -10.573900 -10.957700 -31.815100
O -10.521500 -8.814900 -31.035100
N -10.420600 -13.697900 -35.045900
N -10.320600 -11.627300 -32.942300
N -10.255000 -15.128200 -37.044700
N -9.881300 -9.700700 -31.576000
H -9.465100 -12.085600 -34.950700
N -9.321300 -12.866200 -35.298100
H -9.202000 -12.772000 -36.151900
O -9.148100 -14.693800 -37.328600
O -8.736100 -9.618000 -31.944400
21
Fragment
O -9.735900 -14.617500 -40.635800
O -8.810900 -18.483800 -37.926300
H -8.768200 -16.407700 -39.202800
N -8.571400 -14.650400 -41.001300
C -8.158000 -16.696900 -39.842400
O -7.973600 -13.674900 -41.391300
C -7.861600 -15.927800 -40.952300
N -7.818700 -18.736100 -38.558800
H -7.615400 -15.025500 -43.434900
C -7.514900 -17.908400 -39.722100
O -7.050300 -19.641600 -38.295800
C -7.005300 -16.314700 -41.984100
C -6.821400 -15.533300 -43.254400
H -6.655500 -16.138100 -43.980900
C -6.620200 -18.354400 -40.667000
C -6.405100 -17.556500 -41.770100
H -6.176700 -19.165400 -40.564500
H -6.074900 -14.936200 -43.156300
O -5.768700 -19.215800 -43.234300
N -5.506000 -18.115300 -42.790200
O -4.546600 -17.438500 -43.127600
49
Fragment
O -13.626300 -16.743500 -34.912800
O -13.214300 -11.667700 -29.528600
H -13.160500 -13.589500 -30.705300
N -13.041100 -13.495300 -31.559000
H -12.897400 -14.275900 -31.906500
N -12.481200 -16.660800 -35.281200
N -12.107400 -11.233300 -29.812500
N -12.041900 -14.734200 -33.914900
N -11.941800 -12.663600 -31.811300
O -11.841000 -17.546600 -35.822100
C -11.788600 -15.403800 -35.042100
C -11.553700 -11.565300 -31.081900
O -11.442500 -10.520000 -29.085100
C -11.203100 -13.684300 -33.936700
C -11.159300 -12.677200 -32.920500
O -10.920000 -15.841500 -37.772100
C -10.808700 -14.796200 -35.775300
C -10.573900 -10.957700 -31.815100
O -10.521500 -8.814900 -31.035100
N -10.420600 -13.697900 -35.045900
N -10.320600 -11.627300 -32.942300
N -10.255000 -15.128200 -37.044700
N -9.881300 -9.700700 -31.576000
H -9.465100 -12.085600 -34.950700
N -9.321300 -12.866200 -35.298100
H -9.202000 -12.772000 -36.151900
O -9.148100 -14.693800 -37.328600
O -8.736100 -9.618000 -31.944400
O -9.735900 -14.617500 -40.635800
O -8.810900 -18.483800 -37.926300
H -8.768200 -16.407700 -39.202800
N -8.571400 -14.650400 -41.001300
C -8.158000 -16.696900 -39.842400
O -7.973600 -13.674900 -41.391300
C -7.861600 -15.927800 -40.952300
N -7.818700 -18.736100 -38.558800
H -7.615400 -15.025500 -43.434900
C -7.514900 -17.908400 -39.722100
O -7.050300 -19.641600 -38.295800
C -7.005300 -16.314700 -41.984100
C -6.821400 -15.533300 -43.254400
H -6.655500 -16.138100 -43.980900
C -6.620200 -18.354400 -40.667000
C -6.405100 -17.556500 -41.770100
H -6.176700 -19.165400 -40.564500
H -6.074900 -14.936200 -43.156300
O -5.768700 -19.215800 -43.234300
N -5.506000 -18.115300 -42.790200
O -4.546600 -17.438500 -43.127600
