28
Fragment
O -13.626300 -16.743500 -34.912800
O -13.214300 -11.667700 -29.528600
H -13.160500 -13.589500 -30.705300
N -13.041100 -13.495300 -31.559000
H -12.897400 -14.275900 -31.906500
N -12.481200 -16.660800 -35.281200
N -12.107400 -11.233300 -29.812500
N -12.041900 -14.734200 -33.914900
N -11.941800 -12.663600 -31.811300
O -11.841000 -17.546600 -35.822100
C -11.788600 -15.403800 -35.042100
C -11.553700 -11.565300 -31.081900
O -11.442500 -10.520000 -29.085100
C -11.203100 -13.684300 -33.936700
C -11.159300 -12.677200 -32.920500
O -10.920000 -15.841500 -37.772100
C -10.808700 -14.796200 -35.775300
C -10.573900 -10.957700 -31.815100
O -10.521500 -8.814900 -31.035100
N -10.420600 -13.697900 -35.045900
N -10.320600 -11.627300 -32.942300
N -10.255000 -15.128200 -37.044700
N -9.881300 -9.700700 -31.576000
H -9.465100 -12.085600 -34.950700
N -9.321300 -12.866200 -35.298100
H -9.202000 -12.772000 -36.151900
O -9.148100 -14.693800 -37.328600
O -8.736100 -9.618000 -31.944400
21
Fragment
O -12.883400 -8.923000 -23.729600
N -11.924000 -8.246200 -24.067000
O -11.661300 -7.145700 -23.622900
H -11.355000 -11.425300 -23.700900
H -11.253300 -7.196100 -26.292700
C -11.024800 -8.805000 -25.087000
C -10.809700 -8.007100 -26.190200
H -10.774500 -10.223400 -22.876300
C -10.608500 -10.828200 -23.602800
C -10.424700 -10.046800 -24.873100
O -10.379600 -6.719900 -28.561400
C -9.915000 -8.453100 -27.135100
H -9.814600 -11.336000 -23.422300
N -9.611300 -7.625400 -28.298400
C -9.568400 -10.433700 -25.904900
O -9.456400 -12.686600 -25.465900
C -9.272000 -9.664600 -27.014800
N -8.858500 -11.711100 -25.855900
H -8.661800 -9.953800 -27.654400
O -8.619100 -7.877600 -28.930900
O -7.694000 -11.744000 -26.221400
49
Fragment
O -13.626300 -16.743500 -34.912800
O -13.214300 -11.667700 -29.528600
H -13.160500 -13.589500 -30.705300
N -13.041100 -13.495300 -31.559000
H -12.897400 -14.275900 -31.906500
N -12.481200 -16.660800 -35.281200
N -12.107400 -11.233300 -29.812500
N -12.041900 -14.734200 -33.914900
N -11.941800 -12.663600 -31.811300
O -11.841000 -17.546600 -35.822100
C -11.788600 -15.403800 -35.042100
C -11.553700 -11.565300 -31.081900
O -11.442500 -10.520000 -29.085100
C -11.203100 -13.684300 -33.936700
C -11.159300 -12.677200 -32.920500
O -10.920000 -15.841500 -37.772100
C -10.808700 -14.796200 -35.775300
C -10.573900 -10.957700 -31.815100
O -10.521500 -8.814900 -31.035100
N -10.420600 -13.697900 -35.045900
N -10.320600 -11.627300 -32.942300
N -10.255000 -15.128200 -37.044700
N -9.881300 -9.700700 -31.576000
H -9.465100 -12.085600 -34.950700
N -9.321300 -12.866200 -35.298100
H -9.202000 -12.772000 -36.151900
O -9.148100 -14.693800 -37.328600
O -8.736100 -9.618000 -31.944400
O -12.883400 -8.923000 -23.729600
N -11.924000 -8.246200 -24.067000
O -11.661300 -7.145700 -23.622900
H -11.355000 -11.425300 -23.700900
H -11.253300 -7.196100 -26.292700
C -11.024800 -8.805000 -25.087000
C -10.809700 -8.007100 -26.190200
H -10.774500 -10.223400 -22.876300
C -10.608500 -10.828200 -23.602800
C -10.424700 -10.046800 -24.873100
O -10.379600 -6.719900 -28.561400
C -9.915000 -8.453100 -27.135100
H -9.814600 -11.336000 -23.422300
N -9.611300 -7.625400 -28.298400
C -9.568400 -10.433700 -25.904900
O -9.456400 -12.686600 -25.465900
C -9.272000 -9.664600 -27.014800
N -8.858500 -11.711100 -25.855900
H -8.661800 -9.953800 -27.654400
O -8.619100 -7.877600 -28.930900
O -7.694000 -11.744000 -26.221400
