17
Fragment
N -18.942700 -9.199900 -13.650400
N -18.735500 -9.817500 -14.842200
H -18.359400 -12.499000 -15.850000
N -17.991700 -9.488600 -12.812200
O -17.914600 -12.114400 -16.449700
C -17.610600 -10.491500 -14.702000
H -17.551800 -10.576200 -18.424500
N -17.142900 -10.298600 -13.471800
C -16.964300 -11.358400 -15.769800
N -16.785700 -10.298600 -18.067800
H -16.376800 -10.576200 -13.115100
C -16.318000 -10.491500 -16.837700
O -16.014000 -12.114400 -15.089900
N -15.936900 -9.488600 -18.727400
H -15.569200 -12.499000 -15.689600
N -15.193100 -9.817500 -16.697400
N -14.985800 -9.199900 -17.889300
17
Fragment
N -19.132400 -7.585100 -9.144700
N -18.925100 -6.967500 -10.336500
H -18.549000 -4.286000 -11.344400
N -18.181300 -7.296400 -8.306500
O -18.104200 -4.670600 -11.944100
C -17.800200 -6.293500 -10.196300
H -17.741400 -6.208800 -13.918900
N -17.332500 -6.486400 -8.966200
C -17.153900 -5.426600 -11.264200
N -16.975300 -6.486400 -13.562100
H -16.566400 -6.208800 -8.609400
C -16.507600 -6.293500 -12.332000
O -16.203600 -4.670600 -10.584200
N -16.126500 -7.296400 -14.221800
H -15.758800 -4.286000 -11.184000
N -15.382800 -6.967500 -12.191800
N -15.175500 -7.585100 -13.383600
34
Fragment
N -18.942700 -9.199900 -13.650400
N -18.735500 -9.817500 -14.842200
H -18.359400 -12.499000 -15.850000
N -17.991700 -9.488600 -12.812200
O -17.914600 -12.114400 -16.449700
C -17.610600 -10.491500 -14.702000
H -17.551800 -10.576200 -18.424500
N -17.142900 -10.298600 -13.471800
C -16.964300 -11.358400 -15.769800
N -16.785700 -10.298600 -18.067800
H -16.376800 -10.576200 -13.115100
C -16.318000 -10.491500 -16.837700
O -16.014000 -12.114400 -15.089900
N -15.936900 -9.488600 -18.727400
H -15.569200 -12.499000 -15.689600
N -15.193100 -9.817500 -16.697400
N -14.985800 -9.199900 -17.889300
N -19.132400 -7.585100 -9.144700
N -18.925100 -6.967500 -10.336500
H -18.549000 -4.286000 -11.344400
N -18.181300 -7.296400 -8.306500
O -18.104200 -4.670600 -11.944100
C -17.800200 -6.293500 -10.196300
H -17.741400 -6.208800 -13.918900
N -17.332500 -6.486400 -8.966200
C -17.153900 -5.426600 -11.264200
N -16.975300 -6.486400 -13.562100
H -16.566400 -6.208800 -8.609400
C -16.507600 -6.293500 -12.332000
O -16.203600 -4.670600 -10.584200
N -16.126500 -7.296400 -14.221800
H -15.758800 -4.286000 -11.184000
N -15.382800 -6.967500 -12.191800
N -15.175500 -7.585100 -13.383600
