28
Fragment
O -13.626300 -16.743500 -34.912800
O -13.214300 -11.667700 -29.528600
H -13.160500 -13.589500 -30.705300
N -13.041100 -13.495300 -31.559000
H -12.897400 -14.275900 -31.906500
N -12.481200 -16.660800 -35.281200
N -12.107400 -11.233300 -29.812500
N -12.041900 -14.734200 -33.914900
N -11.941800 -12.663600 -31.811300
O -11.841000 -17.546600 -35.822100
C -11.788600 -15.403800 -35.042100
C -11.553700 -11.565300 -31.081900
O -11.442500 -10.520000 -29.085100
C -11.203100 -13.684300 -33.936700
C -11.159300 -12.677200 -32.920500
O -10.920000 -15.841500 -37.772100
C -10.808700 -14.796200 -35.775300
C -10.573900 -10.957700 -31.815100
O -10.521500 -8.814900 -31.035100
N -10.420600 -13.697900 -35.045900
N -10.320600 -11.627300 -32.942300
N -10.255000 -15.128200 -37.044700
N -9.881300 -9.700700 -31.576000
H -9.465100 -12.085600 -34.950700
N -9.321300 -12.866200 -35.298100
H -9.202000 -12.772000 -36.151900
O -9.148100 -14.693800 -37.328600
O -8.736100 -9.618000 -31.944400
21
Fragment
O -13.361400 -15.783600 -23.729600
N -12.402000 -15.106800 -24.067000
O -12.139300 -14.006400 -23.622900
H -11.833100 -18.286000 -23.700900
H -11.731300 -14.056800 -26.292700
C -11.502900 -15.665600 -25.087000
C -11.287800 -14.867800 -26.190200
H -11.252500 -17.084100 -22.876300
C -11.086600 -17.688800 -23.602800
C -10.902700 -16.907500 -24.873100
O -10.857700 -13.580500 -28.561400
C -10.393100 -15.313700 -27.135100
H -10.292700 -18.196700 -23.422300
N -10.089300 -14.486100 -28.298400
C -10.046400 -17.294400 -25.904900
O -9.934400 -19.547200 -25.465900
C -9.750000 -16.525200 -27.014800
N -9.336600 -18.571700 -25.855900
H -9.139900 -16.814500 -27.654400
O -9.097200 -14.738300 -28.930900
O -8.172100 -18.604700 -26.221400
49
Fragment
O -13.626300 -16.743500 -34.912800
O -13.214300 -11.667700 -29.528600
H -13.160500 -13.589500 -30.705300
N -13.041100 -13.495300 -31.559000
H -12.897400 -14.275900 -31.906500
N -12.481200 -16.660800 -35.281200
N -12.107400 -11.233300 -29.812500
N -12.041900 -14.734200 -33.914900
N -11.941800 -12.663600 -31.811300
O -11.841000 -17.546600 -35.822100
C -11.788600 -15.403800 -35.042100
C -11.553700 -11.565300 -31.081900
O -11.442500 -10.520000 -29.085100
C -11.203100 -13.684300 -33.936700
C -11.159300 -12.677200 -32.920500
O -10.920000 -15.841500 -37.772100
C -10.808700 -14.796200 -35.775300
C -10.573900 -10.957700 -31.815100
O -10.521500 -8.814900 -31.035100
N -10.420600 -13.697900 -35.045900
N -10.320600 -11.627300 -32.942300
N -10.255000 -15.128200 -37.044700
N -9.881300 -9.700700 -31.576000
H -9.465100 -12.085600 -34.950700
N -9.321300 -12.866200 -35.298100
H -9.202000 -12.772000 -36.151900
O -9.148100 -14.693800 -37.328600
O -8.736100 -9.618000 -31.944400
O -13.361400 -15.783600 -23.729600
N -12.402000 -15.106800 -24.067000
O -12.139300 -14.006400 -23.622900
H -11.833100 -18.286000 -23.700900
H -11.731300 -14.056800 -26.292700
C -11.502900 -15.665600 -25.087000
C -11.287800 -14.867800 -26.190200
H -11.252500 -17.084100 -22.876300
C -11.086600 -17.688800 -23.602800
C -10.902700 -16.907500 -24.873100
O -10.857700 -13.580500 -28.561400
C -10.393100 -15.313700 -27.135100
H -10.292700 -18.196700 -23.422300
N -10.089300 -14.486100 -28.298400
C -10.046400 -17.294400 -25.904900
O -9.934400 -19.547200 -25.465900
C -9.750000 -16.525200 -27.014800
N -9.336600 -18.571700 -25.855900
H -9.139900 -16.814500 -27.654400
O -9.097200 -14.738300 -28.930900
O -8.172100 -18.604700 -26.221400
