17
Fragment
N -18.942700 -9.199900 -13.650400
N -18.735500 -9.817500 -14.842200
H -18.359400 -12.499000 -15.850000
N -17.991700 -9.488600 -12.812200
O -17.914600 -12.114400 -16.449700
C -17.610600 -10.491500 -14.702000
H -17.551800 -10.576200 -18.424500
N -17.142900 -10.298600 -13.471800
C -16.964300 -11.358400 -15.769800
N -16.785700 -10.298600 -18.067800
H -16.376800 -10.576200 -13.115100
C -16.318000 -10.491500 -16.837700
O -16.014000 -12.114400 -15.089900
N -15.936900 -9.488600 -18.727400
H -15.569200 -12.499000 -15.689600
N -15.193100 -9.817500 -16.697400
N -14.985800 -9.199900 -17.889300
17
Fragment
N -25.008400 -11.781400 -9.144700
N -24.801100 -11.163700 -10.336500
H -24.425000 -8.482300 -11.344400
N -24.057300 -11.492700 -8.306500
O -23.980200 -8.866800 -11.944100
C -23.676200 -10.489800 -10.196300
H -23.617400 -10.405000 -13.918900
N -23.208500 -10.682600 -8.966200
C -23.029900 -9.622800 -11.264200
N -22.851300 -10.682600 -13.562100
H -22.442400 -10.405000 -8.609400
C -22.383600 -10.489800 -12.332000
O -22.079600 -8.866800 -10.584200
N -22.002500 -11.492700 -14.221800
H -21.634800 -8.482300 -11.184000
N -21.258800 -11.163700 -12.191800
N -21.051500 -11.781400 -13.383600
34
Fragment
N -18.942700 -9.199900 -13.650400
N -18.735500 -9.817500 -14.842200
H -18.359400 -12.499000 -15.850000
N -17.991700 -9.488600 -12.812200
O -17.914600 -12.114400 -16.449700
C -17.610600 -10.491500 -14.702000
H -17.551800 -10.576200 -18.424500
N -17.142900 -10.298600 -13.471800
C -16.964300 -11.358400 -15.769800
N -16.785700 -10.298600 -18.067800
H -16.376800 -10.576200 -13.115100
C -16.318000 -10.491500 -16.837700
O -16.014000 -12.114400 -15.089900
N -15.936900 -9.488600 -18.727400
H -15.569200 -12.499000 -15.689600
N -15.193100 -9.817500 -16.697400
N -14.985800 -9.199900 -17.889300
N -25.008400 -11.781400 -9.144700
N -24.801100 -11.163700 -10.336500
H -24.425000 -8.482300 -11.344400
N -24.057300 -11.492700 -8.306500
O -23.980200 -8.866800 -11.944100
C -23.676200 -10.489800 -10.196300
H -23.617400 -10.405000 -13.918900
N -23.208500 -10.682600 -8.966200
C -23.029900 -9.622800 -11.264200
N -22.851300 -10.682600 -13.562100
H -22.442400 -10.405000 -8.609400
C -22.383600 -10.489800 -12.332000
O -22.079600 -8.866800 -10.584200
N -22.002500 -11.492700 -14.221800
H -21.634800 -8.482300 -11.184000
N -21.258800 -11.163700 -12.191800
N -21.051500 -11.781400 -13.383600
