17
Fragment
N -18.942700 -9.199900 -13.650400
N -18.735500 -9.817500 -14.842200
H -18.359400 -12.499000 -15.850000
N -17.991700 -9.488600 -12.812200
O -17.914600 -12.114400 -16.449700
C -17.610600 -10.491500 -14.702000
H -17.551800 -10.576200 -18.424500
N -17.142900 -10.298600 -13.471800
C -16.964300 -11.358400 -15.769800
N -16.785700 -10.298600 -18.067800
H -16.376800 -10.576200 -13.115100
C -16.318000 -10.491500 -16.837700
O -16.014000 -12.114400 -15.089900
N -15.936900 -9.488600 -18.727400
H -15.569200 -12.499000 -15.689600
N -15.193100 -9.817500 -16.697400
N -14.985800 -9.199900 -17.889300
3
Fragment
H -13.724700 -7.083300 -19.724000
H -13.573900 -7.789100 -18.644400
O -13.132700 -7.307200 -19.172300
20
Fragment
N -18.942700 -9.199900 -13.650400
N -18.735500 -9.817500 -14.842200
H -18.359400 -12.499000 -15.850000
N -17.991700 -9.488600 -12.812200
O -17.914600 -12.114400 -16.449700
C -17.610600 -10.491500 -14.702000
H -17.551800 -10.576200 -18.424500
N -17.142900 -10.298600 -13.471800
C -16.964300 -11.358400 -15.769800
N -16.785700 -10.298600 -18.067800
H -16.376800 -10.576200 -13.115100
C -16.318000 -10.491500 -16.837700
O -16.014000 -12.114400 -15.089900
N -15.936900 -9.488600 -18.727400
H -15.569200 -12.499000 -15.689600
N -15.193100 -9.817500 -16.697400
N -14.985800 -9.199900 -17.889300
H -13.724700 -7.083300 -19.724000
H -13.573900 -7.789100 -18.644400
O -13.132700 -7.307200 -19.172300
