28
Fragment
O -13.626300 -16.743500 -34.912800
O -13.214300 -11.667700 -29.528600
H -13.160500 -13.589500 -30.705300
N -13.041100 -13.495300 -31.559000
H -12.897400 -14.275900 -31.906500
N -12.481200 -16.660800 -35.281200
N -12.107400 -11.233300 -29.812500
N -12.041900 -14.734200 -33.914900
N -11.941800 -12.663600 -31.811300
O -11.841000 -17.546600 -35.822100
C -11.788600 -15.403800 -35.042100
C -11.553700 -11.565300 -31.081900
O -11.442500 -10.520000 -29.085100
C -11.203100 -13.684300 -33.936700
C -11.159300 -12.677200 -32.920500
O -10.920000 -15.841500 -37.772100
C -10.808700 -14.796200 -35.775300
C -10.573900 -10.957700 -31.815100
O -10.521500 -8.814900 -31.035100
N -10.420600 -13.697900 -35.045900
N -10.320600 -11.627300 -32.942300
N -10.255000 -15.128200 -37.044700
N -9.881300 -9.700700 -31.576000
H -9.465100 -12.085600 -34.950700
N -9.321300 -12.866200 -35.298100
H -9.202000 -12.772000 -36.151900
O -9.148100 -14.693800 -37.328600
O -8.736100 -9.618000 -31.944400
28
Fragment
O -13.148300 -9.882800 -34.912800
O -12.736300 -4.807000 -29.528600
H -12.682400 -6.728900 -30.705300
N -12.563100 -6.634600 -31.559000
H -12.419300 -7.415200 -31.906500
N -12.003100 -9.800100 -35.281200
N -11.629400 -4.372600 -29.812500
N -11.563900 -7.873500 -33.914900
N -11.463800 -5.802900 -31.811300
O -11.362900 -10.685900 -35.822100
C -11.310500 -8.543100 -35.042100
C -11.075700 -4.704600 -31.081900
O -10.964400 -3.659300 -29.085100
C -10.725100 -6.823700 -33.936700
C -10.681300 -5.816500 -32.920500
O -10.441900 -8.980800 -37.772100
C -10.330700 -7.935600 -35.775300
C -10.095800 -4.097000 -31.815100
O -10.043500 -1.954200 -31.035100
N -9.942600 -6.837200 -35.045900
N -9.842500 -4.766600 -32.942300
N -9.777000 -8.267600 -37.044700
N -9.403300 -2.840100 -31.576000
H -8.987000 -5.225000 -34.950700
N -8.843300 -6.005600 -35.298100
H -8.723900 -5.911300 -36.151900
O -8.670100 -7.833100 -37.328600
O -8.258100 -2.757300 -31.944400
56
Fragment
O -13.626300 -16.743500 -34.912800
O -13.214300 -11.667700 -29.528600
H -13.160500 -13.589500 -30.705300
N -13.041100 -13.495300 -31.559000
H -12.897400 -14.275900 -31.906500
N -12.481200 -16.660800 -35.281200
N -12.107400 -11.233300 -29.812500
N -12.041900 -14.734200 -33.914900
N -11.941800 -12.663600 -31.811300
O -11.841000 -17.546600 -35.822100
C -11.788600 -15.403800 -35.042100
C -11.553700 -11.565300 -31.081900
O -11.442500 -10.520000 -29.085100
C -11.203100 -13.684300 -33.936700
C -11.159300 -12.677200 -32.920500
O -10.920000 -15.841500 -37.772100
C -10.808700 -14.796200 -35.775300
C -10.573900 -10.957700 -31.815100
O -10.521500 -8.814900 -31.035100
N -10.420600 -13.697900 -35.045900
N -10.320600 -11.627300 -32.942300
N -10.255000 -15.128200 -37.044700
N -9.881300 -9.700700 -31.576000
H -9.465100 -12.085600 -34.950700
N -9.321300 -12.866200 -35.298100
H -9.202000 -12.772000 -36.151900
O -9.148100 -14.693800 -37.328600
O -8.736100 -9.618000 -31.944400
O -13.148300 -9.882800 -34.912800
O -12.736300 -4.807000 -29.528600
H -12.682400 -6.728900 -30.705300
N -12.563100 -6.634600 -31.559000
H -12.419300 -7.415200 -31.906500
N -12.003100 -9.800100 -35.281200
N -11.629400 -4.372600 -29.812500
N -11.563900 -7.873500 -33.914900
N -11.463800 -5.802900 -31.811300
O -11.362900 -10.685900 -35.822100
C -11.310500 -8.543100 -35.042100
C -11.075700 -4.704600 -31.081900
O -10.964400 -3.659300 -29.085100
C -10.725100 -6.823700 -33.936700
C -10.681300 -5.816500 -32.920500
O -10.441900 -8.980800 -37.772100
C -10.330700 -7.935600 -35.775300
C -10.095800 -4.097000 -31.815100
O -10.043500 -1.954200 -31.035100
N -9.942600 -6.837200 -35.045900
N -9.842500 -4.766600 -32.942300
N -9.777000 -8.267600 -37.044700
N -9.403300 -2.840100 -31.576000
H -8.987000 -5.225000 -34.950700
N -8.843300 -6.005600 -35.298100
H -8.723900 -5.911300 -36.151900
O -8.670100 -7.833100 -37.328600
O -8.258100 -2.757300 -31.944400
