17
Fragment
N -18.942700 -9.199900 -13.650400
N -18.735500 -9.817500 -14.842200
H -18.359400 -12.499000 -15.850000
N -17.991700 -9.488600 -12.812200
O -17.914600 -12.114400 -16.449700
C -17.610600 -10.491500 -14.702000
H -17.551800 -10.576200 -18.424500
N -17.142900 -10.298600 -13.471800
C -16.964300 -11.358400 -15.769800
N -16.785700 -10.298600 -18.067800
H -16.376800 -10.576200 -13.115100
C -16.318000 -10.491500 -16.837700
O -16.014000 -12.114400 -15.089900
N -15.936900 -9.488600 -18.727400
H -15.569200 -12.499000 -15.689600
N -15.193100 -9.817500 -16.697400
N -14.985800 -9.199900 -17.889300
17
Fragment
N -18.753100 -15.977600 -18.156000
N -18.545800 -15.360000 -19.347900
H -18.169800 -12.678500 -20.355700
N -17.802000 -15.688900 -17.317900
O -17.725000 -13.063100 -20.955400
C -17.421000 -14.686000 -19.207600
H -17.362200 -14.601300 -22.930200
N -16.953300 -14.878900 -17.977500
C -16.774700 -13.819100 -20.275500
N -16.596000 -14.878900 -22.573500
H -16.187100 -14.601300 -17.620700
C -16.128400 -14.686000 -21.343300
O -15.824300 -13.063100 -19.595600
N -15.747300 -15.688900 -23.233100
H -15.379500 -12.678500 -20.195300
N -15.003500 -15.360000 -21.203100
N -14.796200 -15.977600 -22.394900
34
Fragment
N -18.942700 -9.199900 -13.650400
N -18.735500 -9.817500 -14.842200
H -18.359400 -12.499000 -15.850000
N -17.991700 -9.488600 -12.812200
O -17.914600 -12.114400 -16.449700
C -17.610600 -10.491500 -14.702000
H -17.551800 -10.576200 -18.424500
N -17.142900 -10.298600 -13.471800
C -16.964300 -11.358400 -15.769800
N -16.785700 -10.298600 -18.067800
H -16.376800 -10.576200 -13.115100
C -16.318000 -10.491500 -16.837700
O -16.014000 -12.114400 -15.089900
N -15.936900 -9.488600 -18.727400
H -15.569200 -12.499000 -15.689600
N -15.193100 -9.817500 -16.697400
N -14.985800 -9.199900 -17.889300
N -18.753100 -15.977600 -18.156000
N -18.545800 -15.360000 -19.347900
H -18.169800 -12.678500 -20.355700
N -17.802000 -15.688900 -17.317900
O -17.725000 -13.063100 -20.955400
C -17.421000 -14.686000 -19.207600
H -17.362200 -14.601300 -22.930200
N -16.953300 -14.878900 -17.977500
C -16.774700 -13.819100 -20.275500
N -16.596000 -14.878900 -22.573500
H -16.187100 -14.601300 -17.620700
C -16.128400 -14.686000 -21.343300
O -15.824300 -13.063100 -19.595600
N -15.747300 -15.688900 -23.233100
H -15.379500 -12.678500 -20.195300
N -15.003500 -15.360000 -21.203100
N -14.796200 -15.977600 -22.394900
