21
Fragment
H -9.563100 -15.246500 -31.007000
O -9.391800 -15.238500 -30.003000
H -8.300500 -17.704600 -29.754400
C -8.012700 -15.603700 -30.060800
C -7.829500 -17.065700 -30.321000
H -7.616500 -15.415600 -29.137800
H -7.588900 -15.007600 -30.775800
H -7.364000 -19.635300 -30.872100
H -7.061000 -21.725200 -31.238300
C -7.034300 -17.556300 -31.280700
C -6.830900 -18.986400 -31.456100
H -6.510000 -16.968200 -31.970600
N -6.326400 -21.955100 -31.924300
H -6.087700 -22.879600 -32.221100
C -5.999100 -19.525800 -32.342500
C -5.737400 -20.966900 -32.579600
N -5.160700 -18.926700 -33.263700
H -4.917000 -18.072800 -33.338800
N -4.853600 -21.146000 -33.539200
C -4.478500 -19.887100 -33.969000
O -3.658100 -19.654200 -34.855500
21
Fragment
O -10.114900 -24.630200 -32.593000
C -9.294500 -24.863100 -33.479500
N -8.919400 -26.122000 -33.909300
H -8.856000 -23.048800 -34.109700
N -8.612300 -23.902700 -34.184800
C -8.035600 -25.942900 -34.868900
C -7.773900 -24.501800 -35.106000
H -7.685300 -27.855600 -35.227400
N -7.446600 -26.931100 -35.524200
H -7.263000 -21.944200 -35.477900
C -6.942100 -23.962400 -35.992400
C -6.738700 -22.532300 -36.167800
H -6.712000 -26.701200 -36.210200
H -6.409000 -24.611300 -36.576400
H -6.184100 -19.983600 -36.672700
H -6.156500 -20.391600 -38.310700
C -5.943500 -22.041700 -37.127500
C -5.760300 -20.579700 -37.387700
H -5.472500 -22.680600 -37.694100
O -4.381200 -20.214500 -37.445500
H -4.209900 -20.222500 -36.441500
42
Fragment
H -9.563100 -15.246500 -31.007000
O -9.391800 -15.238500 -30.003000
H -8.300500 -17.704600 -29.754400
C -8.012700 -15.603700 -30.060800
C -7.829500 -17.065700 -30.321000
H -7.616500 -15.415600 -29.137800
H -7.588900 -15.007600 -30.775800
H -7.364000 -19.635300 -30.872100
H -7.061000 -21.725200 -31.238300
C -7.034300 -17.556300 -31.280700
C -6.830900 -18.986400 -31.456100
H -6.510000 -16.968200 -31.970600
N -6.326400 -21.955100 -31.924300
H -6.087700 -22.879600 -32.221100
C -5.999100 -19.525800 -32.342500
C -5.737400 -20.966900 -32.579600
N -5.160700 -18.926700 -33.263700
H -4.917000 -18.072800 -33.338800
N -4.853600 -21.146000 -33.539200
C -4.478500 -19.887100 -33.969000
O -3.658100 -19.654200 -34.855500
O -10.114900 -24.630200 -32.593000
C -9.294500 -24.863100 -33.479500
N -8.919400 -26.122000 -33.909300
H -8.856000 -23.048800 -34.109700
N -8.612300 -23.902700 -34.184800
C -8.035600 -25.942900 -34.868900
C -7.773900 -24.501800 -35.106000
H -7.685300 -27.855600 -35.227400
N -7.446600 -26.931100 -35.524200
H -7.263000 -21.944200 -35.477900
C -6.942100 -23.962400 -35.992400
C -6.738700 -22.532300 -36.167800
H -6.712000 -26.701200 -36.210200
H -6.409000 -24.611300 -36.576400
H -6.184100 -19.983600 -36.672700
H -6.156500 -20.391600 -38.310700
C -5.943500 -22.041700 -37.127500
C -5.760300 -20.579700 -37.387700
H -5.472500 -22.680600 -37.694100
O -4.381200 -20.214500 -37.445500
H -4.209900 -20.222500 -36.441500
