21
Fragment
H -9.563100 -15.246500 -31.007000
O -9.391800 -15.238500 -30.003000
H -8.300500 -17.704600 -29.754400
C -8.012700 -15.603700 -30.060800
C -7.829500 -17.065700 -30.321000
H -7.616500 -15.415600 -29.137800
H -7.588900 -15.007600 -30.775800
H -7.364000 -19.635300 -30.872100
H -7.061000 -21.725200 -31.238300
C -7.034300 -17.556300 -31.280700
C -6.830900 -18.986400 -31.456100
H -6.510000 -16.968200 -31.970600
N -6.326400 -21.955100 -31.924300
H -6.087700 -22.879600 -32.221100
C -5.999100 -19.525800 -32.342500
C -5.737400 -20.966900 -32.579600
N -5.160700 -18.926700 -33.263700
H -4.917000 -18.072800 -33.338800
N -4.853600 -21.146000 -33.539200
C -4.478500 -19.887100 -33.969000
O -3.658100 -19.654200 -34.855500
21
Fragment
H -14.154100 -15.246500 -31.007000
O -13.982800 -15.238500 -30.003000
H -12.891500 -17.704600 -29.754400
C -12.603700 -15.603700 -30.060800
C -12.420500 -17.065700 -30.321000
H -12.207500 -15.415600 -29.137800
H -12.179900 -15.007600 -30.775800
H -11.955000 -19.635300 -30.872100
H -11.652000 -21.725200 -31.238300
C -11.625300 -17.556300 -31.280700
C -11.421900 -18.986400 -31.456100
H -11.101000 -16.968200 -31.970600
N -10.917400 -21.955100 -31.924300
H -10.678700 -22.879600 -32.221100
C -10.590100 -19.525800 -32.342500
C -10.328400 -20.966900 -32.579600
N -9.751700 -18.926700 -33.263700
H -9.508000 -18.072800 -33.338800
N -9.444600 -21.146000 -33.539200
C -9.069500 -19.887100 -33.969000
O -8.249100 -19.654200 -34.855500
42
Fragment
H -9.563100 -15.246500 -31.007000
O -9.391800 -15.238500 -30.003000
H -8.300500 -17.704600 -29.754400
C -8.012700 -15.603700 -30.060800
C -7.829500 -17.065700 -30.321000
H -7.616500 -15.415600 -29.137800
H -7.588900 -15.007600 -30.775800
H -7.364000 -19.635300 -30.872100
H -7.061000 -21.725200 -31.238300
C -7.034300 -17.556300 -31.280700
C -6.830900 -18.986400 -31.456100
H -6.510000 -16.968200 -31.970600
N -6.326400 -21.955100 -31.924300
H -6.087700 -22.879600 -32.221100
C -5.999100 -19.525800 -32.342500
C -5.737400 -20.966900 -32.579600
N -5.160700 -18.926700 -33.263700
H -4.917000 -18.072800 -33.338800
N -4.853600 -21.146000 -33.539200
C -4.478500 -19.887100 -33.969000
O -3.658100 -19.654200 -34.855500
H -14.154100 -15.246500 -31.007000
O -13.982800 -15.238500 -30.003000
H -12.891500 -17.704600 -29.754400
C -12.603700 -15.603700 -30.060800
C -12.420500 -17.065700 -30.321000
H -12.207500 -15.415600 -29.137800
H -12.179900 -15.007600 -30.775800
H -11.955000 -19.635300 -30.872100
H -11.652000 -21.725200 -31.238300
C -11.625300 -17.556300 -31.280700
C -11.421900 -18.986400 -31.456100
H -11.101000 -16.968200 -31.970600
N -10.917400 -21.955100 -31.924300
H -10.678700 -22.879600 -32.221100
C -10.590100 -19.525800 -32.342500
C -10.328400 -20.966900 -32.579600
N -9.751700 -18.926700 -33.263700
H -9.508000 -18.072800 -33.338800
N -9.444600 -21.146000 -33.539200
C -9.069500 -19.887100 -33.969000
O -8.249100 -19.654200 -34.855500
