21
Fragment
H -9.563100 -15.246500 -31.007000
O -9.391800 -15.238500 -30.003000
H -8.300500 -17.704600 -29.754400
C -8.012700 -15.603700 -30.060800
C -7.829500 -17.065700 -30.321000
H -7.616500 -15.415600 -29.137800
H -7.588900 -15.007600 -30.775800
H -7.364000 -19.635300 -30.872100
H -7.061000 -21.725200 -31.238300
C -7.034300 -17.556300 -31.280700
C -6.830900 -18.986400 -31.456100
H -6.510000 -16.968200 -31.970600
N -6.326400 -21.955100 -31.924300
H -6.087700 -22.879600 -32.221100
C -5.999100 -19.525800 -32.342500
C -5.737400 -20.966900 -32.579600
N -5.160700 -18.926700 -33.263700
H -4.917000 -18.072800 -33.338800
N -4.853600 -21.146000 -33.539200
C -4.478500 -19.887100 -33.969000
O -3.658100 -19.654200 -34.855500
21
Fragment
H -11.858600 -19.585500 -26.806000
O -11.687300 -19.593500 -27.810000
H -10.596000 -17.127400 -28.058600
C -10.308200 -19.228300 -27.752200
C -10.125000 -17.766300 -27.492000
H -9.912000 -19.416400 -28.675200
H -9.884400 -19.824400 -27.037200
H -9.659500 -15.196700 -26.940900
H -9.356500 -13.106800 -26.574700
C -9.329800 -17.275700 -26.532300
C -9.126400 -15.845600 -26.356900
H -8.805500 -17.863800 -25.842400
N -8.621900 -12.876900 -25.888700
H -8.383200 -11.952400 -25.591900
C -8.294600 -15.306200 -25.470500
C -8.032900 -13.865100 -25.233400
N -7.456200 -15.905300 -24.549300
H -7.212500 -16.759200 -24.474200
N -7.149100 -13.686000 -24.273800
C -6.774000 -14.944900 -23.844000
O -5.953600 -15.177800 -22.957500
42
Fragment
H -9.563100 -15.246500 -31.007000
O -9.391800 -15.238500 -30.003000
H -8.300500 -17.704600 -29.754400
C -8.012700 -15.603700 -30.060800
C -7.829500 -17.065700 -30.321000
H -7.616500 -15.415600 -29.137800
H -7.588900 -15.007600 -30.775800
H -7.364000 -19.635300 -30.872100
H -7.061000 -21.725200 -31.238300
C -7.034300 -17.556300 -31.280700
C -6.830900 -18.986400 -31.456100
H -6.510000 -16.968200 -31.970600
N -6.326400 -21.955100 -31.924300
H -6.087700 -22.879600 -32.221100
C -5.999100 -19.525800 -32.342500
C -5.737400 -20.966900 -32.579600
N -5.160700 -18.926700 -33.263700
H -4.917000 -18.072800 -33.338800
N -4.853600 -21.146000 -33.539200
C -4.478500 -19.887100 -33.969000
O -3.658100 -19.654200 -34.855500
H -11.858600 -19.585500 -26.806000
O -11.687300 -19.593500 -27.810000
H -10.596000 -17.127400 -28.058600
C -10.308200 -19.228300 -27.752200
C -10.125000 -17.766300 -27.492000
H -9.912000 -19.416400 -28.675200
H -9.884400 -19.824400 -27.037200
H -9.659500 -15.196700 -26.940900
H -9.356500 -13.106800 -26.574700
C -9.329800 -17.275700 -26.532300
C -9.126400 -15.845600 -26.356900
H -8.805500 -17.863800 -25.842400
N -8.621900 -12.876900 -25.888700
H -8.383200 -11.952400 -25.591900
C -8.294600 -15.306200 -25.470500
C -8.032900 -13.865100 -25.233400
N -7.456200 -15.905300 -24.549300
H -7.212500 -16.759200 -24.474200
N -7.149100 -13.686000 -24.273800
C -6.774000 -14.944900 -23.844000
O -5.953600 -15.177800 -22.957500
