28
Fragment
H -21.616100 -13.054400 -13.725900
H -21.578700 -12.137300 -14.942600
N -21.205500 -12.760800 -14.446700
C -20.011300 -13.262900 -14.788500
N -19.371500 -12.867200 -15.955000
N -19.367500 -14.200900 -14.108600
C -18.314700 -13.607100 -15.951400
O -18.199800 -14.433500 -14.912800
N -17.309900 -12.752600 -17.943800
C -17.249900 -13.592900 -16.944200
O -16.151500 -12.972100 -18.662400
C -16.038900 -14.335200 -17.033700
N -15.674800 -15.395700 -16.165000
N -15.370800 -13.950000 -18.084500
N -14.775600 -17.170200 -14.361800
N -14.471600 -15.724600 -16.281300
C -14.107500 -16.785000 -15.412600
O -13.994900 -18.148100 -13.783900
C -12.896500 -17.527300 -15.502100
N -12.836500 -18.367600 -14.502500
O -11.946600 -16.686700 -17.533500
C -11.831700 -17.513200 -16.494900
N -10.778900 -16.919300 -18.337700
N -10.775000 -18.253100 -16.491300
C -10.135100 -17.857400 -17.657800
N -8.940900 -18.359400 -17.999600
H -8.567700 -18.982900 -17.503700
H -8.530400 -18.065800 -18.720400
28
Fragment
H -15.248100 -13.054400 -13.725900
H -15.210700 -12.137300 -14.942600
N -14.837500 -12.760800 -14.446700
C -13.643300 -13.262900 -14.788500
N -13.003500 -12.867200 -15.955000
N -12.999500 -14.200900 -14.108600
C -11.946700 -13.607100 -15.951400
O -11.831800 -14.433500 -14.912800
N -10.941900 -12.752600 -17.943800
C -10.881900 -13.592900 -16.944200
O -9.783500 -12.972100 -18.662400
C -9.670900 -14.335200 -17.033700
N -9.306800 -15.395700 -16.165000
N -9.002800 -13.950000 -18.084500
N -8.407600 -17.170200 -14.361800
N -8.103600 -15.724600 -16.281300
C -7.739500 -16.785000 -15.412600
O -7.626900 -18.148100 -13.783900
C -6.528500 -17.527300 -15.502100
N -6.468500 -18.367600 -14.502500
O -5.578600 -16.686700 -17.533500
C -5.463700 -17.513200 -16.494900
N -4.410900 -16.919300 -18.337700
N -4.407000 -18.253100 -16.491300
C -3.767100 -17.857400 -17.657800
N -2.572900 -18.359400 -17.999600
H -2.199700 -18.982900 -17.503700
H -2.162400 -18.065800 -18.720400
56
Fragment
H -21.616100 -13.054400 -13.725900
H -21.578700 -12.137300 -14.942600
N -21.205500 -12.760800 -14.446700
C -20.011300 -13.262900 -14.788500
N -19.371500 -12.867200 -15.955000
N -19.367500 -14.200900 -14.108600
C -18.314700 -13.607100 -15.951400
O -18.199800 -14.433500 -14.912800
N -17.309900 -12.752600 -17.943800
C -17.249900 -13.592900 -16.944200
O -16.151500 -12.972100 -18.662400
C -16.038900 -14.335200 -17.033700
N -15.674800 -15.395700 -16.165000
N -15.370800 -13.950000 -18.084500
N -14.775600 -17.170200 -14.361800
N -14.471600 -15.724600 -16.281300
C -14.107500 -16.785000 -15.412600
O -13.994900 -18.148100 -13.783900
C -12.896500 -17.527300 -15.502100
N -12.836500 -18.367600 -14.502500
O -11.946600 -16.686700 -17.533500
C -11.831700 -17.513200 -16.494900
N -10.778900 -16.919300 -18.337700
N -10.775000 -18.253100 -16.491300
C -10.135100 -17.857400 -17.657800
N -8.940900 -18.359400 -17.999600
H -8.567700 -18.982900 -17.503700
H -8.530400 -18.065800 -18.720400
H -15.248100 -13.054400 -13.725900
H -15.210700 -12.137300 -14.942600
N -14.837500 -12.760800 -14.446700
C -13.643300 -13.262900 -14.788500
N -13.003500 -12.867200 -15.955000
N -12.999500 -14.200900 -14.108600
C -11.946700 -13.607100 -15.951400
O -11.831800 -14.433500 -14.912800
N -10.941900 -12.752600 -17.943800
C -10.881900 -13.592900 -16.944200
O -9.783500 -12.972100 -18.662400
C -9.670900 -14.335200 -17.033700
N -9.306800 -15.395700 -16.165000
N -9.002800 -13.950000 -18.084500
N -8.407600 -17.170200 -14.361800
N -8.103600 -15.724600 -16.281300
C -7.739500 -16.785000 -15.412600
O -7.626900 -18.148100 -13.783900
C -6.528500 -17.527300 -15.502100
N -6.468500 -18.367600 -14.502500
O -5.578600 -16.686700 -17.533500
C -5.463700 -17.513200 -16.494900
N -4.410900 -16.919300 -18.337700
N -4.407000 -18.253100 -16.491300
C -3.767100 -17.857400 -17.657800
N -2.572900 -18.359400 -17.999600
H -2.199700 -18.982900 -17.503700
H -2.162400 -18.065800 -18.720400
