28
Fragment
H -21.616100 -13.054400 -13.725900
H -21.578700 -12.137300 -14.942600
N -21.205500 -12.760800 -14.446700
C -20.011300 -13.262900 -14.788500
N -19.371500 -12.867200 -15.955000
N -19.367500 -14.200900 -14.108600
C -18.314700 -13.607100 -15.951400
O -18.199800 -14.433500 -14.912800
N -17.309900 -12.752600 -17.943800
C -17.249900 -13.592900 -16.944200
O -16.151500 -12.972100 -18.662400
C -16.038900 -14.335200 -17.033700
N -15.674800 -15.395700 -16.165000
N -15.370800 -13.950000 -18.084500
N -14.775600 -17.170200 -14.361800
N -14.471600 -15.724600 -16.281300
C -14.107500 -16.785000 -15.412600
O -13.994900 -18.148100 -13.783900
C -12.896500 -17.527300 -15.502100
N -12.836500 -18.367600 -14.502500
O -11.946600 -16.686700 -17.533500
C -11.831700 -17.513200 -16.494900
N -10.778900 -16.919300 -18.337700
N -10.775000 -18.253100 -16.491300
C -10.135100 -17.857400 -17.657800
N -8.940900 -18.359400 -17.999600
H -8.567700 -18.982900 -17.503700
H -8.530400 -18.065800 -18.720400
12
Fragment
H -14.856300 -19.235600 -10.471500
H -14.805100 -20.540200 -11.397300
H -14.720300 -20.684800 -9.806400
C -14.468200 -20.129600 -10.573200
N -13.018000 -20.024600 -10.641400
H -12.841000 -20.827200 -12.411800
H -12.588200 -19.895300 -8.684800
H -12.556000 -18.484300 -9.438600
C -12.340800 -20.448800 -11.698100
C -12.322200 -19.433700 -9.507000
H -11.355100 -19.523800 -9.634400
O -11.130000 -20.394700 -11.830900
40
Fragment
H -21.616100 -13.054400 -13.725900
H -21.578700 -12.137300 -14.942600
N -21.205500 -12.760800 -14.446700
C -20.011300 -13.262900 -14.788500
N -19.371500 -12.867200 -15.955000
N -19.367500 -14.200900 -14.108600
C -18.314700 -13.607100 -15.951400
O -18.199800 -14.433500 -14.912800
N -17.309900 -12.752600 -17.943800
C -17.249900 -13.592900 -16.944200
O -16.151500 -12.972100 -18.662400
C -16.038900 -14.335200 -17.033700
N -15.674800 -15.395700 -16.165000
N -15.370800 -13.950000 -18.084500
N -14.775600 -17.170200 -14.361800
N -14.471600 -15.724600 -16.281300
C -14.107500 -16.785000 -15.412600
O -13.994900 -18.148100 -13.783900
C -12.896500 -17.527300 -15.502100
N -12.836500 -18.367600 -14.502500
O -11.946600 -16.686700 -17.533500
C -11.831700 -17.513200 -16.494900
N -10.778900 -16.919300 -18.337700
N -10.775000 -18.253100 -16.491300
C -10.135100 -17.857400 -17.657800
N -8.940900 -18.359400 -17.999600
H -8.567700 -18.982900 -17.503700
H -8.530400 -18.065800 -18.720400
H -14.856300 -19.235600 -10.471500
H -14.805100 -20.540200 -11.397300
H -14.720300 -20.684800 -9.806400
C -14.468200 -20.129600 -10.573200
N -13.018000 -20.024600 -10.641400
H -12.841000 -20.827200 -12.411800
H -12.588200 -19.895300 -8.684800
H -12.556000 -18.484300 -9.438600
C -12.340800 -20.448800 -11.698100
C -12.322200 -19.433700 -9.507000
H -11.355100 -19.523800 -9.634400
O -11.130000 -20.394700 -11.830900
