28
Fragment
H -21.616100 -13.054400 -13.725900
H -21.578700 -12.137300 -14.942600
N -21.205500 -12.760800 -14.446700
C -20.011300 -13.262900 -14.788500
N -19.371500 -12.867200 -15.955000
N -19.367500 -14.200900 -14.108600
C -18.314700 -13.607100 -15.951400
O -18.199800 -14.433500 -14.912800
N -17.309900 -12.752600 -17.943800
C -17.249900 -13.592900 -16.944200
O -16.151500 -12.972100 -18.662400
C -16.038900 -14.335200 -17.033700
N -15.674800 -15.395700 -16.165000
N -15.370800 -13.950000 -18.084500
N -14.775600 -17.170200 -14.361800
N -14.471600 -15.724600 -16.281300
C -14.107500 -16.785000 -15.412600
O -13.994900 -18.148100 -13.783900
C -12.896500 -17.527300 -15.502100
N -12.836500 -18.367600 -14.502500
O -11.946600 -16.686700 -17.533500
C -11.831700 -17.513200 -16.494900
N -10.778900 -16.919300 -18.337700
N -10.775000 -18.253100 -16.491300
C -10.135100 -17.857400 -17.657800
N -8.940900 -18.359400 -17.999600
H -8.567700 -18.982900 -17.503700
H -8.530400 -18.065800 -18.720400
28
Fragment
H -16.874900 -20.727800 -13.725900
H -16.837600 -19.810700 -14.942600
N -16.464400 -20.434300 -14.446700
C -15.270200 -20.936300 -14.788500
N -14.630300 -20.540600 -15.955000
N -14.626400 -21.874400 -14.108600
C -13.573600 -21.280500 -15.951400
O -13.458600 -22.106900 -14.912800
N -12.568800 -20.426100 -17.943800
C -12.508800 -21.266400 -16.944200
O -11.410300 -20.645600 -18.662400
C -11.297800 -22.008600 -17.033700
N -10.933700 -23.069100 -16.165000
N -10.629700 -21.623500 -18.084500
N -10.034400 -24.843600 -14.361800
N -9.730500 -23.398000 -16.281300
C -9.366300 -24.458500 -15.412600
O -9.253800 -25.821500 -13.783900
C -8.155400 -25.200700 -15.502100
N -8.095300 -26.041100 -14.502500
O -7.205500 -24.360200 -17.533500
C -7.090600 -25.186600 -16.494900
N -6.037700 -24.592800 -18.337700
N -6.033800 -25.926500 -16.491300
C -5.393900 -25.530800 -17.657800
N -4.199700 -26.032900 -17.999600
H -3.826500 -26.656400 -17.503700
H -3.789200 -25.739300 -18.720400
56
Fragment
H -21.616100 -13.054400 -13.725900
H -21.578700 -12.137300 -14.942600
N -21.205500 -12.760800 -14.446700
C -20.011300 -13.262900 -14.788500
N -19.371500 -12.867200 -15.955000
N -19.367500 -14.200900 -14.108600
C -18.314700 -13.607100 -15.951400
O -18.199800 -14.433500 -14.912800
N -17.309900 -12.752600 -17.943800
C -17.249900 -13.592900 -16.944200
O -16.151500 -12.972100 -18.662400
C -16.038900 -14.335200 -17.033700
N -15.674800 -15.395700 -16.165000
N -15.370800 -13.950000 -18.084500
N -14.775600 -17.170200 -14.361800
N -14.471600 -15.724600 -16.281300
C -14.107500 -16.785000 -15.412600
O -13.994900 -18.148100 -13.783900
C -12.896500 -17.527300 -15.502100
N -12.836500 -18.367600 -14.502500
O -11.946600 -16.686700 -17.533500
C -11.831700 -17.513200 -16.494900
N -10.778900 -16.919300 -18.337700
N -10.775000 -18.253100 -16.491300
C -10.135100 -17.857400 -17.657800
N -8.940900 -18.359400 -17.999600
H -8.567700 -18.982900 -17.503700
H -8.530400 -18.065800 -18.720400
H -16.874900 -20.727800 -13.725900
H -16.837600 -19.810700 -14.942600
N -16.464400 -20.434300 -14.446700
C -15.270200 -20.936300 -14.788500
N -14.630300 -20.540600 -15.955000
N -14.626400 -21.874400 -14.108600
C -13.573600 -21.280500 -15.951400
O -13.458600 -22.106900 -14.912800
N -12.568800 -20.426100 -17.943800
C -12.508800 -21.266400 -16.944200
O -11.410300 -20.645600 -18.662400
C -11.297800 -22.008600 -17.033700
N -10.933700 -23.069100 -16.165000
N -10.629700 -21.623500 -18.084500
N -10.034400 -24.843600 -14.361800
N -9.730500 -23.398000 -16.281300
C -9.366300 -24.458500 -15.412600
O -9.253800 -25.821500 -13.783900
C -8.155400 -25.200700 -15.502100
N -8.095300 -26.041100 -14.502500
O -7.205500 -24.360200 -17.533500
C -7.090600 -25.186600 -16.494900
N -6.037700 -24.592800 -18.337700
N -6.033800 -25.926500 -16.491300
C -5.393900 -25.530800 -17.657800
N -4.199700 -26.032900 -17.999600
H -3.826500 -26.656400 -17.503700
H -3.789200 -25.739300 -18.720400
