12
Fragment
H -23.054300 -18.954400 -19.699900
H -22.743600 -20.254700 -17.466200
H -22.569500 -18.701400 -17.339900
H -22.309100 -20.150400 -20.386300
C -22.195600 -19.310400 -19.936000
C -22.109300 -19.534800 -17.468900
H -21.741800 -18.694800 -20.516800
H -21.476200 -19.663900 -16.757700
N -21.411200 -19.509500 -18.738800
C -20.121100 -19.563500 -18.829500
H -19.651800 -19.686000 -18.034500
O -19.449500 -19.471900 -19.857500
34
Fragment
H -29.268900 -16.353700 -26.685300
H -28.749300 -16.257200 -25.293100
N -28.605900 -16.309400 -26.139000
H -27.814500 -16.446300 -28.439800
C -27.375700 -16.321800 -26.597500
N -27.152800 -16.402000 -27.891200
H -26.478800 -16.172500 -23.504200
N -26.385700 -16.236600 -25.672200
H -26.346000 -16.409800 -28.188600
H -26.095800 -13.230100 -19.252300
N -25.980100 -13.367100 -18.411100
H -25.961700 -12.701900 -17.865700
N -25.948300 -16.184200 -21.590400
H -25.915300 -15.457700 -21.042600
N -25.857600 -15.587600 -18.879400
C -25.830900 -14.596400 -17.957100
C -25.795000 -17.423500 -21.074900
C -25.787400 -16.861700 -18.498200
N -25.781900 -16.004300 -22.955900
C -25.777200 -17.769600 -19.682700
O -25.724100 -17.366500 -17.358900
N -25.709300 -18.512500 -21.797700
N -25.689700 -19.057500 -19.588300
N -25.653600 -14.810700 -16.669700
O -25.640400 -19.546800 -20.862200
H -25.634300 -14.148300 -16.122100
H -25.556900 -15.612900 -16.377400
C -25.114300 -16.196600 -26.055900
O -24.610500 -16.198500 -27.194500
C -24.545300 -16.085100 -23.479400
C -24.206600 -16.138500 -24.870700
N -23.452100 -16.079700 -22.766600
N -22.917300 -16.147400 -24.977500
O -22.415100 -16.115100 -23.705800
46
Fragment
H -23.054300 -18.954400 -19.699900
H -22.743600 -20.254700 -17.466200
H -22.569500 -18.701400 -17.339900
H -22.309100 -20.150400 -20.386300
C -22.195600 -19.310400 -19.936000
C -22.109300 -19.534800 -17.468900
H -21.741800 -18.694800 -20.516800
H -21.476200 -19.663900 -16.757700
N -21.411200 -19.509500 -18.738800
C -20.121100 -19.563500 -18.829500
H -19.651800 -19.686000 -18.034500
O -19.449500 -19.471900 -19.857500
H -29.268900 -16.353700 -26.685300
H -28.749300 -16.257200 -25.293100
N -28.605900 -16.309400 -26.139000
H -27.814500 -16.446300 -28.439800
C -27.375700 -16.321800 -26.597500
N -27.152800 -16.402000 -27.891200
H -26.478800 -16.172500 -23.504200
N -26.385700 -16.236600 -25.672200
H -26.346000 -16.409800 -28.188600
H -26.095800 -13.230100 -19.252300
N -25.980100 -13.367100 -18.411100
H -25.961700 -12.701900 -17.865700
N -25.948300 -16.184200 -21.590400
H -25.915300 -15.457700 -21.042600
N -25.857600 -15.587600 -18.879400
C -25.830900 -14.596400 -17.957100
C -25.795000 -17.423500 -21.074900
C -25.787400 -16.861700 -18.498200
N -25.781900 -16.004300 -22.955900
C -25.777200 -17.769600 -19.682700
O -25.724100 -17.366500 -17.358900
N -25.709300 -18.512500 -21.797700
N -25.689700 -19.057500 -19.588300
N -25.653600 -14.810700 -16.669700
O -25.640400 -19.546800 -20.862200
H -25.634300 -14.148300 -16.122100
H -25.556900 -15.612900 -16.377400
C -25.114300 -16.196600 -26.055900
O -24.610500 -16.198500 -27.194500
C -24.545300 -16.085100 -23.479400
C -24.206600 -16.138500 -24.870700
N -23.452100 -16.079700 -22.766600
N -22.917300 -16.147400 -24.977500
O -22.415100 -16.115100 -23.705800
