12
Fragment
H -23.054300 -18.954400 -19.699900
H -22.743600 -20.254700 -17.466200
H -22.569500 -18.701400 -17.339900
H -22.309100 -20.150400 -20.386300
C -22.195600 -19.310400 -19.936000
C -22.109300 -19.534800 -17.468900
H -21.741800 -18.694800 -20.516800
H -21.476200 -19.663900 -16.757700
N -21.411200 -19.509500 -18.738800
C -20.121100 -19.563500 -18.829500
H -19.651800 -19.686000 -18.034500
O -19.449500 -19.471900 -19.857500
12
Fragment
H -23.474600 -12.756700 -19.949800
H -23.009200 -12.982300 -17.348100
H -22.895700 -13.918700 -20.828400
H -22.756500 -15.838600 -19.752100
C -22.725600 -13.342300 -20.080200
C -22.565000 -15.448600 -18.928900
N -22.523800 -14.143600 -18.887700
O -22.374600 -16.211600 -17.981300
C -22.231700 -13.463600 -17.640500
H -21.986800 -14.109200 -16.973300
H -21.937800 -12.820600 -20.251800
H -21.505900 -12.849300 -17.772300
24
Fragment
H -23.054300 -18.954400 -19.699900
H -22.743600 -20.254700 -17.466200
H -22.569500 -18.701400 -17.339900
H -22.309100 -20.150400 -20.386300
C -22.195600 -19.310400 -19.936000
C -22.109300 -19.534800 -17.468900
H -21.741800 -18.694800 -20.516800
H -21.476200 -19.663900 -16.757700
N -21.411200 -19.509500 -18.738800
C -20.121100 -19.563500 -18.829500
H -19.651800 -19.686000 -18.034500
O -19.449500 -19.471900 -19.857500
H -23.474600 -12.756700 -19.949800
H -23.009200 -12.982300 -17.348100
H -22.895700 -13.918700 -20.828400
H -22.756500 -15.838600 -19.752100
C -22.725600 -13.342300 -20.080200
C -22.565000 -15.448600 -18.928900
N -22.523800 -14.143600 -18.887700
O -22.374600 -16.211600 -17.981300
C -22.231700 -13.463600 -17.640500
H -21.986800 -14.109200 -16.973300
H -21.937800 -12.820600 -20.251800
H -21.505900 -12.849300 -17.772300
