40
Fragment
H -11.163300 -19.648400 -31.334800
H -11.003700 -20.085900 -29.834300
C -10.530300 -19.963800 -30.671500
H -10.272200 -22.412400 -29.503600
O -9.954800 -21.222200 -31.098500
H -9.883000 -26.883800 -29.367500
C -9.520500 -22.111600 -30.055400
H -9.517600 -17.477400 -31.888500
C -9.455900 -18.975600 -30.497600
H -9.244100 -23.452900 -31.601200
H -9.158600 -20.161400 -27.970900
C -9.071400 -17.848000 -31.162800
C -8.956300 -26.636800 -29.405300
O -8.949800 -24.362600 -29.858800
C -8.840600 -23.261100 -30.730000
C -8.773000 -25.555600 -30.403100
H -8.670900 -26.328700 -28.541600
N -8.501300 -19.132600 -29.552700
O -8.497100 -25.708200 -31.567200
H -8.432400 -27.399700 -29.660400
C -8.405100 -20.218100 -28.577600
C -8.387300 -21.581200 -29.206900
H -8.269900 -22.220600 -28.473600
N -7.950700 -17.352400 -30.607200
H -7.863500 -20.668600 -32.253200
H -7.595300 -20.101800 -28.057900
N -7.576300 -18.164800 -29.618800
C -7.395400 -22.816400 -30.873700
C -7.263100 -21.194600 -32.729400
O -7.218000 -21.681400 -30.015700
H -7.010900 -19.840300 -34.165700
N -6.933800 -22.396400 -32.206000
H -6.814500 -23.540100 -30.558100
C -6.785500 -20.699100 -33.891700
C -6.044400 -23.221800 -32.854200
C -5.928200 -21.514300 -34.694800
O -5.640400 -24.259400 -32.406300
N -5.633300 -22.716100 -34.088200
O -5.483800 -21.216400 -35.789000
H -5.116500 -23.234900 -34.539900
40
Fragment
H -9.715700 -20.360500 -25.090900
O -9.348500 -22.379000 -26.340000
N -9.199000 -20.879300 -24.639200
O -9.191800 -19.336000 -22.957300
C -8.904100 -22.081100 -25.245800
C -8.787800 -20.373600 -23.405200
C -8.046800 -22.896300 -24.442700
H -8.017700 -20.055300 -21.109100
N -7.898500 -21.199000 -22.757000
H -7.821300 -23.755100 -24.716700
O -7.614300 -21.914000 -20.566700
C -7.569200 -22.400800 -23.280400
C -7.436900 -20.779000 -21.424700
N -7.255900 -25.430600 -20.169800
H -7.237000 -23.493600 -18.608900
H -6.968800 -22.926800 -22.804200
N -6.881600 -26.243000 -21.158200
H -6.562400 -21.374800 -19.024600
C -6.444900 -22.014200 -19.757900
C -6.427100 -23.377300 -19.128600
H -6.399800 -16.195700 -20.211400
O -6.335200 -17.887200 -22.118200
N -6.331000 -24.462800 -20.103700
H -6.161300 -17.266700 -19.092600
C -6.059300 -18.039800 -20.954100
C -5.991600 -20.334300 -21.281000
O -5.882500 -19.232800 -20.409800
C -5.875900 -16.958600 -19.956300
C -5.760800 -25.747400 -21.713800
H -5.673600 -23.434000 -18.521900
H -5.588200 -20.142500 -22.152200
C -5.376400 -24.619800 -21.048600
H -5.314700 -26.118000 -22.439500
C -5.311700 -21.483800 -20.606400
H -4.949200 -16.711600 -19.918500
O -4.877400 -22.373200 -21.649500
H -4.560000 -21.183000 -20.054600
C -4.301900 -23.631600 -21.222500
H -3.828500 -23.509500 -20.385300
H -3.668900 -23.947000 -21.885800
80
Fragment
H -11.163300 -19.648400 -31.334800
H -11.003700 -20.085900 -29.834300
C -10.530300 -19.963800 -30.671500
H -10.272200 -22.412400 -29.503600
O -9.954800 -21.222200 -31.098500
H -9.883000 -26.883800 -29.367500
C -9.520500 -22.111600 -30.055400
H -9.517600 -17.477400 -31.888500
C -9.455900 -18.975600 -30.497600
H -9.244100 -23.452900 -31.601200
H -9.158600 -20.161400 -27.970900
C -9.071400 -17.848000 -31.162800
C -8.956300 -26.636800 -29.405300
O -8.949800 -24.362600 -29.858800
C -8.840600 -23.261100 -30.730000
C -8.773000 -25.555600 -30.403100
H -8.670900 -26.328700 -28.541600
N -8.501300 -19.132600 -29.552700
O -8.497100 -25.708200 -31.567200
H -8.432400 -27.399700 -29.660400
C -8.405100 -20.218100 -28.577600
C -8.387300 -21.581200 -29.206900
H -8.269900 -22.220600 -28.473600
N -7.950700 -17.352400 -30.607200
H -7.863500 -20.668600 -32.253200
H -7.595300 -20.101800 -28.057900
N -7.576300 -18.164800 -29.618800
C -7.395400 -22.816400 -30.873700
C -7.263100 -21.194600 -32.729400
O -7.218000 -21.681400 -30.015700
H -7.010900 -19.840300 -34.165700
N -6.933800 -22.396400 -32.206000
H -6.814500 -23.540100 -30.558100
C -6.785500 -20.699100 -33.891700
C -6.044400 -23.221800 -32.854200
C -5.928200 -21.514300 -34.694800
O -5.640400 -24.259400 -32.406300
N -5.633300 -22.716100 -34.088200
O -5.483800 -21.216400 -35.789000
H -5.116500 -23.234900 -34.539900
H -9.715700 -20.360500 -25.090900
O -9.348500 -22.379000 -26.340000
N -9.199000 -20.879300 -24.639200
O -9.191800 -19.336000 -22.957300
C -8.904100 -22.081100 -25.245800
C -8.787800 -20.373600 -23.405200
C -8.046800 -22.896300 -24.442700
H -8.017700 -20.055300 -21.109100
N -7.898500 -21.199000 -22.757000
H -7.821300 -23.755100 -24.716700
O -7.614300 -21.914000 -20.566700
C -7.569200 -22.400800 -23.280400
C -7.436900 -20.779000 -21.424700
N -7.255900 -25.430600 -20.169800
H -7.237000 -23.493600 -18.608900
H -6.968800 -22.926800 -22.804200
N -6.881600 -26.243000 -21.158200
H -6.562400 -21.374800 -19.024600
C -6.444900 -22.014200 -19.757900
C -6.427100 -23.377300 -19.128600
H -6.399800 -16.195700 -20.211400
O -6.335200 -17.887200 -22.118200
N -6.331000 -24.462800 -20.103700
H -6.161300 -17.266700 -19.092600
C -6.059300 -18.039800 -20.954100
C -5.991600 -20.334300 -21.281000
O -5.882500 -19.232800 -20.409800
C -5.875900 -16.958600 -19.956300
C -5.760800 -25.747400 -21.713800
H -5.673600 -23.434000 -18.521900
H -5.588200 -20.142500 -22.152200
C -5.376400 -24.619800 -21.048600
H -5.314700 -26.118000 -22.439500
C -5.311700 -21.483800 -20.606400
H -4.949200 -16.711600 -19.918500
O -4.877400 -22.373200 -21.649500
H -4.560000 -21.183000 -20.054600
C -4.301900 -23.631600 -21.222500
H -3.828500 -23.509500 -20.385300
H -3.668900 -23.947000 -21.885800
