40
Fragment
H -11.163300 -19.648400 -31.334800
H -11.003700 -20.085900 -29.834300
C -10.530300 -19.963800 -30.671500
H -10.272200 -22.412400 -29.503600
O -9.954800 -21.222200 -31.098500
H -9.883000 -26.883800 -29.367500
C -9.520500 -22.111600 -30.055400
H -9.517600 -17.477400 -31.888500
C -9.455900 -18.975600 -30.497600
H -9.244100 -23.452900 -31.601200
H -9.158600 -20.161400 -27.970900
C -9.071400 -17.848000 -31.162800
C -8.956300 -26.636800 -29.405300
O -8.949800 -24.362600 -29.858800
C -8.840600 -23.261100 -30.730000
C -8.773000 -25.555600 -30.403100
H -8.670900 -26.328700 -28.541600
N -8.501300 -19.132600 -29.552700
O -8.497100 -25.708200 -31.567200
H -8.432400 -27.399700 -29.660400
C -8.405100 -20.218100 -28.577600
C -8.387300 -21.581200 -29.206900
H -8.269900 -22.220600 -28.473600
N -7.950700 -17.352400 -30.607200
H -7.863500 -20.668600 -32.253200
H -7.595300 -20.101800 -28.057900
N -7.576300 -18.164800 -29.618800
C -7.395400 -22.816400 -30.873700
C -7.263100 -21.194600 -32.729400
O -7.218000 -21.681400 -30.015700
H -7.010900 -19.840300 -34.165700
N -6.933800 -22.396400 -32.206000
H -6.814500 -23.540100 -30.558100
C -6.785500 -20.699100 -33.891700
C -6.044400 -23.221800 -32.854200
C -5.928200 -21.514300 -34.694800
O -5.640400 -24.259400 -32.406300
N -5.633300 -22.716100 -34.088200
O -5.483800 -21.216400 -35.789000
H -5.116500 -23.234900 -34.539900
40
Fragment
H -6.749300 -30.500800 -31.603100
O -6.382000 -28.482300 -30.354000
N -6.232500 -29.982000 -32.054800
O -6.225400 -31.525300 -33.736700
C -5.937600 -28.780200 -31.448200
C -5.821400 -30.487700 -33.288800
C -5.080300 -27.965000 -32.251300
H -5.051300 -30.806000 -35.584900
N -4.932000 -29.662300 -33.937000
H -4.854900 -27.106200 -31.977300
O -4.647800 -28.947300 -36.127300
C -4.602700 -28.460500 -33.413600
C -4.470400 -30.082300 -35.269300
N -4.289500 -25.430600 -36.524200
H -4.270500 -27.367700 -38.085100
H -4.002300 -27.934500 -33.889800
N -3.915100 -24.618300 -35.535800
H -3.595900 -29.486500 -37.669400
C -3.478500 -28.847100 -36.936100
C -3.460700 -27.484000 -37.565400
H -3.433400 -34.665600 -36.482600
O -3.368700 -32.974100 -34.575800
N -3.364500 -26.398500 -36.590300
H -3.194900 -33.594600 -37.601400
C -3.092800 -32.821500 -35.739900
C -3.025200 -30.527000 -35.413000
O -2.916000 -31.628500 -36.284200
C -2.909500 -33.902700 -36.737700
C -2.794400 -25.113900 -34.980200
H -2.707200 -27.427300 -38.172100
H -2.621700 -30.718800 -34.541800
C -2.409900 -26.241500 -35.645400
H -2.348200 -24.743300 -34.254500
C -2.345300 -29.377500 -36.087600
H -1.982800 -34.149700 -36.775500
O -1.911000 -28.488100 -35.044500
H -1.593600 -29.678300 -36.639400
C -1.335500 -27.229700 -35.471500
H -0.862100 -27.351800 -36.308700
H -0.702500 -26.914300 -34.808200
80
Fragment
H -11.163300 -19.648400 -31.334800
H -11.003700 -20.085900 -29.834300
C -10.530300 -19.963800 -30.671500
H -10.272200 -22.412400 -29.503600
O -9.954800 -21.222200 -31.098500
H -9.883000 -26.883800 -29.367500
C -9.520500 -22.111600 -30.055400
H -9.517600 -17.477400 -31.888500
C -9.455900 -18.975600 -30.497600
H -9.244100 -23.452900 -31.601200
H -9.158600 -20.161400 -27.970900
C -9.071400 -17.848000 -31.162800
C -8.956300 -26.636800 -29.405300
O -8.949800 -24.362600 -29.858800
C -8.840600 -23.261100 -30.730000
C -8.773000 -25.555600 -30.403100
H -8.670900 -26.328700 -28.541600
N -8.501300 -19.132600 -29.552700
O -8.497100 -25.708200 -31.567200
H -8.432400 -27.399700 -29.660400
C -8.405100 -20.218100 -28.577600
C -8.387300 -21.581200 -29.206900
H -8.269900 -22.220600 -28.473600
N -7.950700 -17.352400 -30.607200
H -7.863500 -20.668600 -32.253200
H -7.595300 -20.101800 -28.057900
N -7.576300 -18.164800 -29.618800
C -7.395400 -22.816400 -30.873700
C -7.263100 -21.194600 -32.729400
O -7.218000 -21.681400 -30.015700
H -7.010900 -19.840300 -34.165700
N -6.933800 -22.396400 -32.206000
H -6.814500 -23.540100 -30.558100
C -6.785500 -20.699100 -33.891700
C -6.044400 -23.221800 -32.854200
C -5.928200 -21.514300 -34.694800
O -5.640400 -24.259400 -32.406300
N -5.633300 -22.716100 -34.088200
O -5.483800 -21.216400 -35.789000
H -5.116500 -23.234900 -34.539900
H -6.749300 -30.500800 -31.603100
O -6.382000 -28.482300 -30.354000
N -6.232500 -29.982000 -32.054800
O -6.225400 -31.525300 -33.736700
C -5.937600 -28.780200 -31.448200
C -5.821400 -30.487700 -33.288800
C -5.080300 -27.965000 -32.251300
H -5.051300 -30.806000 -35.584900
N -4.932000 -29.662300 -33.937000
H -4.854900 -27.106200 -31.977300
O -4.647800 -28.947300 -36.127300
C -4.602700 -28.460500 -33.413600
C -4.470400 -30.082300 -35.269300
N -4.289500 -25.430600 -36.524200
H -4.270500 -27.367700 -38.085100
H -4.002300 -27.934500 -33.889800
N -3.915100 -24.618300 -35.535800
H -3.595900 -29.486500 -37.669400
C -3.478500 -28.847100 -36.936100
C -3.460700 -27.484000 -37.565400
H -3.433400 -34.665600 -36.482600
O -3.368700 -32.974100 -34.575800
N -3.364500 -26.398500 -36.590300
H -3.194900 -33.594600 -37.601400
C -3.092800 -32.821500 -35.739900
C -3.025200 -30.527000 -35.413000
O -2.916000 -31.628500 -36.284200
C -2.909500 -33.902700 -36.737700
C -2.794400 -25.113900 -34.980200
H -2.707200 -27.427300 -38.172100
H -2.621700 -30.718800 -34.541800
C -2.409900 -26.241500 -35.645400
H -2.348200 -24.743300 -34.254500
C -2.345300 -29.377500 -36.087600
H -1.982800 -34.149700 -36.775500
O -1.911000 -28.488100 -35.044500
H -1.593600 -29.678300 -36.639400
C -1.335500 -27.229700 -35.471500
H -0.862100 -27.351800 -36.308700
H -0.702500 -26.914300 -34.808200
