25
Fragment
H -15.622100 -18.908300 -16.165100
O -15.364300 -19.361500 -16.836800
H -14.984900 -21.162200 -18.340300
C -14.531700 -18.687100 -17.590500
C -14.434200 -20.750900 -18.967200
H -14.283800 -22.348100 -20.174000
O -14.217000 -17.526000 -17.334100
C -14.047000 -19.426300 -18.768800
C -14.020100 -21.462400 -20.065300
C -13.212100 -20.858500 -21.006600
C -13.199600 -18.836000 -19.725200
H -13.080500 -17.065600 -18.828400
H -12.945600 -21.336900 -21.758300
C -12.797800 -19.561600 -20.845300
N -12.781100 -17.513700 -19.549100
N -12.366300 -14.376000 -18.169600
H -12.248500 -19.166600 -21.483500
C -12.013100 -14.927700 -19.109400
N -11.995900 -16.933000 -20.445300
C -11.618000 -15.704200 -20.254600
C -10.717400 -15.056700 -21.227800
H -10.622000 -16.577400 -22.471800
N -10.369000 -15.729800 -22.305300
O -10.340300 -13.891800 -20.980600
H -9.782300 -15.383700 -22.893300
12
Fragment
O -14.348000 -13.468500 -14.521900
C -13.201500 -13.695000 -14.866500
H -13.135300 -11.879600 -13.230300
H -13.063500 -14.425900 -15.425600
C -12.257600 -11.875300 -13.620300
H -12.127700 -11.057100 -14.105300
N -12.126200 -12.988600 -14.516100
H -11.598900 -11.943500 -12.925300
H -10.880700 -14.131300 -15.556300
C -10.808500 -13.377300 -14.966200
H -10.401100 -12.643800 -15.434100
H -10.267400 -13.613500 -14.209600
37
Fragment
H -15.622100 -18.908300 -16.165100
O -15.364300 -19.361500 -16.836800
H -14.984900 -21.162200 -18.340300
C -14.531700 -18.687100 -17.590500
C -14.434200 -20.750900 -18.967200
H -14.283800 -22.348100 -20.174000
O -14.217000 -17.526000 -17.334100
C -14.047000 -19.426300 -18.768800
C -14.020100 -21.462400 -20.065300
C -13.212100 -20.858500 -21.006600
C -13.199600 -18.836000 -19.725200
H -13.080500 -17.065600 -18.828400
H -12.945600 -21.336900 -21.758300
C -12.797800 -19.561600 -20.845300
N -12.781100 -17.513700 -19.549100
N -12.366300 -14.376000 -18.169600
H -12.248500 -19.166600 -21.483500
C -12.013100 -14.927700 -19.109400
N -11.995900 -16.933000 -20.445300
C -11.618000 -15.704200 -20.254600
C -10.717400 -15.056700 -21.227800
H -10.622000 -16.577400 -22.471800
N -10.369000 -15.729800 -22.305300
O -10.340300 -13.891800 -20.980600
H -9.782300 -15.383700 -22.893300
O -14.348000 -13.468500 -14.521900
C -13.201500 -13.695000 -14.866500
H -13.135300 -11.879600 -13.230300
H -13.063500 -14.425900 -15.425600
C -12.257600 -11.875300 -13.620300
H -12.127700 -11.057100 -14.105300
N -12.126200 -12.988600 -14.516100
H -11.598900 -11.943500 -12.925300
H -10.880700 -14.131300 -15.556300
C -10.808500 -13.377300 -14.966200
H -10.401100 -12.643800 -15.434100
H -10.267400 -13.613500 -14.209600
