25
Fragment
H -15.622100 -18.908300 -16.165100
O -15.364300 -19.361500 -16.836800
H -14.984900 -21.162200 -18.340300
C -14.531700 -18.687100 -17.590500
C -14.434200 -20.750900 -18.967200
H -14.283800 -22.348100 -20.174000
O -14.217000 -17.526000 -17.334100
C -14.047000 -19.426300 -18.768800
C -14.020100 -21.462400 -20.065300
C -13.212100 -20.858500 -21.006600
C -13.199600 -18.836000 -19.725200
H -13.080500 -17.065600 -18.828400
H -12.945600 -21.336900 -21.758300
C -12.797800 -19.561600 -20.845300
N -12.781100 -17.513700 -19.549100
N -12.366300 -14.376000 -18.169600
H -12.248500 -19.166600 -21.483500
C -12.013100 -14.927700 -19.109400
N -11.995900 -16.933000 -20.445300
C -11.618000 -15.704200 -20.254600
C -10.717400 -15.056700 -21.227800
H -10.622000 -16.577400 -22.471800
N -10.369000 -15.729800 -22.305300
O -10.340300 -13.891800 -20.980600
H -9.782300 -15.383700 -22.893300
25
Fragment
H -19.132100 -14.579700 -7.306900
O -18.710300 -14.009800 -7.776200
O -18.459000 -15.615500 -9.299700
C -18.295500 -14.450300 -8.945700
N -18.032700 -18.285300 -11.620500
H -17.887700 -11.888500 -8.485500
C -17.623700 -13.421300 -9.776200
H -17.569100 -15.644100 -10.967600
C -17.514800 -12.113400 -9.306900
C -17.427700 -17.602900 -12.302200
N -17.159300 -15.043200 -11.497800
C -17.051100 -13.737800 -11.023000
C -16.859800 -11.143800 -10.048800
H -16.794800 -10.273800 -9.728100
C -16.697200 -16.615700 -13.051100
N -16.582800 -15.389100 -12.639100
C -16.384200 -12.762000 -11.758300
C -16.304200 -11.478700 -11.265700
O -16.236300 -18.219000 -14.682300
C -16.073900 -17.039000 -14.314200
H -15.996500 -12.974700 -12.577000
H -15.867400 -10.825700 -11.762800
N -15.376200 -16.155500 -14.989900
H -15.230200 -15.297000 -14.763100
H -14.997000 -16.379700 -15.774900
50
Fragment
H -15.622100 -18.908300 -16.165100
O -15.364300 -19.361500 -16.836800
H -14.984900 -21.162200 -18.340300
C -14.531700 -18.687100 -17.590500
C -14.434200 -20.750900 -18.967200
H -14.283800 -22.348100 -20.174000
O -14.217000 -17.526000 -17.334100
C -14.047000 -19.426300 -18.768800
C -14.020100 -21.462400 -20.065300
C -13.212100 -20.858500 -21.006600
C -13.199600 -18.836000 -19.725200
H -13.080500 -17.065600 -18.828400
H -12.945600 -21.336900 -21.758300
C -12.797800 -19.561600 -20.845300
N -12.781100 -17.513700 -19.549100
N -12.366300 -14.376000 -18.169600
H -12.248500 -19.166600 -21.483500
C -12.013100 -14.927700 -19.109400
N -11.995900 -16.933000 -20.445300
C -11.618000 -15.704200 -20.254600
C -10.717400 -15.056700 -21.227800
H -10.622000 -16.577400 -22.471800
N -10.369000 -15.729800 -22.305300
O -10.340300 -13.891800 -20.980600
H -9.782300 -15.383700 -22.893300
H -19.132100 -14.579700 -7.306900
O -18.710300 -14.009800 -7.776200
O -18.459000 -15.615500 -9.299700
C -18.295500 -14.450300 -8.945700
N -18.032700 -18.285300 -11.620500
H -17.887700 -11.888500 -8.485500
C -17.623700 -13.421300 -9.776200
H -17.569100 -15.644100 -10.967600
C -17.514800 -12.113400 -9.306900
C -17.427700 -17.602900 -12.302200
N -17.159300 -15.043200 -11.497800
C -17.051100 -13.737800 -11.023000
C -16.859800 -11.143800 -10.048800
H -16.794800 -10.273800 -9.728100
C -16.697200 -16.615700 -13.051100
N -16.582800 -15.389100 -12.639100
C -16.384200 -12.762000 -11.758300
C -16.304200 -11.478700 -11.265700
O -16.236300 -18.219000 -14.682300
C -16.073900 -17.039000 -14.314200
H -15.996500 -12.974700 -12.577000
H -15.867400 -10.825700 -11.762800
N -15.376200 -16.155500 -14.989900
H -15.230200 -15.297000 -14.763100
H -14.997000 -16.379700 -15.774900
