25
Fragment
H -15.622100 -18.908300 -16.165100
O -15.364300 -19.361500 -16.836800
H -14.984900 -21.162200 -18.340300
C -14.531700 -18.687100 -17.590500
C -14.434200 -20.750900 -18.967200
H -14.283800 -22.348100 -20.174000
O -14.217000 -17.526000 -17.334100
C -14.047000 -19.426300 -18.768800
C -14.020100 -21.462400 -20.065300
C -13.212100 -20.858500 -21.006600
C -13.199600 -18.836000 -19.725200
H -13.080500 -17.065600 -18.828400
H -12.945600 -21.336900 -21.758300
C -12.797800 -19.561600 -20.845300
N -12.781100 -17.513700 -19.549100
N -12.366300 -14.376000 -18.169600
H -12.248500 -19.166600 -21.483500
C -12.013100 -14.927700 -19.109400
N -11.995900 -16.933000 -20.445300
C -11.618000 -15.704200 -20.254600
C -10.717400 -15.056700 -21.227800
H -10.622000 -16.577400 -22.471800
N -10.369000 -15.729800 -22.305300
O -10.340300 -13.891800 -20.980600
H -9.782300 -15.383700 -22.893300
25
Fragment
H -8.286200 -17.951400 -21.090300
O -7.728200 -19.443300 -23.003000
N -7.699500 -17.605300 -21.678300
H -7.446500 -16.757700 -21.511800
C -7.351100 -18.278400 -22.755800
C -6.450500 -17.630900 -23.729000
N -6.072600 -16.402200 -23.538300
C -6.055400 -18.407400 -24.874200
H -5.820000 -14.168500 -22.500100
N -5.702200 -18.959100 -25.814000
N -5.287400 -15.821400 -24.434500
C -5.270700 -13.773500 -23.138300
H -5.122900 -11.998200 -22.225400
H -4.988000 -16.269500 -25.155300
C -4.868900 -14.499100 -24.258400
C -4.856400 -12.476600 -22.977000
C -4.048400 -11.872700 -23.918300
C -4.021500 -13.908800 -25.214800
O -3.851500 -15.809200 -26.649500
H -3.784700 -10.987000 -23.809600
C -3.634300 -12.584200 -25.016400
C -3.536800 -14.648000 -26.393100
H -3.083600 -12.172900 -25.643300
O -2.704200 -13.973600 -27.146800
H -2.446400 -14.426800 -27.818500
50
Fragment
H -15.622100 -18.908300 -16.165100
O -15.364300 -19.361500 -16.836800
H -14.984900 -21.162200 -18.340300
C -14.531700 -18.687100 -17.590500
C -14.434200 -20.750900 -18.967200
H -14.283800 -22.348100 -20.174000
O -14.217000 -17.526000 -17.334100
C -14.047000 -19.426300 -18.768800
C -14.020100 -21.462400 -20.065300
C -13.212100 -20.858500 -21.006600
C -13.199600 -18.836000 -19.725200
H -13.080500 -17.065600 -18.828400
H -12.945600 -21.336900 -21.758300
C -12.797800 -19.561600 -20.845300
N -12.781100 -17.513700 -19.549100
N -12.366300 -14.376000 -18.169600
H -12.248500 -19.166600 -21.483500
C -12.013100 -14.927700 -19.109400
N -11.995900 -16.933000 -20.445300
C -11.618000 -15.704200 -20.254600
C -10.717400 -15.056700 -21.227800
H -10.622000 -16.577400 -22.471800
N -10.369000 -15.729800 -22.305300
O -10.340300 -13.891800 -20.980600
H -9.782300 -15.383700 -22.893300
H -8.286200 -17.951400 -21.090300
O -7.728200 -19.443300 -23.003000
N -7.699500 -17.605300 -21.678300
H -7.446500 -16.757700 -21.511800
C -7.351100 -18.278400 -22.755800
C -6.450500 -17.630900 -23.729000
N -6.072600 -16.402200 -23.538300
C -6.055400 -18.407400 -24.874200
H -5.820000 -14.168500 -22.500100
N -5.702200 -18.959100 -25.814000
N -5.287400 -15.821400 -24.434500
C -5.270700 -13.773500 -23.138300
H -5.122900 -11.998200 -22.225400
H -4.988000 -16.269500 -25.155300
C -4.868900 -14.499100 -24.258400
C -4.856400 -12.476600 -22.977000
C -4.048400 -11.872700 -23.918300
C -4.021500 -13.908800 -25.214800
O -3.851500 -15.809200 -26.649500
H -3.784700 -10.987000 -23.809600
C -3.634300 -12.584200 -25.016400
C -3.536800 -14.648000 -26.393100
H -3.083600 -12.172900 -25.643300
O -2.704200 -13.973600 -27.146800
H -2.446400 -14.426800 -27.818500
