25
Fragment
H -15.622100 -18.908300 -16.165100
O -15.364300 -19.361500 -16.836800
H -14.984900 -21.162200 -18.340300
C -14.531700 -18.687100 -17.590500
C -14.434200 -20.750900 -18.967200
H -14.283800 -22.348100 -20.174000
O -14.217000 -17.526000 -17.334100
C -14.047000 -19.426300 -18.768800
C -14.020100 -21.462400 -20.065300
C -13.212100 -20.858500 -21.006600
C -13.199600 -18.836000 -19.725200
H -13.080500 -17.065600 -18.828400
H -12.945600 -21.336900 -21.758300
C -12.797800 -19.561600 -20.845300
N -12.781100 -17.513700 -19.549100
N -12.366300 -14.376000 -18.169600
H -12.248500 -19.166600 -21.483500
C -12.013100 -14.927700 -19.109400
N -11.995900 -16.933000 -20.445300
C -11.618000 -15.704200 -20.254600
C -10.717400 -15.056700 -21.227800
H -10.622000 -16.577400 -22.471800
N -10.369000 -15.729800 -22.305300
O -10.340300 -13.891800 -20.980600
H -9.782300 -15.383700 -22.893300
25
Fragment
H -16.234300 -17.951400 -21.090300
O -15.676300 -19.443300 -23.003000
N -15.647600 -17.605300 -21.678300
H -15.394600 -16.757700 -21.511800
C -15.299200 -18.278400 -22.755800
C -14.398600 -17.630900 -23.729000
N -14.020700 -16.402200 -23.538300
C -14.003500 -18.407400 -24.874200
H -13.768100 -14.168500 -22.500100
N -13.650300 -18.959100 -25.814000
N -13.235500 -15.821400 -24.434500
C -13.218800 -13.773500 -23.138300
H -13.071000 -11.998200 -22.225400
H -12.936100 -16.269500 -25.155300
C -12.817000 -14.499100 -24.258400
C -12.804500 -12.476600 -22.977000
C -11.996500 -11.872700 -23.918300
C -11.969600 -13.908800 -25.214800
O -11.799600 -15.809200 -26.649500
H -11.732800 -10.987000 -23.809600
C -11.582400 -12.584200 -25.016400
C -11.484900 -14.648000 -26.393100
H -11.031700 -12.172900 -25.643300
O -10.652300 -13.973600 -27.146800
H -10.394500 -14.426800 -27.818500
50
Fragment
H -15.622100 -18.908300 -16.165100
O -15.364300 -19.361500 -16.836800
H -14.984900 -21.162200 -18.340300
C -14.531700 -18.687100 -17.590500
C -14.434200 -20.750900 -18.967200
H -14.283800 -22.348100 -20.174000
O -14.217000 -17.526000 -17.334100
C -14.047000 -19.426300 -18.768800
C -14.020100 -21.462400 -20.065300
C -13.212100 -20.858500 -21.006600
C -13.199600 -18.836000 -19.725200
H -13.080500 -17.065600 -18.828400
H -12.945600 -21.336900 -21.758300
C -12.797800 -19.561600 -20.845300
N -12.781100 -17.513700 -19.549100
N -12.366300 -14.376000 -18.169600
H -12.248500 -19.166600 -21.483500
C -12.013100 -14.927700 -19.109400
N -11.995900 -16.933000 -20.445300
C -11.618000 -15.704200 -20.254600
C -10.717400 -15.056700 -21.227800
H -10.622000 -16.577400 -22.471800
N -10.369000 -15.729800 -22.305300
O -10.340300 -13.891800 -20.980600
H -9.782300 -15.383700 -22.893300
H -16.234300 -17.951400 -21.090300
O -15.676300 -19.443300 -23.003000
N -15.647600 -17.605300 -21.678300
H -15.394600 -16.757700 -21.511800
C -15.299200 -18.278400 -22.755800
C -14.398600 -17.630900 -23.729000
N -14.020700 -16.402200 -23.538300
C -14.003500 -18.407400 -24.874200
H -13.768100 -14.168500 -22.500100
N -13.650300 -18.959100 -25.814000
N -13.235500 -15.821400 -24.434500
C -13.218800 -13.773500 -23.138300
H -13.071000 -11.998200 -22.225400
H -12.936100 -16.269500 -25.155300
C -12.817000 -14.499100 -24.258400
C -12.804500 -12.476600 -22.977000
C -11.996500 -11.872700 -23.918300
C -11.969600 -13.908800 -25.214800
O -11.799600 -15.809200 -26.649500
H -11.732800 -10.987000 -23.809600
C -11.582400 -12.584200 -25.016400
C -11.484900 -14.648000 -26.393100
H -11.031700 -12.172900 -25.643300
O -10.652300 -13.973600 -27.146800
H -10.394500 -14.426800 -27.818500
