25
Fragment
H -15.622100 -18.908300 -16.165100
O -15.364300 -19.361500 -16.836800
H -14.984900 -21.162200 -18.340300
C -14.531700 -18.687100 -17.590500
C -14.434200 -20.750900 -18.967200
H -14.283800 -22.348100 -20.174000
O -14.217000 -17.526000 -17.334100
C -14.047000 -19.426300 -18.768800
C -14.020100 -21.462400 -20.065300
C -13.212100 -20.858500 -21.006600
C -13.199600 -18.836000 -19.725200
H -13.080500 -17.065600 -18.828400
H -12.945600 -21.336900 -21.758300
C -12.797800 -19.561600 -20.845300
N -12.781100 -17.513700 -19.549100
N -12.366300 -14.376000 -18.169600
H -12.248500 -19.166600 -21.483500
C -12.013100 -14.927700 -19.109400
N -11.995900 -16.933000 -20.445300
C -11.618000 -15.704200 -20.254600
C -10.717400 -15.056700 -21.227800
H -10.622000 -16.577400 -22.471800
N -10.369000 -15.729800 -22.305300
O -10.340300 -13.891800 -20.980600
H -9.782300 -15.383700 -22.893300
25
Fragment
H -20.770000 -18.695400 -13.547500
H -20.536900 -19.778100 -14.559300
N -20.390900 -18.919600 -14.332500
H -19.899600 -24.249400 -17.559600
H -19.770600 -22.100500 -16.745400
C -19.693200 -18.036100 -15.008200
O -19.530800 -16.856100 -14.640100
C -19.462900 -23.596400 -18.056700
C -19.382800 -22.313200 -17.564100
N -19.184200 -19.686100 -16.683300
C -19.069800 -18.459400 -16.271300
H -18.972200 -24.801300 -19.594300
C -18.907300 -23.931400 -19.273600
C -18.716000 -21.337300 -18.299400
N -18.607700 -20.031900 -17.824700
C -18.339400 -17.472200 -17.020200
C -18.252300 -22.961700 -20.015500
H -18.198000 -19.431000 -18.354800
C -18.143400 -21.653800 -19.546200
H -17.879400 -23.186600 -20.836900
N -17.734400 -16.789800 -17.701900
C -17.471600 -20.624800 -20.376700
O -17.308100 -19.459600 -20.022700
O -17.056800 -21.065300 -21.546300
H -16.635000 -20.495400 -22.015600
50
Fragment
H -15.622100 -18.908300 -16.165100
O -15.364300 -19.361500 -16.836800
H -14.984900 -21.162200 -18.340300
C -14.531700 -18.687100 -17.590500
C -14.434200 -20.750900 -18.967200
H -14.283800 -22.348100 -20.174000
O -14.217000 -17.526000 -17.334100
C -14.047000 -19.426300 -18.768800
C -14.020100 -21.462400 -20.065300
C -13.212100 -20.858500 -21.006600
C -13.199600 -18.836000 -19.725200
H -13.080500 -17.065600 -18.828400
H -12.945600 -21.336900 -21.758300
C -12.797800 -19.561600 -20.845300
N -12.781100 -17.513700 -19.549100
N -12.366300 -14.376000 -18.169600
H -12.248500 -19.166600 -21.483500
C -12.013100 -14.927700 -19.109400
N -11.995900 -16.933000 -20.445300
C -11.618000 -15.704200 -20.254600
C -10.717400 -15.056700 -21.227800
H -10.622000 -16.577400 -22.471800
N -10.369000 -15.729800 -22.305300
O -10.340300 -13.891800 -20.980600
H -9.782300 -15.383700 -22.893300
H -20.770000 -18.695400 -13.547500
H -20.536900 -19.778100 -14.559300
N -20.390900 -18.919600 -14.332500
H -19.899600 -24.249400 -17.559600
H -19.770600 -22.100500 -16.745400
C -19.693200 -18.036100 -15.008200
O -19.530800 -16.856100 -14.640100
C -19.462900 -23.596400 -18.056700
C -19.382800 -22.313200 -17.564100
N -19.184200 -19.686100 -16.683300
C -19.069800 -18.459400 -16.271300
H -18.972200 -24.801300 -19.594300
C -18.907300 -23.931400 -19.273600
C -18.716000 -21.337300 -18.299400
N -18.607700 -20.031900 -17.824700
C -18.339400 -17.472200 -17.020200
C -18.252300 -22.961700 -20.015500
H -18.198000 -19.431000 -18.354800
C -18.143400 -21.653800 -19.546200
H -17.879400 -23.186600 -20.836900
N -17.734400 -16.789800 -17.701900
C -17.471600 -20.624800 -20.376700
O -17.308100 -19.459600 -20.022700
O -17.056800 -21.065300 -21.546300
H -16.635000 -20.495400 -22.015600
