25
Fragment
H -15.622100 -18.908300 -16.165100
O -15.364300 -19.361500 -16.836800
H -14.984900 -21.162200 -18.340300
C -14.531700 -18.687100 -17.590500
C -14.434200 -20.750900 -18.967200
H -14.283800 -22.348100 -20.174000
O -14.217000 -17.526000 -17.334100
C -14.047000 -19.426300 -18.768800
C -14.020100 -21.462400 -20.065300
C -13.212100 -20.858500 -21.006600
C -13.199600 -18.836000 -19.725200
H -13.080500 -17.065600 -18.828400
H -12.945600 -21.336900 -21.758300
C -12.797800 -19.561600 -20.845300
N -12.781100 -17.513700 -19.549100
N -12.366300 -14.376000 -18.169600
H -12.248500 -19.166600 -21.483500
C -12.013100 -14.927700 -19.109400
N -11.995900 -16.933000 -20.445300
C -11.618000 -15.704200 -20.254600
C -10.717400 -15.056700 -21.227800
H -10.622000 -16.577400 -22.471800
N -10.369000 -15.729800 -22.305300
O -10.340300 -13.891800 -20.980600
H -9.782300 -15.383700 -22.893300
25
Fragment
H -9.381600 -12.839700 -21.968100
O -8.959800 -12.269800 -22.437400
O -8.708600 -13.875500 -23.961000
C -8.545100 -12.710300 -23.606900
N -8.282200 -16.545300 -26.281700
H -8.137200 -10.148500 -23.146700
C -7.873200 -11.681300 -24.437400
H -7.818600 -13.904100 -25.628800
C -7.764300 -10.373400 -23.968100
C -7.677200 -15.862900 -26.963400
N -7.408900 -13.303200 -26.159000
C -7.300600 -11.997800 -25.684200
C -7.109300 -9.403700 -24.710000
H -7.044400 -8.533800 -24.389400
C -6.946800 -14.875700 -27.712300
N -6.832400 -13.649000 -27.300300
C -6.633800 -11.021900 -26.419500
C -6.553800 -9.738700 -25.926900
O -6.485800 -16.479000 -29.343500
C -6.323400 -15.299000 -28.975400
H -6.246000 -11.234600 -27.238200
H -6.117000 -9.085700 -26.424000
N -5.625700 -14.415500 -29.651100
H -5.479700 -13.557000 -29.424300
H -5.246600 -14.639700 -30.436100
50
Fragment
H -15.622100 -18.908300 -16.165100
O -15.364300 -19.361500 -16.836800
H -14.984900 -21.162200 -18.340300
C -14.531700 -18.687100 -17.590500
C -14.434200 -20.750900 -18.967200
H -14.283800 -22.348100 -20.174000
O -14.217000 -17.526000 -17.334100
C -14.047000 -19.426300 -18.768800
C -14.020100 -21.462400 -20.065300
C -13.212100 -20.858500 -21.006600
C -13.199600 -18.836000 -19.725200
H -13.080500 -17.065600 -18.828400
H -12.945600 -21.336900 -21.758300
C -12.797800 -19.561600 -20.845300
N -12.781100 -17.513700 -19.549100
N -12.366300 -14.376000 -18.169600
H -12.248500 -19.166600 -21.483500
C -12.013100 -14.927700 -19.109400
N -11.995900 -16.933000 -20.445300
C -11.618000 -15.704200 -20.254600
C -10.717400 -15.056700 -21.227800
H -10.622000 -16.577400 -22.471800
N -10.369000 -15.729800 -22.305300
O -10.340300 -13.891800 -20.980600
H -9.782300 -15.383700 -22.893300
H -9.381600 -12.839700 -21.968100
O -8.959800 -12.269800 -22.437400
O -8.708600 -13.875500 -23.961000
C -8.545100 -12.710300 -23.606900
N -8.282200 -16.545300 -26.281700
H -8.137200 -10.148500 -23.146700
C -7.873200 -11.681300 -24.437400
H -7.818600 -13.904100 -25.628800
C -7.764300 -10.373400 -23.968100
C -7.677200 -15.862900 -26.963400
N -7.408900 -13.303200 -26.159000
C -7.300600 -11.997800 -25.684200
C -7.109300 -9.403700 -24.710000
H -7.044400 -8.533800 -24.389400
C -6.946800 -14.875700 -27.712300
N -6.832400 -13.649000 -27.300300
C -6.633800 -11.021900 -26.419500
C -6.553800 -9.738700 -25.926900
O -6.485800 -16.479000 -29.343500
C -6.323400 -15.299000 -28.975400
H -6.246000 -11.234600 -27.238200
H -6.117000 -9.085700 -26.424000
N -5.625700 -14.415500 -29.651100
H -5.479700 -13.557000 -29.424300
H -5.246600 -14.639700 -30.436100
