14
Fragment
H -30.862500 -13.600200 -29.379200
C -30.043900 -13.582400 -28.895700
H -29.685700 -15.501900 -28.526900
N -29.410300 -14.693600 -28.428200
N -29.387900 -12.484800 -28.599800
C -28.295100 -12.942200 -27.905500
C -28.274600 -14.313800 -27.779800
H -27.639100 -16.183700 -27.288000
O -27.546400 -10.809200 -27.547100
N -27.338000 -12.019200 -27.391500
C -27.335600 -15.265600 -27.129500
H -27.309000 -15.091000 -26.166100
H -26.438300 -15.148500 -27.508000
O -26.345300 -12.463500 -26.808000
14
Fragment
H -34.074200 -13.558500 -27.317800
C -33.250400 -13.576400 -26.844200
H -32.967800 -15.506800 -26.485300
N -32.660300 -14.708900 -26.390300
N -32.546000 -12.504200 -26.549100
C -31.501200 -14.379300 -25.761800
C -31.457900 -13.003700 -25.879100
H -31.110100 -15.952500 -24.524900
C -30.602600 -15.406600 -25.161400
O -30.582000 -10.918500 -25.597700
N -30.463100 -12.124400 -25.381200
H -30.243100 -15.980200 -25.870800
H -29.863900 -14.961900 -24.693400
O -29.512500 -12.606800 -24.754500
28
Fragment
H -30.862500 -13.600200 -29.379200
C -30.043900 -13.582400 -28.895700
H -29.685700 -15.501900 -28.526900
N -29.410300 -14.693600 -28.428200
N -29.387900 -12.484800 -28.599800
C -28.295100 -12.942200 -27.905500
C -28.274600 -14.313800 -27.779800
H -27.639100 -16.183700 -27.288000
O -27.546400 -10.809200 -27.547100
N -27.338000 -12.019200 -27.391500
C -27.335600 -15.265600 -27.129500
H -27.309000 -15.091000 -26.166100
H -26.438300 -15.148500 -27.508000
O -26.345300 -12.463500 -26.808000
H -34.074200 -13.558500 -27.317800
C -33.250400 -13.576400 -26.844200
H -32.967800 -15.506800 -26.485300
N -32.660300 -14.708900 -26.390300
N -32.546000 -12.504200 -26.549100
C -31.501200 -14.379300 -25.761800
C -31.457900 -13.003700 -25.879100
H -31.110100 -15.952500 -24.524900
C -30.602600 -15.406600 -25.161400
O -30.582000 -10.918500 -25.597700
N -30.463100 -12.124400 -25.381200
H -30.243100 -15.980200 -25.870800
H -29.863900 -14.961900 -24.693400
O -29.512500 -12.606800 -24.754500
