14
Fragment
H -30.862500 -13.600200 -29.379200
C -30.043900 -13.582400 -28.895700
H -29.685700 -15.501900 -28.526900
N -29.410300 -14.693600 -28.428200
N -29.387900 -12.484800 -28.599800
C -28.295100 -12.942200 -27.905500
C -28.274600 -14.313800 -27.779800
H -27.639100 -16.183700 -27.288000
O -27.546400 -10.809200 -27.547100
N -27.338000 -12.019200 -27.391500
C -27.335600 -15.265600 -27.129500
H -27.309000 -15.091000 -26.166100
H -26.438300 -15.148500 -27.508000
O -26.345300 -12.463500 -26.808000
14
Fragment
O -30.352900 -17.311500 -32.656000
H -30.259900 -14.626500 -31.956000
H -29.389200 -14.684000 -33.297900
C -29.362600 -14.509400 -32.334500
N -29.360200 -17.755800 -32.072500
O -29.151800 -18.965800 -31.916900
H -29.059100 -13.591300 -32.176000
C -28.423600 -15.461200 -31.684200
C -28.403100 -16.832800 -31.558500
N -27.310300 -17.290200 -30.864200
N -27.287900 -15.081400 -31.035800
H -27.012500 -14.273100 -30.937100
C -26.654300 -16.192600 -30.568300
H -25.835700 -16.174800 -30.084800
28
Fragment
H -30.862500 -13.600200 -29.379200
C -30.043900 -13.582400 -28.895700
H -29.685700 -15.501900 -28.526900
N -29.410300 -14.693600 -28.428200
N -29.387900 -12.484800 -28.599800
C -28.295100 -12.942200 -27.905500
C -28.274600 -14.313800 -27.779800
H -27.639100 -16.183700 -27.288000
O -27.546400 -10.809200 -27.547100
N -27.338000 -12.019200 -27.391500
C -27.335600 -15.265600 -27.129500
H -27.309000 -15.091000 -26.166100
H -26.438300 -15.148500 -27.508000
O -26.345300 -12.463500 -26.808000
O -30.352900 -17.311500 -32.656000
H -30.259900 -14.626500 -31.956000
H -29.389200 -14.684000 -33.297900
C -29.362600 -14.509400 -32.334500
N -29.360200 -17.755800 -32.072500
O -29.151800 -18.965800 -31.916900
H -29.059100 -13.591300 -32.176000
C -28.423600 -15.461200 -31.684200
C -28.403100 -16.832800 -31.558500
N -27.310300 -17.290200 -30.864200
N -27.287900 -15.081400 -31.035800
H -27.012500 -14.273100 -30.937100
C -26.654300 -16.192600 -30.568300
H -25.835700 -16.174800 -30.084800
