14
Fragment
H -30.862500 -13.600200 -29.379200
C -30.043900 -13.582400 -28.895700
H -29.685700 -15.501900 -28.526900
N -29.410300 -14.693600 -28.428200
N -29.387900 -12.484800 -28.599800
C -28.295100 -12.942200 -27.905500
C -28.274600 -14.313800 -27.779800
H -27.639100 -16.183700 -27.288000
O -27.546400 -10.809200 -27.547100
N -27.338000 -12.019200 -27.391500
C -27.335600 -15.265600 -27.129500
H -27.309000 -15.091000 -26.166100
H -26.438300 -15.148500 -27.508000
O -26.345300 -12.463500 -26.808000
14
Fragment
O -33.307600 -7.509800 -30.208900
H -32.807200 -9.839600 -30.719100
H -32.450000 -10.972100 -29.646800
N -32.248700 -7.064600 -29.762700
C -32.077000 -10.318000 -30.273700
O -32.025800 -5.859200 -29.642200
H -31.532100 -10.782500 -30.943100
C -31.256400 -7.980700 -29.342300
C -31.225500 -9.344400 -29.529400
N -30.176700 -7.523200 -28.625600
N -30.085800 -9.718600 -28.881300
H -29.786200 -10.521500 -28.818200
C -29.495300 -8.615900 -28.360000
H -28.686600 -8.630800 -27.862800
28
Fragment
H -30.862500 -13.600200 -29.379200
C -30.043900 -13.582400 -28.895700
H -29.685700 -15.501900 -28.526900
N -29.410300 -14.693600 -28.428200
N -29.387900 -12.484800 -28.599800
C -28.295100 -12.942200 -27.905500
C -28.274600 -14.313800 -27.779800
H -27.639100 -16.183700 -27.288000
O -27.546400 -10.809200 -27.547100
N -27.338000 -12.019200 -27.391500
C -27.335600 -15.265600 -27.129500
H -27.309000 -15.091000 -26.166100
H -26.438300 -15.148500 -27.508000
O -26.345300 -12.463500 -26.808000
O -33.307600 -7.509800 -30.208900
H -32.807200 -9.839600 -30.719100
H -32.450000 -10.972100 -29.646800
N -32.248700 -7.064600 -29.762700
C -32.077000 -10.318000 -30.273700
O -32.025800 -5.859200 -29.642200
H -31.532100 -10.782500 -30.943100
C -31.256400 -7.980700 -29.342300
C -31.225500 -9.344400 -29.529400
N -30.176700 -7.523200 -28.625600
N -30.085800 -9.718600 -28.881300
H -29.786200 -10.521500 -28.818200
C -29.495300 -8.615900 -28.360000
H -28.686600 -8.630800 -27.862800
