28
Fragment
H -1.797200 0.027900 -14.861400
H -1.679300 -0.520900 -12.593500
C -1.544000 -0.847200 -14.594800
C -1.476300 -1.172000 -13.252900
C -1.284100 -1.534700 -16.965500
C -1.251000 -1.799300 -15.558700
C -1.243000 -1.625200 -18.163000
C -1.133100 -2.011900 -19.471900
C -1.112000 -2.440100 -12.862600
H -1.067400 -2.651300 -11.939100
H -0.988100 -2.365200 -23.174800
C -0.960700 -2.582900 -20.512900
C -0.884700 -3.112800 -15.153800
C -0.825400 -3.408200 -13.798400
C -0.735700 -3.237200 -22.899500
C -0.676400 -3.532600 -21.544100
C -0.600400 -4.062500 -16.185000
H -0.572900 -4.280200 -13.523200
H -0.493700 -3.994100 -24.758900
C -0.449100 -4.205300 -23.835300
C -0.428000 -4.633500 -17.226000
C -0.318000 -5.020200 -18.534900
C -0.310100 -4.846100 -21.139200
C -0.277000 -5.110700 -19.732500
C -0.084800 -5.473400 -23.445100
C -0.017100 -5.798200 -22.103200
H 0.118200 -6.124500 -24.104400
H 0.236100 -6.673300 -21.836500
28
Fragment
H 0.993100 -6.459500 -14.861400
H 1.111000 -7.008300 -12.593500
C 1.246300 -7.334600 -14.594800
C 1.314000 -7.659400 -13.252900
C 1.506200 -8.022000 -16.965500
C 1.539300 -8.286700 -15.558700
C 1.547200 -8.112600 -18.163000
C 1.657200 -8.499300 -19.471900
C 1.678300 -8.927500 -12.862600
H 1.722900 -9.138700 -11.939100
H 1.802200 -8.852600 -23.174800
C 1.829600 -9.070300 -20.512900
C 1.905600 -9.600200 -15.153800
C 1.964900 -9.895600 -13.798400
C 2.054600 -9.724600 -22.899500
C 2.113900 -10.020000 -21.544100
C 2.189900 -10.549800 -16.185000
H 2.217300 -10.767600 -13.523200
H 2.296600 -10.481400 -24.758900
C 2.341200 -10.692600 -23.835300
C 2.362300 -11.120900 -17.226000
C 2.472300 -11.507500 -18.534900
C 2.480200 -11.333400 -21.139200
C 2.513300 -11.598100 -19.732500
C 2.705500 -11.960800 -23.445100
C 2.773200 -12.285600 -22.103200
H 2.908500 -12.611900 -24.104400
H 3.026400 -13.160700 -21.836500
56
Fragment
H -1.797200 0.027900 -14.861400
H -1.679300 -0.520900 -12.593500
C -1.544000 -0.847200 -14.594800
C -1.476300 -1.172000 -13.252900
C -1.284100 -1.534700 -16.965500
C -1.251000 -1.799300 -15.558700
C -1.243000 -1.625200 -18.163000
C -1.133100 -2.011900 -19.471900
C -1.112000 -2.440100 -12.862600
H -1.067400 -2.651300 -11.939100
H -0.988100 -2.365200 -23.174800
C -0.960700 -2.582900 -20.512900
C -0.884700 -3.112800 -15.153800
C -0.825400 -3.408200 -13.798400
C -0.735700 -3.237200 -22.899500
C -0.676400 -3.532600 -21.544100
C -0.600400 -4.062500 -16.185000
H -0.572900 -4.280200 -13.523200
H -0.493700 -3.994100 -24.758900
C -0.449100 -4.205300 -23.835300
C -0.428000 -4.633500 -17.226000
C -0.318000 -5.020200 -18.534900
C -0.310100 -4.846100 -21.139200
C -0.277000 -5.110700 -19.732500
C -0.084800 -5.473400 -23.445100
C -0.017100 -5.798200 -22.103200
H 0.118200 -6.124500 -24.104400
H 0.236100 -6.673300 -21.836500
H 0.993100 -6.459500 -14.861400
H 1.111000 -7.008300 -12.593500
C 1.246300 -7.334600 -14.594800
C 1.314000 -7.659400 -13.252900
C 1.506200 -8.022000 -16.965500
C 1.539300 -8.286700 -15.558700
C 1.547200 -8.112600 -18.163000
C 1.657200 -8.499300 -19.471900
C 1.678300 -8.927500 -12.862600
H 1.722900 -9.138700 -11.939100
H 1.802200 -8.852600 -23.174800
C 1.829600 -9.070300 -20.512900
C 1.905600 -9.600200 -15.153800
C 1.964900 -9.895600 -13.798400
C 2.054600 -9.724600 -22.899500
C 2.113900 -10.020000 -21.544100
C 2.189900 -10.549800 -16.185000
H 2.217300 -10.767600 -13.523200
H 2.296600 -10.481400 -24.758900
C 2.341200 -10.692600 -23.835300
C 2.362300 -11.120900 -17.226000
C 2.472300 -11.507500 -18.534900
C 2.480200 -11.333400 -21.139200
C 2.513300 -11.598100 -19.732500
C 2.705500 -11.960800 -23.445100
C 2.773200 -12.285600 -22.103200
H 2.908500 -12.611900 -24.104400
H 3.026400 -13.160700 -21.836500
