20
Fragment
N -10.665100 -10.296000 -58.682100
N -10.281700 -9.261100 -59.365600
N -9.962900 -10.405600 -57.526800
N -9.311900 -8.681300 -58.646700
C -9.122700 -9.382700 -57.523700
H -8.867300 -8.011200 -58.980300
H -8.633000 -10.610700 -55.258900
C -8.155400 -9.056500 -56.463800
C -8.072300 -9.872800 -55.340800
H -7.390700 -7.390600 -57.317500
C -7.328500 -7.944400 -56.571400
C -7.156600 -9.587800 -54.341400
H -7.098900 -10.137400 -53.592600
C -6.417600 -7.661500 -55.577600
C -6.322700 -8.479800 -54.456600
H -5.862900 -6.919400 -55.658100
C -5.335900 -8.185000 -53.391600
O -5.218800 -8.955800 -52.414400
O -4.633400 -7.121800 -53.544000
H -4.034600 -7.009100 -52.912200
3
Fragment
H -13.195400 -6.304600 -60.452200
O -12.751400 -6.724700 -59.849600
H -12.105600 -6.241900 -59.546100
23
Fragment
N -10.665100 -10.296000 -58.682100
N -10.281700 -9.261100 -59.365600
N -9.962900 -10.405600 -57.526800
N -9.311900 -8.681300 -58.646700
C -9.122700 -9.382700 -57.523700
H -8.867300 -8.011200 -58.980300
H -8.633000 -10.610700 -55.258900
C -8.155400 -9.056500 -56.463800
C -8.072300 -9.872800 -55.340800
H -7.390700 -7.390600 -57.317500
C -7.328500 -7.944400 -56.571400
C -7.156600 -9.587800 -54.341400
H -7.098900 -10.137400 -53.592600
C -6.417600 -7.661500 -55.577600
C -6.322700 -8.479800 -54.456600
H -5.862900 -6.919400 -55.658100
C -5.335900 -8.185000 -53.391600
O -5.218800 -8.955800 -52.414400
O -4.633400 -7.121800 -53.544000
H -4.034600 -7.009100 -52.912200
H -13.195400 -6.304600 -60.452200
O -12.751400 -6.724700 -59.849600
H -12.105600 -6.241900 -59.546100
