12
Fragment
H -29.708300 -11.129900 -17.525800
O -29.674900 -10.644900 -19.920400
N -28.919500 -11.389300 -17.922900
C -28.792500 -11.155700 -19.234000
H -28.773300 -10.776300 -21.796800
H -28.456100 -11.924600 -17.571900
N -28.004300 -11.086700 -22.020400
H -27.703900 -11.185600 -22.934300
N -27.574200 -11.533900 -19.766500
C -27.179000 -11.540500 -21.097300
H -26.944800 -11.804500 -19.241900
O -26.042400 -11.975700 -21.362900
12
Fragment
H -33.088900 -6.358700 -20.084700
O -32.907000 -6.329500 -22.509500
N -32.244700 -6.588900 -20.354300
C -32.036900 -6.604100 -21.708700
O -31.551900 -6.891400 -18.217500
C -31.314200 -6.927900 -19.410200
N -30.758700 -6.942500 -22.084800
H -30.563400 -6.873500 -22.947400
N -30.103400 -7.324600 -19.904600
C -29.758300 -7.336500 -21.232700
H -29.482400 -7.531600 -19.327300
O -28.647600 -7.654300 -21.618000
24
Fragment
H -29.708300 -11.129900 -17.525800
O -29.674900 -10.644900 -19.920400
N -28.919500 -11.389300 -17.922900
C -28.792500 -11.155700 -19.234000
H -28.773300 -10.776300 -21.796800
H -28.456100 -11.924600 -17.571900
N -28.004300 -11.086700 -22.020400
H -27.703900 -11.185600 -22.934300
N -27.574200 -11.533900 -19.766500
C -27.179000 -11.540500 -21.097300
H -26.944800 -11.804500 -19.241900
O -26.042400 -11.975700 -21.362900
H -33.088900 -6.358700 -20.084700
O -32.907000 -6.329500 -22.509500
N -32.244700 -6.588900 -20.354300
C -32.036900 -6.604100 -21.708700
O -31.551900 -6.891400 -18.217500
C -31.314200 -6.927900 -19.410200
N -30.758700 -6.942500 -22.084800
H -30.563400 -6.873500 -22.947400
N -30.103400 -7.324600 -19.904600
C -29.758300 -7.336500 -21.232700
H -29.482400 -7.531600 -19.327300
O -28.647600 -7.654300 -21.618000
