12
Fragment
H -29.708300 -11.129900 -17.525800
O -29.674900 -10.644900 -19.920400
N -28.919500 -11.389300 -17.922900
C -28.792500 -11.155700 -19.234000
H -28.773300 -10.776300 -21.796800
H -28.456100 -11.924600 -17.571900
N -28.004300 -11.086700 -22.020400
H -27.703900 -11.185600 -22.934300
N -27.574200 -11.533900 -19.766500
C -27.179000 -11.540500 -21.097300
H -26.944800 -11.804500 -19.241900
O -26.042400 -11.975700 -21.362900
12
Fragment
O -25.505600 -12.247700 -17.830900
H -24.670900 -12.370400 -20.121600
C -24.394900 -12.565500 -18.216200
N -24.049800 -12.577400 -19.544300
H -23.589800 -13.028500 -16.501500
N -23.394500 -12.959500 -17.364100
C -22.839100 -12.974100 -20.038700
O -22.601300 -13.010600 -21.231400
C -22.116300 -13.297900 -17.740200
N -21.908500 -13.313100 -19.094600
O -21.246200 -13.572500 -16.939400
H -21.064300 -13.543300 -19.364100
24
Fragment
H -29.708300 -11.129900 -17.525800
O -29.674900 -10.644900 -19.920400
N -28.919500 -11.389300 -17.922900
C -28.792500 -11.155700 -19.234000
H -28.773300 -10.776300 -21.796800
H -28.456100 -11.924600 -17.571900
N -28.004300 -11.086700 -22.020400
H -27.703900 -11.185600 -22.934300
N -27.574200 -11.533900 -19.766500
C -27.179000 -11.540500 -21.097300
H -26.944800 -11.804500 -19.241900
O -26.042400 -11.975700 -21.362900
O -25.505600 -12.247700 -17.830900
H -24.670900 -12.370400 -20.121600
C -24.394900 -12.565500 -18.216200
N -24.049800 -12.577400 -19.544300
H -23.589800 -13.028500 -16.501500
N -23.394500 -12.959500 -17.364100
C -22.839100 -12.974100 -20.038700
O -22.601300 -13.010600 -21.231400
C -22.116300 -13.297900 -17.740200
N -21.908500 -13.313100 -19.094600
O -21.246200 -13.572500 -16.939400
H -21.064300 -13.543300 -19.364100
