12
Fragment
H -29.708300 -11.129900 -17.525800
O -29.674900 -10.644900 -19.920400
N -28.919500 -11.389300 -17.922900
C -28.792500 -11.155700 -19.234000
H -28.773300 -10.776300 -21.796800
H -28.456100 -11.924600 -17.571900
N -28.004300 -11.086700 -22.020400
H -27.703900 -11.185600 -22.934300
N -27.574200 -11.533900 -19.766500
C -27.179000 -11.540500 -21.097300
H -26.944800 -11.804500 -19.241900
O -26.042400 -11.975700 -21.362900
12
Fragment
O -28.110800 -14.560300 -18.086000
H -27.208400 -14.731500 -20.207000
C -26.974200 -14.995500 -18.351600
N -26.579000 -15.002100 -19.682400
H -26.449300 -15.350400 -16.514600
N -26.148900 -15.449300 -17.428500
H -25.697100 -14.611400 -21.877000
H -25.379900 -15.759700 -17.652100
C -25.360700 -15.380300 -20.214900
N -25.233800 -15.146700 -21.525900
O -24.478300 -15.891100 -19.528500
H -24.444900 -15.406100 -21.923100
24
Fragment
H -29.708300 -11.129900 -17.525800
O -29.674900 -10.644900 -19.920400
N -28.919500 -11.389300 -17.922900
C -28.792500 -11.155700 -19.234000
H -28.773300 -10.776300 -21.796800
H -28.456100 -11.924600 -17.571900
N -28.004300 -11.086700 -22.020400
H -27.703900 -11.185600 -22.934300
N -27.574200 -11.533900 -19.766500
C -27.179000 -11.540500 -21.097300
H -26.944800 -11.804500 -19.241900
O -26.042400 -11.975700 -21.362900
O -28.110800 -14.560300 -18.086000
H -27.208400 -14.731500 -20.207000
C -26.974200 -14.995500 -18.351600
N -26.579000 -15.002100 -19.682400
H -26.449300 -15.350400 -16.514600
N -26.148900 -15.449300 -17.428500
H -25.697100 -14.611400 -21.877000
H -25.379900 -15.759700 -17.652100
C -25.360700 -15.380300 -20.214900
N -25.233800 -15.146700 -21.525900
O -24.478300 -15.891100 -19.528500
H -24.444900 -15.406100 -21.923100
