12
Fragment
H -29.708300 -11.129900 -17.525800
O -29.674900 -10.644900 -19.920400
N -28.919500 -11.389300 -17.922900
C -28.792500 -11.155700 -19.234000
H -28.773300 -10.776300 -21.796800
H -28.456100 -11.924600 -17.571900
N -28.004300 -11.086700 -22.020400
H -27.703900 -11.185600 -22.934300
N -27.574200 -11.533900 -19.766500
C -27.179000 -11.540500 -21.097300
H -26.944800 -11.804500 -19.241900
O -26.042400 -11.975700 -21.362900
12
Fragment
H -31.007800 -8.772100 -10.951000
O -30.974400 -9.257100 -13.345600
N -30.218900 -8.512700 -11.348100
C -30.092000 -8.746300 -12.659100
H -30.072800 -9.125700 -15.222000
H -29.755500 -7.977400 -10.997000
N -29.303800 -8.815300 -15.445600
H -29.003400 -8.716400 -16.359500
N -28.873700 -8.368100 -13.191700
C -28.478500 -8.361500 -14.522500
H -28.244300 -8.097500 -12.667000
O -27.341900 -7.926300 -14.788100
24
Fragment
H -29.708300 -11.129900 -17.525800
O -29.674900 -10.644900 -19.920400
N -28.919500 -11.389300 -17.922900
C -28.792500 -11.155700 -19.234000
H -28.773300 -10.776300 -21.796800
H -28.456100 -11.924600 -17.571900
N -28.004300 -11.086700 -22.020400
H -27.703900 -11.185600 -22.934300
N -27.574200 -11.533900 -19.766500
C -27.179000 -11.540500 -21.097300
H -26.944800 -11.804500 -19.241900
O -26.042400 -11.975700 -21.362900
H -31.007800 -8.772100 -10.951000
O -30.974400 -9.257100 -13.345600
N -30.218900 -8.512700 -11.348100
C -30.092000 -8.746300 -12.659100
H -30.072800 -9.125700 -15.222000
H -29.755500 -7.977400 -10.997000
N -29.303800 -8.815300 -15.445600
H -29.003400 -8.716400 -16.359500
N -28.873700 -8.368100 -13.191700
C -28.478500 -8.361500 -14.522500
H -28.244300 -8.097500 -12.667000
O -27.341900 -7.926300 -14.788100
