12
Fragment
H -29.708300 -11.129900 -17.525800
O -29.674900 -10.644900 -19.920400
N -28.919500 -11.389300 -17.922900
C -28.792500 -11.155700 -19.234000
H -28.773300 -10.776300 -21.796800
H -28.456100 -11.924600 -17.571900
N -28.004300 -11.086700 -22.020400
H -27.703900 -11.185600 -22.934300
N -27.574200 -11.533900 -19.766500
C -27.179000 -11.540500 -21.097300
H -26.944800 -11.804500 -19.241900
O -26.042400 -11.975700 -21.362900
12
Fragment
O -29.410300 -11.975700 -11.511200
H -28.507800 -11.804500 -13.632200
C -28.273600 -11.540500 -11.776800
N -27.878500 -11.533900 -13.107600
H -27.748800 -11.185600 -9.939800
N -27.448400 -11.086700 -10.853700
H -26.996600 -11.924600 -15.302200
H -26.679400 -10.776300 -11.077200
C -26.660200 -11.155700 -13.640100
N -26.533200 -11.389300 -14.951100
O -25.777800 -10.644900 -12.953700
H -25.744400 -11.129900 -15.348200
24
Fragment
H -29.708300 -11.129900 -17.525800
O -29.674900 -10.644900 -19.920400
N -28.919500 -11.389300 -17.922900
C -28.792500 -11.155700 -19.234000
H -28.773300 -10.776300 -21.796800
H -28.456100 -11.924600 -17.571900
N -28.004300 -11.086700 -22.020400
H -27.703900 -11.185600 -22.934300
N -27.574200 -11.533900 -19.766500
C -27.179000 -11.540500 -21.097300
H -26.944800 -11.804500 -19.241900
O -26.042400 -11.975700 -21.362900
O -29.410300 -11.975700 -11.511200
H -28.507800 -11.804500 -13.632200
C -28.273600 -11.540500 -11.776800
N -27.878500 -11.533900 -13.107600
H -27.748800 -11.185600 -9.939800
N -27.448400 -11.086700 -10.853700
H -26.996600 -11.924600 -15.302200
H -26.679400 -10.776300 -11.077200
C -26.660200 -11.155700 -13.640100
N -26.533200 -11.389300 -14.951100
O -25.777800 -10.644900 -12.953700
H -25.744400 -11.129900 -15.348200
