55
Fragment
H -21.792900 -17.767700 -22.662300
H -21.561100 -17.792000 -16.594000
H -21.454900 -16.588800 -17.343200
H -21.406200 -17.476000 -24.151300
C -21.140700 -17.383700 -23.397400
O -20.952000 -15.981200 -23.152100
C -20.791800 -17.150300 -16.990200
H -20.677800 -15.932600 -15.086300
H -20.521000 -18.253800 -18.729200
H -20.333700 -17.548900 -20.995400
C -20.278400 -15.656700 -22.006800
H -20.244200 -19.238200 -15.592000
O -20.168900 -13.550600 -23.030300
H -20.129000 -14.705100 -17.015400
C -20.010500 -16.537800 -20.947600
C -19.987200 -16.447900 -15.880500
H -19.974400 -17.913500 -23.495700
H -19.875600 -11.812700 -24.020100
H -19.869700 -11.715500 -22.212800
C -19.853700 -14.323500 -21.939300
C -19.825800 -17.809000 -17.975300
C -19.576100 -12.242900 -23.095900
H -19.342000 -13.805800 -15.058200
C -19.320900 -16.052900 -19.845400
C -19.289300 -15.254400 -16.563100
C -19.144200 -13.831300 -20.828700
C -19.105200 -18.826200 -15.809300
H -19.044900 -15.361400 -13.597400
C -19.008300 -17.437100 -15.249300
N -18.957200 -18.851700 -17.303900
C -18.901300 -14.741600 -19.798600
C -18.820500 -16.818500 -18.631800
H -18.782500 -12.748500 -20.770600
C -18.563000 -14.232400 -15.657600
H -18.493300 -12.298800 -22.943200
H -18.482100 -19.299000 -15.592000
C -18.331000 -15.671300 -17.689700
N -18.221200 -14.473000 -18.575600
O -18.202600 -12.200400 -18.662700
C -18.133500 -17.093200 -14.309100
C -18.104500 -13.233400 -18.025900
C -18.034000 -15.704100 -13.780000
H -17.935100 -12.298800 -16.247500
H -17.859600 -18.302400 -19.890400
C -17.790700 -13.215200 -16.536000
C -17.652100 -17.784700 -18.998900
C -17.561300 -18.675500 -17.752400
O -17.536900 -14.791400 -14.810100
H -17.424600 -17.682600 -14.075000
H -17.423300 -15.798900 -12.941800
H -17.365600 -16.017700 -17.324500
H -16.947400 -18.302400 -17.062300
H -16.921000 -19.493400 -18.008100
H -16.799800 -17.342300 -19.206800
H -16.552700 -13.331800 -16.500400
28
Fragment
H -27.038400 -15.677400 -25.256300
C -25.988400 -15.418500 -25.273100
H -25.891900 -14.960300 -23.205400
H -25.723600 -15.786700 -27.344600
C -25.349800 -15.013800 -24.110000
C -25.260200 -15.481700 -26.470900
H -24.464000 -14.535000 -29.048900
O -24.448700 -16.494100 -30.746700
C -24.008800 -14.641900 -24.125000
C -23.916600 -15.120800 -26.498000
C -23.867700 -16.310500 -29.694100
N -23.845400 -15.168200 -28.962800
H -23.486300 -14.377000 -23.299100
C -23.287400 -14.684500 -25.334900
C -23.083400 -15.320100 -27.730400
N -23.077800 -17.256000 -29.028300
H -22.874700 -18.022900 -29.254900
C -22.608400 -16.794200 -27.827800
N -21.967700 -14.285900 -25.402400
O -21.943800 -17.363000 -27.014000
N -21.885100 -14.439000 -27.718200
H -21.715200 -14.705100 -29.732500
H -21.631300 -14.170400 -24.872300
C -21.243300 -14.131500 -26.538300
C -21.051100 -14.451100 -28.947800
H -20.833600 -13.781500 -29.292400
H -20.251200 -15.069700 -28.721200
O -20.095000 -13.711000 -26.520500
83
Fragment
H -21.792900 -17.767700 -22.662300
H -21.561100 -17.792000 -16.594000
H -21.454900 -16.588800 -17.343200
H -21.406200 -17.476000 -24.151300
C -21.140700 -17.383700 -23.397400
O -20.952000 -15.981200 -23.152100
C -20.791800 -17.150300 -16.990200
H -20.677800 -15.932600 -15.086300
H -20.521000 -18.253800 -18.729200
H -20.333700 -17.548900 -20.995400
C -20.278400 -15.656700 -22.006800
H -20.244200 -19.238200 -15.592000
O -20.168900 -13.550600 -23.030300
H -20.129000 -14.705100 -17.015400
C -20.010500 -16.537800 -20.947600
C -19.987200 -16.447900 -15.880500
H -19.974400 -17.913500 -23.495700
H -19.875600 -11.812700 -24.020100
H -19.869700 -11.715500 -22.212800
C -19.853700 -14.323500 -21.939300
C -19.825800 -17.809000 -17.975300
C -19.576100 -12.242900 -23.095900
H -19.342000 -13.805800 -15.058200
C -19.320900 -16.052900 -19.845400
C -19.289300 -15.254400 -16.563100
C -19.144200 -13.831300 -20.828700
C -19.105200 -18.826200 -15.809300
H -19.044900 -15.361400 -13.597400
C -19.008300 -17.437100 -15.249300
N -18.957200 -18.851700 -17.303900
C -18.901300 -14.741600 -19.798600
C -18.820500 -16.818500 -18.631800
H -18.782500 -12.748500 -20.770600
C -18.563000 -14.232400 -15.657600
H -18.493300 -12.298800 -22.943200
H -18.482100 -19.299000 -15.592000
C -18.331000 -15.671300 -17.689700
N -18.221200 -14.473000 -18.575600
O -18.202600 -12.200400 -18.662700
C -18.133500 -17.093200 -14.309100
C -18.104500 -13.233400 -18.025900
C -18.034000 -15.704100 -13.780000
H -17.935100 -12.298800 -16.247500
H -17.859600 -18.302400 -19.890400
C -17.790700 -13.215200 -16.536000
C -17.652100 -17.784700 -18.998900
C -17.561300 -18.675500 -17.752400
O -17.536900 -14.791400 -14.810100
H -17.424600 -17.682600 -14.075000
H -17.423300 -15.798900 -12.941800
H -17.365600 -16.017700 -17.324500
H -16.947400 -18.302400 -17.062300
H -16.921000 -19.493400 -18.008100
H -16.799800 -17.342300 -19.206800
H -16.552700 -13.331800 -16.500400
H -27.038400 -15.677400 -25.256300
C -25.988400 -15.418500 -25.273100
H -25.891900 -14.960300 -23.205400
H -25.723600 -15.786700 -27.344600
C -25.349800 -15.013800 -24.110000
C -25.260200 -15.481700 -26.470900
H -24.464000 -14.535000 -29.048900
O -24.448700 -16.494100 -30.746700
C -24.008800 -14.641900 -24.125000
C -23.916600 -15.120800 -26.498000
C -23.867700 -16.310500 -29.694100
N -23.845400 -15.168200 -28.962800
H -23.486300 -14.377000 -23.299100
C -23.287400 -14.684500 -25.334900
C -23.083400 -15.320100 -27.730400
N -23.077800 -17.256000 -29.028300
H -22.874700 -18.022900 -29.254900
C -22.608400 -16.794200 -27.827800
N -21.967700 -14.285900 -25.402400
O -21.943800 -17.363000 -27.014000
N -21.885100 -14.439000 -27.718200
H -21.715200 -14.705100 -29.732500
H -21.631300 -14.170400 -24.872300
C -21.243300 -14.131500 -26.538300
C -21.051100 -14.451100 -28.947800
H -20.833600 -13.781500 -29.292400
H -20.251200 -15.069700 -28.721200
O -20.095000 -13.711000 -26.520500
