55
Fragment
H -21.792900 -17.767700 -22.662300
H -21.561100 -17.792000 -16.594000
H -21.454900 -16.588800 -17.343200
H -21.406200 -17.476000 -24.151300
C -21.140700 -17.383700 -23.397400
O -20.952000 -15.981200 -23.152100
C -20.791800 -17.150300 -16.990200
H -20.677800 -15.932600 -15.086300
H -20.521000 -18.253800 -18.729200
H -20.333700 -17.548900 -20.995400
C -20.278400 -15.656700 -22.006800
H -20.244200 -19.238200 -15.592000
O -20.168900 -13.550600 -23.030300
H -20.129000 -14.705100 -17.015400
C -20.010500 -16.537800 -20.947600
C -19.987200 -16.447900 -15.880500
H -19.974400 -17.913500 -23.495700
H -19.875600 -11.812700 -24.020100
H -19.869700 -11.715500 -22.212800
C -19.853700 -14.323500 -21.939300
C -19.825800 -17.809000 -17.975300
C -19.576100 -12.242900 -23.095900
H -19.342000 -13.805800 -15.058200
C -19.320900 -16.052900 -19.845400
C -19.289300 -15.254400 -16.563100
C -19.144200 -13.831300 -20.828700
C -19.105200 -18.826200 -15.809300
H -19.044900 -15.361400 -13.597400
C -19.008300 -17.437100 -15.249300
N -18.957200 -18.851700 -17.303900
C -18.901300 -14.741600 -19.798600
C -18.820500 -16.818500 -18.631800
H -18.782500 -12.748500 -20.770600
C -18.563000 -14.232400 -15.657600
H -18.493300 -12.298800 -22.943200
H -18.482100 -19.299000 -15.592000
C -18.331000 -15.671300 -17.689700
N -18.221200 -14.473000 -18.575600
O -18.202600 -12.200400 -18.662700
C -18.133500 -17.093200 -14.309100
C -18.104500 -13.233400 -18.025900
C -18.034000 -15.704100 -13.780000
H -17.935100 -12.298800 -16.247500
H -17.859600 -18.302400 -19.890400
C -17.790700 -13.215200 -16.536000
C -17.652100 -17.784700 -18.998900
C -17.561300 -18.675500 -17.752400
O -17.536900 -14.791400 -14.810100
H -17.424600 -17.682600 -14.075000
H -17.423300 -15.798900 -12.941800
H -17.365600 -16.017700 -17.324500
H -16.947400 -18.302400 -17.062300
H -16.921000 -19.493400 -18.008100
H -16.799800 -17.342300 -19.206800
H -16.552700 -13.331800 -16.500400
28
Fragment
O -24.091600 -19.787500 -20.302400
H -23.935400 -21.146200 -18.101700
H -23.353000 -19.858000 -17.530500
C -23.135500 -20.527600 -17.875100
C -22.943300 -20.208000 -20.284600
H -22.555300 -20.246900 -21.950600
H -22.471400 -20.781600 -17.090400
N -22.301500 -20.515500 -19.104700
O -22.242800 -23.439500 -19.808900
N -22.218800 -20.362400 -21.420500
C -21.578100 -22.870700 -18.995100
H -21.311900 -24.099400 -17.568000
N -21.108800 -23.332500 -17.794600
C -21.103200 -21.396600 -19.092500
C -20.899200 -20.761000 -21.488000
H -20.700300 -20.453500 -23.523800
N -20.341200 -21.244700 -17.860100
C -20.318900 -22.387000 -17.128800
C -20.270000 -21.197300 -20.324900
C -20.177800 -20.718400 -22.697900
O -19.737900 -22.570600 -16.076200
H -19.722600 -20.611500 -17.774000
C -18.926400 -21.558200 -20.352000
C -18.836800 -21.090300 -22.712900
H -18.462900 -21.863200 -19.478300
H -18.294700 -21.036800 -23.617500
C -18.198200 -21.495000 -21.549800
H -17.148200 -21.753900 -21.566600
83
Fragment
H -21.792900 -17.767700 -22.662300
H -21.561100 -17.792000 -16.594000
H -21.454900 -16.588800 -17.343200
H -21.406200 -17.476000 -24.151300
C -21.140700 -17.383700 -23.397400
O -20.952000 -15.981200 -23.152100
C -20.791800 -17.150300 -16.990200
H -20.677800 -15.932600 -15.086300
H -20.521000 -18.253800 -18.729200
H -20.333700 -17.548900 -20.995400
C -20.278400 -15.656700 -22.006800
H -20.244200 -19.238200 -15.592000
O -20.168900 -13.550600 -23.030300
H -20.129000 -14.705100 -17.015400
C -20.010500 -16.537800 -20.947600
C -19.987200 -16.447900 -15.880500
H -19.974400 -17.913500 -23.495700
H -19.875600 -11.812700 -24.020100
H -19.869700 -11.715500 -22.212800
C -19.853700 -14.323500 -21.939300
C -19.825800 -17.809000 -17.975300
C -19.576100 -12.242900 -23.095900
H -19.342000 -13.805800 -15.058200
C -19.320900 -16.052900 -19.845400
C -19.289300 -15.254400 -16.563100
C -19.144200 -13.831300 -20.828700
C -19.105200 -18.826200 -15.809300
H -19.044900 -15.361400 -13.597400
C -19.008300 -17.437100 -15.249300
N -18.957200 -18.851700 -17.303900
C -18.901300 -14.741600 -19.798600
C -18.820500 -16.818500 -18.631800
H -18.782500 -12.748500 -20.770600
C -18.563000 -14.232400 -15.657600
H -18.493300 -12.298800 -22.943200
H -18.482100 -19.299000 -15.592000
C -18.331000 -15.671300 -17.689700
N -18.221200 -14.473000 -18.575600
O -18.202600 -12.200400 -18.662700
C -18.133500 -17.093200 -14.309100
C -18.104500 -13.233400 -18.025900
C -18.034000 -15.704100 -13.780000
H -17.935100 -12.298800 -16.247500
H -17.859600 -18.302400 -19.890400
C -17.790700 -13.215200 -16.536000
C -17.652100 -17.784700 -18.998900
C -17.561300 -18.675500 -17.752400
O -17.536900 -14.791400 -14.810100
H -17.424600 -17.682600 -14.075000
H -17.423300 -15.798900 -12.941800
H -17.365600 -16.017700 -17.324500
H -16.947400 -18.302400 -17.062300
H -16.921000 -19.493400 -18.008100
H -16.799800 -17.342300 -19.206800
H -16.552700 -13.331800 -16.500400
O -24.091600 -19.787500 -20.302400
H -23.935400 -21.146200 -18.101700
H -23.353000 -19.858000 -17.530500
C -23.135500 -20.527600 -17.875100
C -22.943300 -20.208000 -20.284600
H -22.555300 -20.246900 -21.950600
H -22.471400 -20.781600 -17.090400
N -22.301500 -20.515500 -19.104700
O -22.242800 -23.439500 -19.808900
N -22.218800 -20.362400 -21.420500
C -21.578100 -22.870700 -18.995100
H -21.311900 -24.099400 -17.568000
N -21.108800 -23.332500 -17.794600
C -21.103200 -21.396600 -19.092500
C -20.899200 -20.761000 -21.488000
H -20.700300 -20.453500 -23.523800
N -20.341200 -21.244700 -17.860100
C -20.318900 -22.387000 -17.128800
C -20.270000 -21.197300 -20.324900
C -20.177800 -20.718400 -22.697900
O -19.737900 -22.570600 -16.076200
H -19.722600 -20.611500 -17.774000
C -18.926400 -21.558200 -20.352000
C -18.836800 -21.090300 -22.712900
H -18.462900 -21.863200 -19.478300
H -18.294700 -21.036800 -23.617500
C -18.198200 -21.495000 -21.549800
H -17.148200 -21.753900 -21.566600
