55
Fragment
H -21.792900 -17.767700 -22.662300
H -21.561100 -17.792000 -16.594000
H -21.454900 -16.588800 -17.343200
H -21.406200 -17.476000 -24.151300
C -21.140700 -17.383700 -23.397400
O -20.952000 -15.981200 -23.152100
C -20.791800 -17.150300 -16.990200
H -20.677800 -15.932600 -15.086300
H -20.521000 -18.253800 -18.729200
H -20.333700 -17.548900 -20.995400
C -20.278400 -15.656700 -22.006800
H -20.244200 -19.238200 -15.592000
O -20.168900 -13.550600 -23.030300
H -20.129000 -14.705100 -17.015400
C -20.010500 -16.537800 -20.947600
C -19.987200 -16.447900 -15.880500
H -19.974400 -17.913500 -23.495700
H -19.875600 -11.812700 -24.020100
H -19.869700 -11.715500 -22.212800
C -19.853700 -14.323500 -21.939300
C -19.825800 -17.809000 -17.975300
C -19.576100 -12.242900 -23.095900
H -19.342000 -13.805800 -15.058200
C -19.320900 -16.052900 -19.845400
C -19.289300 -15.254400 -16.563100
C -19.144200 -13.831300 -20.828700
C -19.105200 -18.826200 -15.809300
H -19.044900 -15.361400 -13.597400
C -19.008300 -17.437100 -15.249300
N -18.957200 -18.851700 -17.303900
C -18.901300 -14.741600 -19.798600
C -18.820500 -16.818500 -18.631800
H -18.782500 -12.748500 -20.770600
C -18.563000 -14.232400 -15.657600
H -18.493300 -12.298800 -22.943200
H -18.482100 -19.299000 -15.592000
C -18.331000 -15.671300 -17.689700
N -18.221200 -14.473000 -18.575600
O -18.202600 -12.200400 -18.662700
C -18.133500 -17.093200 -14.309100
C -18.104500 -13.233400 -18.025900
C -18.034000 -15.704100 -13.780000
H -17.935100 -12.298800 -16.247500
H -17.859600 -18.302400 -19.890400
C -17.790700 -13.215200 -16.536000
C -17.652100 -17.784700 -18.998900
C -17.561300 -18.675500 -17.752400
O -17.536900 -14.791400 -14.810100
H -17.424600 -17.682600 -14.075000
H -17.423300 -15.798900 -12.941800
H -17.365600 -16.017700 -17.324500
H -16.947400 -18.302400 -17.062300
H -16.921000 -19.493400 -18.008100
H -16.799800 -17.342300 -19.206800
H -16.552700 -13.331800 -16.500400
28
Fragment
H -17.496200 -15.677400 -6.527100
C -16.446200 -15.418500 -6.544000
H -16.349600 -14.960300 -4.476300
H -16.181400 -15.786700 -8.615400
C -15.807500 -15.013800 -5.380900
C -15.718000 -15.481700 -7.741700
H -14.921800 -14.535000 -10.319800
O -14.906400 -16.494100 -12.017600
C -14.466600 -14.641900 -5.395900
C -14.374400 -15.120800 -7.768900
C -14.325400 -16.310500 -10.965000
N -14.303200 -15.168200 -10.233600
H -13.944100 -14.377000 -4.569900
C -13.745200 -14.684500 -6.605800
C -13.541100 -15.320100 -9.001200
N -13.535500 -17.256000 -10.299200
H -13.332500 -18.022900 -10.525800
C -13.066200 -16.794200 -9.098600
N -12.425500 -14.285900 -6.673200
O -12.401500 -17.363000 -8.284800
N -12.342800 -14.439000 -8.989100
H -12.173000 -14.705100 -11.003400
H -12.089000 -14.170400 -6.143200
C -11.701000 -14.131500 -7.809100
C -11.508900 -14.451100 -10.218600
H -11.291400 -13.781500 -10.563200
H -10.708900 -15.069700 -9.992000
O -10.552700 -13.711000 -7.791300
83
Fragment
H -21.792900 -17.767700 -22.662300
H -21.561100 -17.792000 -16.594000
H -21.454900 -16.588800 -17.343200
H -21.406200 -17.476000 -24.151300
C -21.140700 -17.383700 -23.397400
O -20.952000 -15.981200 -23.152100
C -20.791800 -17.150300 -16.990200
H -20.677800 -15.932600 -15.086300
H -20.521000 -18.253800 -18.729200
H -20.333700 -17.548900 -20.995400
C -20.278400 -15.656700 -22.006800
H -20.244200 -19.238200 -15.592000
O -20.168900 -13.550600 -23.030300
H -20.129000 -14.705100 -17.015400
C -20.010500 -16.537800 -20.947600
C -19.987200 -16.447900 -15.880500
H -19.974400 -17.913500 -23.495700
H -19.875600 -11.812700 -24.020100
H -19.869700 -11.715500 -22.212800
C -19.853700 -14.323500 -21.939300
C -19.825800 -17.809000 -17.975300
C -19.576100 -12.242900 -23.095900
H -19.342000 -13.805800 -15.058200
C -19.320900 -16.052900 -19.845400
C -19.289300 -15.254400 -16.563100
C -19.144200 -13.831300 -20.828700
C -19.105200 -18.826200 -15.809300
H -19.044900 -15.361400 -13.597400
C -19.008300 -17.437100 -15.249300
N -18.957200 -18.851700 -17.303900
C -18.901300 -14.741600 -19.798600
C -18.820500 -16.818500 -18.631800
H -18.782500 -12.748500 -20.770600
C -18.563000 -14.232400 -15.657600
H -18.493300 -12.298800 -22.943200
H -18.482100 -19.299000 -15.592000
C -18.331000 -15.671300 -17.689700
N -18.221200 -14.473000 -18.575600
O -18.202600 -12.200400 -18.662700
C -18.133500 -17.093200 -14.309100
C -18.104500 -13.233400 -18.025900
C -18.034000 -15.704100 -13.780000
H -17.935100 -12.298800 -16.247500
H -17.859600 -18.302400 -19.890400
C -17.790700 -13.215200 -16.536000
C -17.652100 -17.784700 -18.998900
C -17.561300 -18.675500 -17.752400
O -17.536900 -14.791400 -14.810100
H -17.424600 -17.682600 -14.075000
H -17.423300 -15.798900 -12.941800
H -17.365600 -16.017700 -17.324500
H -16.947400 -18.302400 -17.062300
H -16.921000 -19.493400 -18.008100
H -16.799800 -17.342300 -19.206800
H -16.552700 -13.331800 -16.500400
H -17.496200 -15.677400 -6.527100
C -16.446200 -15.418500 -6.544000
H -16.349600 -14.960300 -4.476300
H -16.181400 -15.786700 -8.615400
C -15.807500 -15.013800 -5.380900
C -15.718000 -15.481700 -7.741700
H -14.921800 -14.535000 -10.319800
O -14.906400 -16.494100 -12.017600
C -14.466600 -14.641900 -5.395900
C -14.374400 -15.120800 -7.768900
C -14.325400 -16.310500 -10.965000
N -14.303200 -15.168200 -10.233600
H -13.944100 -14.377000 -4.569900
C -13.745200 -14.684500 -6.605800
C -13.541100 -15.320100 -9.001200
N -13.535500 -17.256000 -10.299200
H -13.332500 -18.022900 -10.525800
C -13.066200 -16.794200 -9.098600
N -12.425500 -14.285900 -6.673200
O -12.401500 -17.363000 -8.284800
N -12.342800 -14.439000 -8.989100
H -12.173000 -14.705100 -11.003400
H -12.089000 -14.170400 -6.143200
C -11.701000 -14.131500 -7.809100
C -11.508900 -14.451100 -10.218600
H -11.291400 -13.781500 -10.563200
H -10.708900 -15.069700 -9.992000
O -10.552700 -13.711000 -7.791300
