55
Fragment
H -21.792900 -17.767700 -22.662300
H -21.561100 -17.792000 -16.594000
H -21.454900 -16.588800 -17.343200
H -21.406200 -17.476000 -24.151300
C -21.140700 -17.383700 -23.397400
O -20.952000 -15.981200 -23.152100
C -20.791800 -17.150300 -16.990200
H -20.677800 -15.932600 -15.086300
H -20.521000 -18.253800 -18.729200
H -20.333700 -17.548900 -20.995400
C -20.278400 -15.656700 -22.006800
H -20.244200 -19.238200 -15.592000
O -20.168900 -13.550600 -23.030300
H -20.129000 -14.705100 -17.015400
C -20.010500 -16.537800 -20.947600
C -19.987200 -16.447900 -15.880500
H -19.974400 -17.913500 -23.495700
H -19.875600 -11.812700 -24.020100
H -19.869700 -11.715500 -22.212800
C -19.853700 -14.323500 -21.939300
C -19.825800 -17.809000 -17.975300
C -19.576100 -12.242900 -23.095900
H -19.342000 -13.805800 -15.058200
C -19.320900 -16.052900 -19.845400
C -19.289300 -15.254400 -16.563100
C -19.144200 -13.831300 -20.828700
C -19.105200 -18.826200 -15.809300
H -19.044900 -15.361400 -13.597400
C -19.008300 -17.437100 -15.249300
N -18.957200 -18.851700 -17.303900
C -18.901300 -14.741600 -19.798600
C -18.820500 -16.818500 -18.631800
H -18.782500 -12.748500 -20.770600
C -18.563000 -14.232400 -15.657600
H -18.493300 -12.298800 -22.943200
H -18.482100 -19.299000 -15.592000
C -18.331000 -15.671300 -17.689700
N -18.221200 -14.473000 -18.575600
O -18.202600 -12.200400 -18.662700
C -18.133500 -17.093200 -14.309100
C -18.104500 -13.233400 -18.025900
C -18.034000 -15.704100 -13.780000
H -17.935100 -12.298800 -16.247500
H -17.859600 -18.302400 -19.890400
C -17.790700 -13.215200 -16.536000
C -17.652100 -17.784700 -18.998900
C -17.561300 -18.675500 -17.752400
O -17.536900 -14.791400 -14.810100
H -17.424600 -17.682600 -14.075000
H -17.423300 -15.798900 -12.941800
H -17.365600 -16.017700 -17.324500
H -16.947400 -18.302400 -17.062300
H -16.921000 -19.493400 -18.008100
H -16.799800 -17.342300 -19.206800
H -16.552700 -13.331800 -16.500400
28
Fragment
O -22.085700 -7.634500 -29.667000
H -21.929600 -8.993200 -27.466300
H -21.347100 -7.705000 -26.895100
C -21.129600 -8.374600 -27.239700
C -20.937400 -8.055000 -29.649200
H -20.549400 -8.093900 -31.315200
H -20.465500 -8.628600 -26.454900
N -20.295600 -8.362500 -28.469300
O -20.236900 -11.286500 -29.173500
N -20.213000 -8.209400 -30.785100
C -19.572300 -10.717700 -28.359700
H -19.306000 -11.946400 -26.932500
N -19.102900 -11.179500 -27.159200
C -19.097300 -9.243600 -28.457100
C -18.893300 -8.608000 -30.852500
H -18.694400 -8.300500 -32.888400
N -18.335300 -9.091700 -27.224700
C -18.313000 -10.234000 -26.493300
C -18.264100 -9.044300 -29.689500
C -18.171900 -8.565400 -32.062500
O -17.732000 -10.417600 -25.440800
H -17.716700 -8.458500 -27.138600
C -16.920500 -9.405200 -29.716600
C -16.830900 -8.937300 -32.077400
H -16.457100 -9.710200 -28.842900
H -16.288800 -8.883800 -32.982100
C -16.192300 -9.342000 -30.914400
H -15.142300 -9.600900 -30.931200
83
Fragment
H -21.792900 -17.767700 -22.662300
H -21.561100 -17.792000 -16.594000
H -21.454900 -16.588800 -17.343200
H -21.406200 -17.476000 -24.151300
C -21.140700 -17.383700 -23.397400
O -20.952000 -15.981200 -23.152100
C -20.791800 -17.150300 -16.990200
H -20.677800 -15.932600 -15.086300
H -20.521000 -18.253800 -18.729200
H -20.333700 -17.548900 -20.995400
C -20.278400 -15.656700 -22.006800
H -20.244200 -19.238200 -15.592000
O -20.168900 -13.550600 -23.030300
H -20.129000 -14.705100 -17.015400
C -20.010500 -16.537800 -20.947600
C -19.987200 -16.447900 -15.880500
H -19.974400 -17.913500 -23.495700
H -19.875600 -11.812700 -24.020100
H -19.869700 -11.715500 -22.212800
C -19.853700 -14.323500 -21.939300
C -19.825800 -17.809000 -17.975300
C -19.576100 -12.242900 -23.095900
H -19.342000 -13.805800 -15.058200
C -19.320900 -16.052900 -19.845400
C -19.289300 -15.254400 -16.563100
C -19.144200 -13.831300 -20.828700
C -19.105200 -18.826200 -15.809300
H -19.044900 -15.361400 -13.597400
C -19.008300 -17.437100 -15.249300
N -18.957200 -18.851700 -17.303900
C -18.901300 -14.741600 -19.798600
C -18.820500 -16.818500 -18.631800
H -18.782500 -12.748500 -20.770600
C -18.563000 -14.232400 -15.657600
H -18.493300 -12.298800 -22.943200
H -18.482100 -19.299000 -15.592000
C -18.331000 -15.671300 -17.689700
N -18.221200 -14.473000 -18.575600
O -18.202600 -12.200400 -18.662700
C -18.133500 -17.093200 -14.309100
C -18.104500 -13.233400 -18.025900
C -18.034000 -15.704100 -13.780000
H -17.935100 -12.298800 -16.247500
H -17.859600 -18.302400 -19.890400
C -17.790700 -13.215200 -16.536000
C -17.652100 -17.784700 -18.998900
C -17.561300 -18.675500 -17.752400
O -17.536900 -14.791400 -14.810100
H -17.424600 -17.682600 -14.075000
H -17.423300 -15.798900 -12.941800
H -17.365600 -16.017700 -17.324500
H -16.947400 -18.302400 -17.062300
H -16.921000 -19.493400 -18.008100
H -16.799800 -17.342300 -19.206800
H -16.552700 -13.331800 -16.500400
O -22.085700 -7.634500 -29.667000
H -21.929600 -8.993200 -27.466300
H -21.347100 -7.705000 -26.895100
C -21.129600 -8.374600 -27.239700
C -20.937400 -8.055000 -29.649200
H -20.549400 -8.093900 -31.315200
H -20.465500 -8.628600 -26.454900
N -20.295600 -8.362500 -28.469300
O -20.236900 -11.286500 -29.173500
N -20.213000 -8.209400 -30.785100
C -19.572300 -10.717700 -28.359700
H -19.306000 -11.946400 -26.932500
N -19.102900 -11.179500 -27.159200
C -19.097300 -9.243600 -28.457100
C -18.893300 -8.608000 -30.852500
H -18.694400 -8.300500 -32.888400
N -18.335300 -9.091700 -27.224700
C -18.313000 -10.234000 -26.493300
C -18.264100 -9.044300 -29.689500
C -18.171900 -8.565400 -32.062500
O -17.732000 -10.417600 -25.440800
H -17.716700 -8.458500 -27.138600
C -16.920500 -9.405200 -29.716600
C -16.830900 -8.937300 -32.077400
H -16.457100 -9.710200 -28.842900
H -16.288800 -8.883800 -32.982100
C -16.192300 -9.342000 -30.914400
H -15.142300 -9.600900 -30.931200
