31
Fragment
H -23.334400 -28.466800 -25.923900
H -23.033100 -30.479400 -28.259800
O -22.989600 -29.952600 -27.606900
O -22.963200 -28.678200 -25.200400
C -22.424700 -30.596500 -26.538100
C -22.402200 -29.911400 -25.322100
H -21.923300 -32.359200 -27.416100
C -21.897300 -31.875700 -26.598600
C -21.825700 -30.480300 -24.210500
H -21.799300 -29.989200 -23.398500
C -21.328200 -32.457000 -25.466400
C -21.277000 -31.772000 -24.250400
H -20.968700 -33.333400 -25.522700
O -20.841700 -30.579600 -21.577000
C -20.639800 -32.372800 -23.083800
H -20.573900 -30.356200 -20.812500
C -20.422600 -31.846000 -21.852700
O -20.210600 -33.668100 -23.351900
C -19.767100 -32.579300 -20.780900
O -19.592300 -32.060100 -19.662700
C -19.574700 -34.409400 -22.396800
H -19.336000 -36.015000 -23.663600
C -19.333400 -33.916300 -21.128000
C -19.172000 -35.697100 -22.784300
C -18.698300 -34.756700 -20.191500
H -18.553000 -34.449400 -19.303800
C -18.533100 -36.484300 -21.854000
C -18.285000 -36.023600 -20.552800
O -18.126200 -37.724200 -22.254200
H -17.837200 -36.579600 -19.926300
H -17.743100 -38.112300 -21.615000
31
Fragment
H -22.722400 -27.056900 -33.346500
H -22.628300 -28.589500 -35.035200
O -22.339300 -27.444900 -32.707300
C -22.180400 -29.145500 -34.408600
C -21.932300 -28.684800 -33.107400
H -21.912500 -30.719700 -35.657600
C -21.767200 -30.412500 -34.770000
C -21.293400 -29.472000 -32.177200
C -21.132000 -31.252800 -33.833400
H -21.129500 -29.154100 -31.297800
C -20.890800 -30.759700 -32.564700
O -20.873100 -33.109000 -35.298700
C -20.698300 -32.589800 -34.180500
O -20.254800 -31.501000 -31.609600
C -20.042900 -33.323100 -33.108800
H -19.891500 -34.812900 -34.148900
C -19.825700 -32.796400 -31.877600
O -19.623800 -34.589500 -33.384400
H -19.496800 -31.835700 -29.438700
C -19.188400 -33.397200 -30.711100
C -19.137200 -32.712100 -29.495100
H -18.666200 -35.179900 -31.563000
C -18.639800 -34.688900 -30.750900
C -18.568100 -33.293500 -28.362900
H -18.542200 -32.810000 -27.545300
C -18.063200 -35.257700 -29.639300
C -18.040700 -34.572700 -28.423300
O -17.502200 -36.490900 -29.761100
O -17.475800 -35.216600 -27.354600
H -17.432400 -34.689800 -26.701600
H -17.131100 -36.702300 -29.037500
62
Fragment
H -23.334400 -28.466800 -25.923900
H -23.033100 -30.479400 -28.259800
O -22.989600 -29.952600 -27.606900
O -22.963200 -28.678200 -25.200400
C -22.424700 -30.596500 -26.538100
C -22.402200 -29.911400 -25.322100
H -21.923300 -32.359200 -27.416100
C -21.897300 -31.875700 -26.598600
C -21.825700 -30.480300 -24.210500
H -21.799300 -29.989200 -23.398500
C -21.328200 -32.457000 -25.466400
C -21.277000 -31.772000 -24.250400
H -20.968700 -33.333400 -25.522700
O -20.841700 -30.579600 -21.577000
C -20.639800 -32.372800 -23.083800
H -20.573900 -30.356200 -20.812500
C -20.422600 -31.846000 -21.852700
O -20.210600 -33.668100 -23.351900
C -19.767100 -32.579300 -20.780900
O -19.592300 -32.060100 -19.662700
C -19.574700 -34.409400 -22.396800
H -19.336000 -36.015000 -23.663600
C -19.333400 -33.916300 -21.128000
C -19.172000 -35.697100 -22.784300
C -18.698300 -34.756700 -20.191500
H -18.553000 -34.449400 -19.303800
C -18.533100 -36.484300 -21.854000
C -18.285000 -36.023600 -20.552800
O -18.126200 -37.724200 -22.254200
H -17.837200 -36.579600 -19.926300
H -17.743100 -38.112300 -21.615000
H -22.722400 -27.056900 -33.346500
H -22.628300 -28.589500 -35.035200
O -22.339300 -27.444900 -32.707300
C -22.180400 -29.145500 -34.408600
C -21.932300 -28.684800 -33.107400
H -21.912500 -30.719700 -35.657600
C -21.767200 -30.412500 -34.770000
C -21.293400 -29.472000 -32.177200
C -21.132000 -31.252800 -33.833400
H -21.129500 -29.154100 -31.297800
C -20.890800 -30.759700 -32.564700
O -20.873100 -33.109000 -35.298700
C -20.698300 -32.589800 -34.180500
O -20.254800 -31.501000 -31.609600
C -20.042900 -33.323100 -33.108800
H -19.891500 -34.812900 -34.148900
C -19.825700 -32.796400 -31.877600
O -19.623800 -34.589500 -33.384400
H -19.496800 -31.835700 -29.438700
C -19.188400 -33.397200 -30.711100
C -19.137200 -32.712100 -29.495100
H -18.666200 -35.179900 -31.563000
C -18.639800 -34.688900 -30.750900
C -18.568100 -33.293500 -28.362900
H -18.542200 -32.810000 -27.545300
C -18.063200 -35.257700 -29.639300
C -18.040700 -34.572700 -28.423300
O -17.502200 -36.490900 -29.761100
O -17.475800 -35.216600 -27.354600
H -17.432400 -34.689800 -26.701600
H -17.131100 -36.702300 -29.037500
