31
Fragment
H -23.334400 -28.466800 -25.923900
H -23.033100 -30.479400 -28.259800
O -22.989600 -29.952600 -27.606900
O -22.963200 -28.678200 -25.200400
C -22.424700 -30.596500 -26.538100
C -22.402200 -29.911400 -25.322100
H -21.923300 -32.359200 -27.416100
C -21.897300 -31.875700 -26.598600
C -21.825700 -30.480300 -24.210500
H -21.799300 -29.989200 -23.398500
C -21.328200 -32.457000 -25.466400
C -21.277000 -31.772000 -24.250400
H -20.968700 -33.333400 -25.522700
O -20.841700 -30.579600 -21.577000
C -20.639800 -32.372800 -23.083800
H -20.573900 -30.356200 -20.812500
C -20.422600 -31.846000 -21.852700
O -20.210600 -33.668100 -23.351900
C -19.767100 -32.579300 -20.780900
O -19.592300 -32.060100 -19.662700
C -19.574700 -34.409400 -22.396800
H -19.336000 -36.015000 -23.663600
C -19.333400 -33.916300 -21.128000
C -19.172000 -35.697100 -22.784300
C -18.698300 -34.756700 -20.191500
H -18.553000 -34.449400 -19.303800
C -18.533100 -36.484300 -21.854000
C -18.285000 -36.023600 -20.552800
O -18.126200 -37.724200 -22.254200
H -17.837200 -36.579600 -19.926300
H -17.743100 -38.112300 -21.615000
24
Fragment
H -27.385300 -22.073100 -26.988800
C -26.443200 -22.066200 -26.719500
H -26.370700 -21.750500 -25.794800
O -26.289700 -23.729000 -24.568600
H -25.964800 -26.545900 -24.218800
H -25.938300 -21.469300 -27.309000
N -25.894900 -23.431400 -26.816000
C -25.826100 -24.152600 -25.618900
O -25.810600 -23.222300 -29.105400
C -25.556100 -23.878400 -28.093500
N -25.176200 -25.384100 -25.677700
H -25.169300 -25.737500 -30.891100
C -25.087000 -26.165100 -24.429000
C -24.938000 -25.163600 -28.053700
H -24.800800 -25.580600 -23.696600
C -24.753000 -25.869700 -26.896800
H -24.435800 -26.889600 -24.543000
N -24.369000 -25.925400 -29.070900
C -24.288800 -25.613200 -30.478900
N -24.105600 -27.039200 -27.106000
H -24.002500 -24.684100 -30.592900
C -23.879300 -27.024900 -28.439800
H -23.640300 -26.209400 -30.908900
H -23.420000 -27.721400 -28.894600
55
Fragment
H -23.334400 -28.466800 -25.923900
H -23.033100 -30.479400 -28.259800
O -22.989600 -29.952600 -27.606900
O -22.963200 -28.678200 -25.200400
C -22.424700 -30.596500 -26.538100
C -22.402200 -29.911400 -25.322100
H -21.923300 -32.359200 -27.416100
C -21.897300 -31.875700 -26.598600
C -21.825700 -30.480300 -24.210500
H -21.799300 -29.989200 -23.398500
C -21.328200 -32.457000 -25.466400
C -21.277000 -31.772000 -24.250400
H -20.968700 -33.333400 -25.522700
O -20.841700 -30.579600 -21.577000
C -20.639800 -32.372800 -23.083800
H -20.573900 -30.356200 -20.812500
C -20.422600 -31.846000 -21.852700
O -20.210600 -33.668100 -23.351900
C -19.767100 -32.579300 -20.780900
O -19.592300 -32.060100 -19.662700
C -19.574700 -34.409400 -22.396800
H -19.336000 -36.015000 -23.663600
C -19.333400 -33.916300 -21.128000
C -19.172000 -35.697100 -22.784300
C -18.698300 -34.756700 -20.191500
H -18.553000 -34.449400 -19.303800
C -18.533100 -36.484300 -21.854000
C -18.285000 -36.023600 -20.552800
O -18.126200 -37.724200 -22.254200
H -17.837200 -36.579600 -19.926300
H -17.743100 -38.112300 -21.615000
H -27.385300 -22.073100 -26.988800
C -26.443200 -22.066200 -26.719500
H -26.370700 -21.750500 -25.794800
O -26.289700 -23.729000 -24.568600
H -25.964800 -26.545900 -24.218800
H -25.938300 -21.469300 -27.309000
N -25.894900 -23.431400 -26.816000
C -25.826100 -24.152600 -25.618900
O -25.810600 -23.222300 -29.105400
C -25.556100 -23.878400 -28.093500
N -25.176200 -25.384100 -25.677700
H -25.169300 -25.737500 -30.891100
C -25.087000 -26.165100 -24.429000
C -24.938000 -25.163600 -28.053700
H -24.800800 -25.580600 -23.696600
C -24.753000 -25.869700 -26.896800
H -24.435800 -26.889600 -24.543000
N -24.369000 -25.925400 -29.070900
C -24.288800 -25.613200 -30.478900
N -24.105600 -27.039200 -27.106000
H -24.002500 -24.684100 -30.592900
C -23.879300 -27.024900 -28.439800
H -23.640300 -26.209400 -30.908900
H -23.420000 -27.721400 -28.894600
