31
Fragment
H -23.334400 -28.466800 -25.923900
H -23.033100 -30.479400 -28.259800
O -22.989600 -29.952600 -27.606900
O -22.963200 -28.678200 -25.200400
C -22.424700 -30.596500 -26.538100
C -22.402200 -29.911400 -25.322100
H -21.923300 -32.359200 -27.416100
C -21.897300 -31.875700 -26.598600
C -21.825700 -30.480300 -24.210500
H -21.799300 -29.989200 -23.398500
C -21.328200 -32.457000 -25.466400
C -21.277000 -31.772000 -24.250400
H -20.968700 -33.333400 -25.522700
O -20.841700 -30.579600 -21.577000
C -20.639800 -32.372800 -23.083800
H -20.573900 -30.356200 -20.812500
C -20.422600 -31.846000 -21.852700
O -20.210600 -33.668100 -23.351900
C -19.767100 -32.579300 -20.780900
O -19.592300 -32.060100 -19.662700
C -19.574700 -34.409400 -22.396800
H -19.336000 -36.015000 -23.663600
C -19.333400 -33.916300 -21.128000
C -19.172000 -35.697100 -22.784300
C -18.698300 -34.756700 -20.191500
H -18.553000 -34.449400 -19.303800
C -18.533100 -36.484300 -21.854000
C -18.285000 -36.023600 -20.552800
O -18.126200 -37.724200 -22.254200
H -17.837200 -36.579600 -19.926300
H -17.743100 -38.112300 -21.615000
24
Fragment
H -26.476300 -31.348000 -25.638100
H -26.246200 -29.770300 -25.496600
C -25.826200 -30.652600 -25.408700
H -25.769900 -29.063500 -23.156600
C -25.392900 -29.929600 -23.053600
N -25.376800 -30.841000 -24.036400
H -25.058100 -30.710000 -26.014600
N -24.826000 -30.350000 -21.907200
C -24.752700 -31.965300 -23.493300
O -24.736200 -33.604700 -25.195400
C -24.435700 -33.211100 -24.063500
C -24.430600 -31.611600 -22.218200
H -24.328700 -31.973100 -19.497600
N -23.773700 -32.481200 -21.375700
H -23.729600 -36.046300 -23.199200
N -23.706200 -34.017500 -23.171700
C -23.486300 -32.101900 -19.981200
C -23.380500 -33.704600 -21.851300
H -23.377200 -35.399600 -24.620000
C -23.232800 -35.334100 -23.654000
H -22.972100 -31.268400 -19.970200
H -22.966300 -32.811200 -19.549800
O -22.742200 -34.499600 -21.163600
H -22.276300 -35.429100 -23.460300
55
Fragment
H -23.334400 -28.466800 -25.923900
H -23.033100 -30.479400 -28.259800
O -22.989600 -29.952600 -27.606900
O -22.963200 -28.678200 -25.200400
C -22.424700 -30.596500 -26.538100
C -22.402200 -29.911400 -25.322100
H -21.923300 -32.359200 -27.416100
C -21.897300 -31.875700 -26.598600
C -21.825700 -30.480300 -24.210500
H -21.799300 -29.989200 -23.398500
C -21.328200 -32.457000 -25.466400
C -21.277000 -31.772000 -24.250400
H -20.968700 -33.333400 -25.522700
O -20.841700 -30.579600 -21.577000
C -20.639800 -32.372800 -23.083800
H -20.573900 -30.356200 -20.812500
C -20.422600 -31.846000 -21.852700
O -20.210600 -33.668100 -23.351900
C -19.767100 -32.579300 -20.780900
O -19.592300 -32.060100 -19.662700
C -19.574700 -34.409400 -22.396800
H -19.336000 -36.015000 -23.663600
C -19.333400 -33.916300 -21.128000
C -19.172000 -35.697100 -22.784300
C -18.698300 -34.756700 -20.191500
H -18.553000 -34.449400 -19.303800
C -18.533100 -36.484300 -21.854000
C -18.285000 -36.023600 -20.552800
O -18.126200 -37.724200 -22.254200
H -17.837200 -36.579600 -19.926300
H -17.743100 -38.112300 -21.615000
H -26.476300 -31.348000 -25.638100
H -26.246200 -29.770300 -25.496600
C -25.826200 -30.652600 -25.408700
H -25.769900 -29.063500 -23.156600
C -25.392900 -29.929600 -23.053600
N -25.376800 -30.841000 -24.036400
H -25.058100 -30.710000 -26.014600
N -24.826000 -30.350000 -21.907200
C -24.752700 -31.965300 -23.493300
O -24.736200 -33.604700 -25.195400
C -24.435700 -33.211100 -24.063500
C -24.430600 -31.611600 -22.218200
H -24.328700 -31.973100 -19.497600
N -23.773700 -32.481200 -21.375700
H -23.729600 -36.046300 -23.199200
N -23.706200 -34.017500 -23.171700
C -23.486300 -32.101900 -19.981200
C -23.380500 -33.704600 -21.851300
H -23.377200 -35.399600 -24.620000
C -23.232800 -35.334100 -23.654000
H -22.972100 -31.268400 -19.970200
H -22.966300 -32.811200 -19.549800
O -22.742200 -34.499600 -21.163600
H -22.276300 -35.429100 -23.460300
