31
Fragment
H -23.334400 -28.466800 -25.923900
H -23.033100 -30.479400 -28.259800
O -22.989600 -29.952600 -27.606900
O -22.963200 -28.678200 -25.200400
C -22.424700 -30.596500 -26.538100
C -22.402200 -29.911400 -25.322100
H -21.923300 -32.359200 -27.416100
C -21.897300 -31.875700 -26.598600
C -21.825700 -30.480300 -24.210500
H -21.799300 -29.989200 -23.398500
C -21.328200 -32.457000 -25.466400
C -21.277000 -31.772000 -24.250400
H -20.968700 -33.333400 -25.522700
O -20.841700 -30.579600 -21.577000
C -20.639800 -32.372800 -23.083800
H -20.573900 -30.356200 -20.812500
C -20.422600 -31.846000 -21.852700
O -20.210600 -33.668100 -23.351900
C -19.767100 -32.579300 -20.780900
O -19.592300 -32.060100 -19.662700
C -19.574700 -34.409400 -22.396800
H -19.336000 -36.015000 -23.663600
C -19.333400 -33.916300 -21.128000
C -19.172000 -35.697100 -22.784300
C -18.698300 -34.756700 -20.191500
H -18.553000 -34.449400 -19.303800
C -18.533100 -36.484300 -21.854000
C -18.285000 -36.023600 -20.552800
O -18.126200 -37.724200 -22.254200
H -17.837200 -36.579600 -19.926300
H -17.743100 -38.112300 -21.615000
24
Fragment
H -17.045400 -37.447700 -26.066800
H -16.825100 -38.959700 -24.052500
C -16.586100 -38.144200 -26.521600
H -16.462900 -40.485000 -24.368500
N -16.359800 -38.129900 -27.855400
C -16.176600 -39.555900 -24.482600
N -16.096400 -39.243800 -25.890500
H -16.029700 -38.279500 -30.418400
C -15.712400 -39.299400 -28.064700
H -15.664700 -39.588500 -31.264800
C -15.527400 -40.005500 -26.907700
C -15.378500 -39.004100 -30.532500
H -15.296100 -39.431600 -24.070400
N -15.289300 -39.785000 -29.283700
C -14.909400 -41.290700 -26.867900
O -14.654800 -41.946800 -25.856100
C -14.639300 -41.016500 -29.342500
N -14.570500 -41.737700 -28.145500
H -14.527100 -43.699800 -27.652500
H -14.500600 -38.623200 -30.742700
O -14.175700 -41.440200 -30.392900
H -14.094700 -43.418600 -29.166700
C -14.022300 -43.102900 -28.241900
H -13.080100 -43.096000 -27.972600
55
Fragment
H -23.334400 -28.466800 -25.923900
H -23.033100 -30.479400 -28.259800
O -22.989600 -29.952600 -27.606900
O -22.963200 -28.678200 -25.200400
C -22.424700 -30.596500 -26.538100
C -22.402200 -29.911400 -25.322100
H -21.923300 -32.359200 -27.416100
C -21.897300 -31.875700 -26.598600
C -21.825700 -30.480300 -24.210500
H -21.799300 -29.989200 -23.398500
C -21.328200 -32.457000 -25.466400
C -21.277000 -31.772000 -24.250400
H -20.968700 -33.333400 -25.522700
O -20.841700 -30.579600 -21.577000
C -20.639800 -32.372800 -23.083800
H -20.573900 -30.356200 -20.812500
C -20.422600 -31.846000 -21.852700
O -20.210600 -33.668100 -23.351900
C -19.767100 -32.579300 -20.780900
O -19.592300 -32.060100 -19.662700
C -19.574700 -34.409400 -22.396800
H -19.336000 -36.015000 -23.663600
C -19.333400 -33.916300 -21.128000
C -19.172000 -35.697100 -22.784300
C -18.698300 -34.756700 -20.191500
H -18.553000 -34.449400 -19.303800
C -18.533100 -36.484300 -21.854000
C -18.285000 -36.023600 -20.552800
O -18.126200 -37.724200 -22.254200
H -17.837200 -36.579600 -19.926300
H -17.743100 -38.112300 -21.615000
H -17.045400 -37.447700 -26.066800
H -16.825100 -38.959700 -24.052500
C -16.586100 -38.144200 -26.521600
H -16.462900 -40.485000 -24.368500
N -16.359800 -38.129900 -27.855400
C -16.176600 -39.555900 -24.482600
N -16.096400 -39.243800 -25.890500
H -16.029700 -38.279500 -30.418400
C -15.712400 -39.299400 -28.064700
H -15.664700 -39.588500 -31.264800
C -15.527400 -40.005500 -26.907700
C -15.378500 -39.004100 -30.532500
H -15.296100 -39.431600 -24.070400
N -15.289300 -39.785000 -29.283700
C -14.909400 -41.290700 -26.867900
O -14.654800 -41.946800 -25.856100
C -14.639300 -41.016500 -29.342500
N -14.570500 -41.737700 -28.145500
H -14.527100 -43.699800 -27.652500
H -14.500600 -38.623200 -30.742700
O -14.175700 -41.440200 -30.392900
H -14.094700 -43.418600 -29.166700
C -14.022300 -43.102900 -28.241900
H -13.080100 -43.096000 -27.972600
