31
Fragment
H -23.334400 -28.466800 -25.923900
H -23.033100 -30.479400 -28.259800
O -22.989600 -29.952600 -27.606900
O -22.963200 -28.678200 -25.200400
C -22.424700 -30.596500 -26.538100
C -22.402200 -29.911400 -25.322100
H -21.923300 -32.359200 -27.416100
C -21.897300 -31.875700 -26.598600
C -21.825700 -30.480300 -24.210500
H -21.799300 -29.989200 -23.398500
C -21.328200 -32.457000 -25.466400
C -21.277000 -31.772000 -24.250400
H -20.968700 -33.333400 -25.522700
O -20.841700 -30.579600 -21.577000
C -20.639800 -32.372800 -23.083800
H -20.573900 -30.356200 -20.812500
C -20.422600 -31.846000 -21.852700
O -20.210600 -33.668100 -23.351900
C -19.767100 -32.579300 -20.780900
O -19.592300 -32.060100 -19.662700
C -19.574700 -34.409400 -22.396800
H -19.336000 -36.015000 -23.663600
C -19.333400 -33.916300 -21.128000
C -19.172000 -35.697100 -22.784300
C -18.698300 -34.756700 -20.191500
H -18.553000 -34.449400 -19.303800
C -18.533100 -36.484300 -21.854000
C -18.285000 -36.023600 -20.552800
O -18.126200 -37.724200 -22.254200
H -17.837200 -36.579600 -19.926300
H -17.743100 -38.112300 -21.615000
24
Fragment
H -22.952900 -24.002900 -17.760800
O -22.487000 -24.932400 -20.057500
H -22.262900 -26.620800 -21.671300
H -22.257100 -28.163600 -21.250800
C -21.996400 -24.097900 -17.567100
H -21.852000 -24.032300 -16.601100
C -21.848600 -25.727400 -19.369800
C -21.742900 -27.330100 -21.239800
N -21.522900 -25.414500 -18.049300
H -21.499500 -23.385700 -18.021900
N -21.455500 -26.950800 -19.845300
H -20.900500 -27.458900 -21.723500
C -20.798600 -27.820400 -19.002900
C -20.793400 -26.220900 -17.157600
O -20.493000 -25.827300 -16.025700
C -20.476500 -27.466700 -17.727800
N -20.403200 -29.082000 -19.313900
H -20.171000 -28.722000 -15.206500
N -19.852400 -28.591000 -17.184700
C -19.836200 -29.502300 -18.167500
H -19.459200 -30.368500 -18.064500
C -19.402900 -28.779400 -15.812400
H -18.983000 -29.661600 -15.724500
H -18.752900 -28.084000 -15.582900
55
Fragment
H -23.334400 -28.466800 -25.923900
H -23.033100 -30.479400 -28.259800
O -22.989600 -29.952600 -27.606900
O -22.963200 -28.678200 -25.200400
C -22.424700 -30.596500 -26.538100
C -22.402200 -29.911400 -25.322100
H -21.923300 -32.359200 -27.416100
C -21.897300 -31.875700 -26.598600
C -21.825700 -30.480300 -24.210500
H -21.799300 -29.989200 -23.398500
C -21.328200 -32.457000 -25.466400
C -21.277000 -31.772000 -24.250400
H -20.968700 -33.333400 -25.522700
O -20.841700 -30.579600 -21.577000
C -20.639800 -32.372800 -23.083800
H -20.573900 -30.356200 -20.812500
C -20.422600 -31.846000 -21.852700
O -20.210600 -33.668100 -23.351900
C -19.767100 -32.579300 -20.780900
O -19.592300 -32.060100 -19.662700
C -19.574700 -34.409400 -22.396800
H -19.336000 -36.015000 -23.663600
C -19.333400 -33.916300 -21.128000
C -19.172000 -35.697100 -22.784300
C -18.698300 -34.756700 -20.191500
H -18.553000 -34.449400 -19.303800
C -18.533100 -36.484300 -21.854000
C -18.285000 -36.023600 -20.552800
O -18.126200 -37.724200 -22.254200
H -17.837200 -36.579600 -19.926300
H -17.743100 -38.112300 -21.615000
H -22.952900 -24.002900 -17.760800
O -22.487000 -24.932400 -20.057500
H -22.262900 -26.620800 -21.671300
H -22.257100 -28.163600 -21.250800
C -21.996400 -24.097900 -17.567100
H -21.852000 -24.032300 -16.601100
C -21.848600 -25.727400 -19.369800
C -21.742900 -27.330100 -21.239800
N -21.522900 -25.414500 -18.049300
H -21.499500 -23.385700 -18.021900
N -21.455500 -26.950800 -19.845300
H -20.900500 -27.458900 -21.723500
C -20.798600 -27.820400 -19.002900
C -20.793400 -26.220900 -17.157600
O -20.493000 -25.827300 -16.025700
C -20.476500 -27.466700 -17.727800
N -20.403200 -29.082000 -19.313900
H -20.171000 -28.722000 -15.206500
N -19.852400 -28.591000 -17.184700
C -19.836200 -29.502300 -18.167500
H -19.459200 -30.368500 -18.064500
C -19.402900 -28.779400 -15.812400
H -18.983000 -29.661600 -15.724500
H -18.752900 -28.084000 -15.582900
