15
Fragment
H -7.917400 -15.863700 -20.490900
N -7.223900 -16.733300 -22.991400
N -7.075300 -16.229500 -20.607400
H -6.829300 -17.297000 -24.816200
C -6.601000 -16.725800 -21.794300
C -6.456900 -17.277800 -23.923500
H -6.235800 -16.152500 -18.728700
C -6.094800 -16.434900 -19.691300
C -5.341900 -17.224300 -21.523400
N -5.229600 -17.810500 -23.802600
N -5.029200 -17.033900 -20.177700
C -4.638200 -17.818000 -22.592400
N -3.435200 -18.380700 -22.467100
H -3.114500 -18.441600 -21.626800
H -3.078100 -18.698400 -23.156000
15
Fragment
H -6.296400 -16.227300 -27.772600
N -5.603000 -15.357700 -30.273200
N -5.454300 -15.861500 -27.889100
H -5.208400 -14.794000 -32.098000
C -4.980000 -15.365200 -29.076100
C -4.835900 -14.813200 -31.205200
H -4.614800 -15.938500 -26.010400
C -4.473800 -15.656100 -26.973100
C -3.720900 -14.866700 -28.805200
N -3.608700 -14.280500 -31.084400
N -3.408200 -15.057100 -27.459500
C -3.017200 -14.273000 -29.874100
N -1.814200 -13.710300 -29.748900
H -1.493500 -13.649400 -28.908600
H -1.457100 -13.392600 -30.437700
30
Fragment
H -7.917400 -15.863700 -20.490900
N -7.223900 -16.733300 -22.991400
N -7.075300 -16.229500 -20.607400
H -6.829300 -17.297000 -24.816200
C -6.601000 -16.725800 -21.794300
C -6.456900 -17.277800 -23.923500
H -6.235800 -16.152500 -18.728700
C -6.094800 -16.434900 -19.691300
C -5.341900 -17.224300 -21.523400
N -5.229600 -17.810500 -23.802600
N -5.029200 -17.033900 -20.177700
C -4.638200 -17.818000 -22.592400
N -3.435200 -18.380700 -22.467100
H -3.114500 -18.441600 -21.626800
H -3.078100 -18.698400 -23.156000
H -6.296400 -16.227300 -27.772600
N -5.603000 -15.357700 -30.273200
N -5.454300 -15.861500 -27.889100
H -5.208400 -14.794000 -32.098000
C -4.980000 -15.365200 -29.076100
C -4.835900 -14.813200 -31.205200
H -4.614800 -15.938500 -26.010400
C -4.473800 -15.656100 -26.973100
C -3.720900 -14.866700 -28.805200
N -3.608700 -14.280500 -31.084400
N -3.408200 -15.057100 -27.459500
C -3.017200 -14.273000 -29.874100
N -1.814200 -13.710300 -29.748900
H -1.493500 -13.649400 -28.908600
H -1.457100 -13.392600 -30.437700
