15
Fragment
H -7.917400 -15.863700 -20.490900
N -7.223900 -16.733300 -22.991400
N -7.075300 -16.229500 -20.607400
H -6.829300 -17.297000 -24.816200
C -6.601000 -16.725800 -21.794300
C -6.456900 -17.277800 -23.923500
H -6.235800 -16.152500 -18.728700
C -6.094800 -16.434900 -19.691300
C -5.341900 -17.224300 -21.523400
N -5.229600 -17.810500 -23.802600
N -5.029200 -17.033900 -20.177700
C -4.638200 -17.818000 -22.592400
N -3.435200 -18.380700 -22.467100
H -3.114500 -18.441600 -21.626800
H -3.078100 -18.698400 -23.156000
15
Fragment
H -12.392000 -18.698400 -27.816300
H -12.355500 -18.441600 -29.345500
N -12.034800 -18.380700 -28.505200
C -10.831800 -17.818000 -28.379900
N -10.440900 -17.033900 -30.794500
N -10.240400 -17.810500 -27.169700
C -10.128100 -17.224300 -29.448900
C -9.375200 -16.434900 -31.281000
H -9.234200 -16.152500 -32.243600
C -9.013200 -17.277800 -27.048800
C -8.869000 -16.725800 -29.178000
H -8.640700 -17.297000 -26.156100
N -8.394700 -16.229500 -30.364900
N -8.246100 -16.733300 -27.980900
H -7.552700 -15.863700 -30.481400
30
Fragment
H -7.917400 -15.863700 -20.490900
N -7.223900 -16.733300 -22.991400
N -7.075300 -16.229500 -20.607400
H -6.829300 -17.297000 -24.816200
C -6.601000 -16.725800 -21.794300
C -6.456900 -17.277800 -23.923500
H -6.235800 -16.152500 -18.728700
C -6.094800 -16.434900 -19.691300
C -5.341900 -17.224300 -21.523400
N -5.229600 -17.810500 -23.802600
N -5.029200 -17.033900 -20.177700
C -4.638200 -17.818000 -22.592400
N -3.435200 -18.380700 -22.467100
H -3.114500 -18.441600 -21.626800
H -3.078100 -18.698400 -23.156000
H -12.392000 -18.698400 -27.816300
H -12.355500 -18.441600 -29.345500
N -12.034800 -18.380700 -28.505200
C -10.831800 -17.818000 -28.379900
N -10.440900 -17.033900 -30.794500
N -10.240400 -17.810500 -27.169700
C -10.128100 -17.224300 -29.448900
C -9.375200 -16.434900 -31.281000
H -9.234200 -16.152500 -32.243600
C -9.013200 -17.277800 -27.048800
C -8.869000 -16.725800 -29.178000
H -8.640700 -17.297000 -26.156100
N -8.394700 -16.229500 -30.364900
N -8.246100 -16.733300 -27.980900
H -7.552700 -15.863700 -30.481400
