15
Fragment
H -7.917400 -15.863700 -20.490900
N -7.223900 -16.733300 -22.991400
N -7.075300 -16.229500 -20.607400
H -6.829300 -17.297000 -24.816200
C -6.601000 -16.725800 -21.794300
C -6.456900 -17.277800 -23.923500
H -6.235800 -16.152500 -18.728700
C -6.094800 -16.434900 -19.691300
C -5.341900 -17.224300 -21.523400
N -5.229600 -17.810500 -23.802600
N -5.029200 -17.033900 -20.177700
C -4.638200 -17.818000 -22.592400
N -3.435200 -18.380700 -22.467100
H -3.114500 -18.441600 -21.626800
H -3.078100 -18.698400 -23.156000
15
Fragment
H -6.695000 -18.698400 -13.252800
H -6.658500 -18.441600 -14.782000
N -6.337800 -18.380700 -13.941700
C -5.134800 -17.818000 -13.816400
N -4.743900 -17.033900 -16.231000
N -4.543400 -17.810500 -12.606200
C -4.431100 -17.224300 -14.885400
C -3.678200 -16.434900 -16.717500
H -3.537200 -16.152500 -17.680100
C -3.316100 -17.277800 -12.485300
C -3.172000 -16.725800 -14.614500
H -2.943700 -17.297000 -11.592600
N -2.697700 -16.229500 -15.801400
N -2.549100 -16.733300 -13.417400
H -1.855700 -15.863700 -15.917900
30
Fragment
H -7.917400 -15.863700 -20.490900
N -7.223900 -16.733300 -22.991400
N -7.075300 -16.229500 -20.607400
H -6.829300 -17.297000 -24.816200
C -6.601000 -16.725800 -21.794300
C -6.456900 -17.277800 -23.923500
H -6.235800 -16.152500 -18.728700
C -6.094800 -16.434900 -19.691300
C -5.341900 -17.224300 -21.523400
N -5.229600 -17.810500 -23.802600
N -5.029200 -17.033900 -20.177700
C -4.638200 -17.818000 -22.592400
N -3.435200 -18.380700 -22.467100
H -3.114500 -18.441600 -21.626800
H -3.078100 -18.698400 -23.156000
H -6.695000 -18.698400 -13.252800
H -6.658500 -18.441600 -14.782000
N -6.337800 -18.380700 -13.941700
C -5.134800 -17.818000 -13.816400
N -4.743900 -17.033900 -16.231000
N -4.543400 -17.810500 -12.606200
C -4.431100 -17.224300 -14.885400
C -3.678200 -16.434900 -16.717500
H -3.537200 -16.152500 -17.680100
C -3.316100 -17.277800 -12.485300
C -3.172000 -16.725800 -14.614500
H -2.943700 -17.297000 -11.592600
N -2.697700 -16.229500 -15.801400
N -2.549100 -16.733300 -13.417400
H -1.855700 -15.863700 -15.917900
