33
Fragment
H -8.509400 -33.930900 -23.241100
H -8.194900 -32.109500 -21.879600
C -7.751000 -33.878000 -22.705400
C -7.575400 -32.803000 -21.886800
H -6.925400 -35.614600 -23.333600
C -6.797900 -34.905100 -22.745800
C -6.459900 -32.757500 -21.066900
H -6.279000 -30.023800 -18.779400
N -6.066000 -31.810500 -20.143600
N -5.710200 -29.668800 -18.193600
C -5.691300 -34.897700 -21.952400
H -5.551600 -28.845500 -17.998800
C -5.534500 -33.805300 -21.109800
H -5.339500 -29.294600 -15.439800
H -5.179600 -27.554000 -13.925200
H -5.070700 -35.590300 -21.974600
C -4.933000 -32.285300 -19.644100
C -4.588000 -30.407000 -18.009400
N -4.570000 -33.474400 -20.194200
C -4.559700 -28.790400 -15.387100
C -4.462200 -27.748700 -14.484000
C -4.200200 -31.594300 -18.626200
H -3.867900 -33.932700 -20.003400
N -3.593400 -30.139200 -17.155500
C -3.499200 -29.073700 -16.204500
C -3.318900 -27.001900 -14.407000
H -3.267100 -26.290400 -13.810600
N -2.999800 -31.963500 -18.095200
N -2.606900 -31.097700 -17.213500
C -2.343800 -28.345800 -16.125000
C -2.244600 -27.304300 -15.214300
H -1.626500 -28.548700 -16.681500
H -1.457500 -26.813600 -15.148800
13
Fragment
H -7.784800 -26.446100 -18.615000
H -7.648600 -24.434000 -18.377500
C -6.916600 -26.137900 -18.917600
C -6.849300 -24.776700 -18.805300
H -6.814800 -26.392400 -19.848700
H -6.767900 -24.369900 -19.682200
O -5.927800 -26.737300 -18.167100
H -5.904200 -23.998900 -17.182100
C -5.660200 -24.479700 -17.988000
C -5.129600 -25.764400 -17.676400
H -5.055700 -25.859600 -16.713800
H -5.018300 -23.950700 -18.488600
H -4.241600 -25.850100 -18.056600
46
Fragment
H -8.509400 -33.930900 -23.241100
H -8.194900 -32.109500 -21.879600
C -7.751000 -33.878000 -22.705400
C -7.575400 -32.803000 -21.886800
H -6.925400 -35.614600 -23.333600
C -6.797900 -34.905100 -22.745800
C -6.459900 -32.757500 -21.066900
H -6.279000 -30.023800 -18.779400
N -6.066000 -31.810500 -20.143600
N -5.710200 -29.668800 -18.193600
C -5.691300 -34.897700 -21.952400
H -5.551600 -28.845500 -17.998800
C -5.534500 -33.805300 -21.109800
H -5.339500 -29.294600 -15.439800
H -5.179600 -27.554000 -13.925200
H -5.070700 -35.590300 -21.974600
C -4.933000 -32.285300 -19.644100
C -4.588000 -30.407000 -18.009400
N -4.570000 -33.474400 -20.194200
C -4.559700 -28.790400 -15.387100
C -4.462200 -27.748700 -14.484000
C -4.200200 -31.594300 -18.626200
H -3.867900 -33.932700 -20.003400
N -3.593400 -30.139200 -17.155500
C -3.499200 -29.073700 -16.204500
C -3.318900 -27.001900 -14.407000
H -3.267100 -26.290400 -13.810600
N -2.999800 -31.963500 -18.095200
N -2.606900 -31.097700 -17.213500
C -2.343800 -28.345800 -16.125000
C -2.244600 -27.304300 -15.214300
H -1.626500 -28.548700 -16.681500
H -1.457500 -26.813600 -15.148800
H -7.784800 -26.446100 -18.615000
H -7.648600 -24.434000 -18.377500
C -6.916600 -26.137900 -18.917600
C -6.849300 -24.776700 -18.805300
H -6.814800 -26.392400 -19.848700
H -6.767900 -24.369900 -19.682200
O -5.927800 -26.737300 -18.167100
H -5.904200 -23.998900 -17.182100
C -5.660200 -24.479700 -17.988000
C -5.129600 -25.764400 -17.676400
H -5.055700 -25.859600 -16.713800
H -5.018300 -23.950700 -18.488600
H -4.241600 -25.850100 -18.056600
