33
Fragment
H -8.509400 -33.930900 -23.241100
H -8.194900 -32.109500 -21.879600
C -7.751000 -33.878000 -22.705400
C -7.575400 -32.803000 -21.886800
H -6.925400 -35.614600 -23.333600
C -6.797900 -34.905100 -22.745800
C -6.459900 -32.757500 -21.066900
H -6.279000 -30.023800 -18.779400
N -6.066000 -31.810500 -20.143600
N -5.710200 -29.668800 -18.193600
C -5.691300 -34.897700 -21.952400
H -5.551600 -28.845500 -17.998800
C -5.534500 -33.805300 -21.109800
H -5.339500 -29.294600 -15.439800
H -5.179600 -27.554000 -13.925200
H -5.070700 -35.590300 -21.974600
C -4.933000 -32.285300 -19.644100
C -4.588000 -30.407000 -18.009400
N -4.570000 -33.474400 -20.194200
C -4.559700 -28.790400 -15.387100
C -4.462200 -27.748700 -14.484000
C -4.200200 -31.594300 -18.626200
H -3.867900 -33.932700 -20.003400
N -3.593400 -30.139200 -17.155500
C -3.499200 -29.073700 -16.204500
C -3.318900 -27.001900 -14.407000
H -3.267100 -26.290400 -13.810600
N -2.999800 -31.963500 -18.095200
N -2.606900 -31.097700 -17.213500
C -2.343800 -28.345800 -16.125000
C -2.244600 -27.304300 -15.214300
H -1.626500 -28.548700 -16.681500
H -1.457500 -26.813600 -15.148800
33
Fragment
H -4.023100 -40.685500 -22.691400
H -3.854000 -38.950400 -21.158800
C -3.236000 -40.194800 -22.625900
C -3.136800 -39.153300 -21.715300
N -2.873600 -36.401400 -20.626700
N -2.480800 -35.535600 -19.745000
H -2.213400 -41.208700 -24.029700
C -2.161700 -40.497200 -23.433200
C -1.981400 -38.425400 -21.635800
N -1.887200 -37.359900 -20.684700
H -1.612700 -33.566400 -17.836900
C -1.280400 -35.904800 -19.214000
C -1.018300 -39.750400 -23.356300
C -0.920900 -38.708700 -22.453100
N -0.910600 -34.024700 -17.646000
C -0.892600 -37.092100 -19.830800
C -0.547600 -35.213800 -18.196100
H -0.409900 -31.908800 -15.865700
H -0.301000 -39.945100 -23.915000
H -0.141000 -38.204500 -22.400400
C 0.053900 -33.693800 -16.730400
H 0.071000 -38.653600 -19.841400
C 0.210700 -32.601400 -15.887900
N 0.229600 -37.830300 -19.646700
N 0.585400 -35.688600 -17.696600
H 0.798400 -37.475300 -19.060900
C 0.979300 -34.741600 -16.773300
C 1.317300 -32.594000 -15.094500
H 1.444800 -31.884500 -14.506700
C 2.094800 -34.696100 -15.953500
C 2.270500 -33.621100 -15.134800
H 2.714300 -35.389600 -15.960600
H 3.028800 -33.568200 -14.599100
66
Fragment
H -8.509400 -33.930900 -23.241100
H -8.194900 -32.109500 -21.879600
C -7.751000 -33.878000 -22.705400
C -7.575400 -32.803000 -21.886800
H -6.925400 -35.614600 -23.333600
C -6.797900 -34.905100 -22.745800
C -6.459900 -32.757500 -21.066900
H -6.279000 -30.023800 -18.779400
N -6.066000 -31.810500 -20.143600
N -5.710200 -29.668800 -18.193600
C -5.691300 -34.897700 -21.952400
H -5.551600 -28.845500 -17.998800
C -5.534500 -33.805300 -21.109800
H -5.339500 -29.294600 -15.439800
H -5.179600 -27.554000 -13.925200
H -5.070700 -35.590300 -21.974600
C -4.933000 -32.285300 -19.644100
C -4.588000 -30.407000 -18.009400
N -4.570000 -33.474400 -20.194200
C -4.559700 -28.790400 -15.387100
C -4.462200 -27.748700 -14.484000
C -4.200200 -31.594300 -18.626200
H -3.867900 -33.932700 -20.003400
N -3.593400 -30.139200 -17.155500
C -3.499200 -29.073700 -16.204500
C -3.318900 -27.001900 -14.407000
H -3.267100 -26.290400 -13.810600
N -2.999800 -31.963500 -18.095200
N -2.606900 -31.097700 -17.213500
C -2.343800 -28.345800 -16.125000
C -2.244600 -27.304300 -15.214300
H -1.626500 -28.548700 -16.681500
H -1.457500 -26.813600 -15.148800
H -4.023100 -40.685500 -22.691400
H -3.854000 -38.950400 -21.158800
C -3.236000 -40.194800 -22.625900
C -3.136800 -39.153300 -21.715300
N -2.873600 -36.401400 -20.626700
N -2.480800 -35.535600 -19.745000
H -2.213400 -41.208700 -24.029700
C -2.161700 -40.497200 -23.433200
C -1.981400 -38.425400 -21.635800
N -1.887200 -37.359900 -20.684700
H -1.612700 -33.566400 -17.836900
C -1.280400 -35.904800 -19.214000
C -1.018300 -39.750400 -23.356300
C -0.920900 -38.708700 -22.453100
N -0.910600 -34.024700 -17.646000
C -0.892600 -37.092100 -19.830800
C -0.547600 -35.213800 -18.196100
H -0.409900 -31.908800 -15.865700
H -0.301000 -39.945100 -23.915000
H -0.141000 -38.204500 -22.400400
C 0.053900 -33.693800 -16.730400
H 0.071000 -38.653600 -19.841400
C 0.210700 -32.601400 -15.887900
N 0.229600 -37.830300 -19.646700
N 0.585400 -35.688600 -17.696600
H 0.798400 -37.475300 -19.060900
C 0.979300 -34.741600 -16.773300
C 1.317300 -32.594000 -15.094500
H 1.444800 -31.884500 -14.506700
C 2.094800 -34.696100 -15.953500
C 2.270500 -33.621100 -15.134800
H 2.714300 -35.389600 -15.960600
H 3.028800 -33.568200 -14.599100
