33
Fragment
H -9.235000 -34.978000 -22.085300
H -8.912200 -33.127100 -20.753200
C -8.461200 -34.909700 -21.573600
C -8.274500 -33.803400 -20.785000
H -7.666100 -36.672900 -22.176600
C -7.513000 -35.938700 -21.626400
C -7.107200 -33.720300 -20.035900
H -6.802100 -30.888300 -17.870200
N -6.674100 -32.728000 -19.179000
C -6.361800 -35.882400 -20.880900
H -6.231500 -29.533400 -17.342800
N -6.202600 -30.474900 -17.369200
C -6.185300 -34.761000 -20.085000
H -5.729800 -36.564400 -20.907600
H -5.669200 -29.939200 -14.657200
C -5.530600 -33.172100 -18.721100
H -5.416000 -28.114300 -13.287400
N -5.180000 -34.384800 -19.218500
C -5.092900 -31.224200 -17.203800
C -4.886500 -29.438600 -14.688000
C -4.738000 -32.431800 -17.767100
C -4.729900 -28.351400 -13.869400
H -4.470000 -34.831700 -19.030100
N -4.045500 -30.905000 -16.410300
C -3.882900 -29.782700 -15.552200
C -3.575500 -27.605800 -13.893400
N -3.519300 -32.801800 -17.291300
H -3.472000 -26.873200 -13.329600
N -3.081300 -31.881800 -16.470300
C -2.716400 -29.050800 -15.597700
C -2.581200 -27.963200 -14.763600
H -2.032900 -29.287100 -16.182700
H -1.798300 -27.461600 -14.792400
33
Fragment
H -2.815800 -34.978000 -22.085300
H -2.493000 -33.127100 -20.753200
C -2.042000 -34.909700 -21.573600
C -1.855300 -33.803400 -20.785000
H -1.246900 -36.672900 -22.176600
C -1.093800 -35.938700 -21.626400
C -0.688000 -33.720300 -20.035900
H -0.382900 -30.888300 -17.870200
N -0.254900 -32.728000 -19.179000
C 0.057400 -35.882400 -20.880900
H 0.187700 -29.533400 -17.342800
N 0.216600 -30.474900 -17.369200
C 0.233900 -34.761000 -20.085000
H 0.689400 -36.564400 -20.907600
H 0.750000 -29.939200 -14.657200
C 0.888600 -33.172100 -18.721100
H 1.003200 -28.114300 -13.287400
N 1.239200 -34.384800 -19.218500
C 1.326300 -31.224200 -17.203800
C 1.532700 -29.438600 -14.688000
C 1.681200 -32.431800 -17.767100
C 1.689300 -28.351400 -13.869400
H 1.949200 -34.831700 -19.030100
N 2.373700 -30.905000 -16.410300
C 2.536300 -29.782700 -15.552200
C 2.843700 -27.605800 -13.893400
N 2.899900 -32.801800 -17.291300
H 2.947200 -26.873200 -13.329600
N 3.337900 -31.881800 -16.470300
C 3.702800 -29.050800 -15.597700
C 3.838000 -27.963200 -14.763600
H 4.386300 -29.287100 -16.182700
H 4.620900 -27.461600 -14.792400
66
Fragment
H -9.235000 -34.978000 -22.085300
H -8.912200 -33.127100 -20.753200
C -8.461200 -34.909700 -21.573600
C -8.274500 -33.803400 -20.785000
H -7.666100 -36.672900 -22.176600
C -7.513000 -35.938700 -21.626400
C -7.107200 -33.720300 -20.035900
H -6.802100 -30.888300 -17.870200
N -6.674100 -32.728000 -19.179000
C -6.361800 -35.882400 -20.880900
H -6.231500 -29.533400 -17.342800
N -6.202600 -30.474900 -17.369200
C -6.185300 -34.761000 -20.085000
H -5.729800 -36.564400 -20.907600
H -5.669200 -29.939200 -14.657200
C -5.530600 -33.172100 -18.721100
H -5.416000 -28.114300 -13.287400
N -5.180000 -34.384800 -19.218500
C -5.092900 -31.224200 -17.203800
C -4.886500 -29.438600 -14.688000
C -4.738000 -32.431800 -17.767100
C -4.729900 -28.351400 -13.869400
H -4.470000 -34.831700 -19.030100
N -4.045500 -30.905000 -16.410300
C -3.882900 -29.782700 -15.552200
C -3.575500 -27.605800 -13.893400
N -3.519300 -32.801800 -17.291300
H -3.472000 -26.873200 -13.329600
N -3.081300 -31.881800 -16.470300
C -2.716400 -29.050800 -15.597700
C -2.581200 -27.963200 -14.763600
H -2.032900 -29.287100 -16.182700
H -1.798300 -27.461600 -14.792400
H -2.815800 -34.978000 -22.085300
H -2.493000 -33.127100 -20.753200
C -2.042000 -34.909700 -21.573600
C -1.855300 -33.803400 -20.785000
H -1.246900 -36.672900 -22.176600
C -1.093800 -35.938700 -21.626400
C -0.688000 -33.720300 -20.035900
H -0.382900 -30.888300 -17.870200
N -0.254900 -32.728000 -19.179000
C 0.057400 -35.882400 -20.880900
H 0.187700 -29.533400 -17.342800
N 0.216600 -30.474900 -17.369200
C 0.233900 -34.761000 -20.085000
H 0.689400 -36.564400 -20.907600
H 0.750000 -29.939200 -14.657200
C 0.888600 -33.172100 -18.721100
H 1.003200 -28.114300 -13.287400
N 1.239200 -34.384800 -19.218500
C 1.326300 -31.224200 -17.203800
C 1.532700 -29.438600 -14.688000
C 1.681200 -32.431800 -17.767100
C 1.689300 -28.351400 -13.869400
H 1.949200 -34.831700 -19.030100
N 2.373700 -30.905000 -16.410300
C 2.536300 -29.782700 -15.552200
C 2.843700 -27.605800 -13.893400
N 2.899900 -32.801800 -17.291300
H 2.947200 -26.873200 -13.329600
N 3.337900 -31.881800 -16.470300
C 3.702800 -29.050800 -15.597700
C 3.838000 -27.963200 -14.763600
H 4.386300 -29.287100 -16.182700
H 4.620900 -27.461600 -14.792400
