33
Fragment
H -9.235000 -34.978000 -22.085300
H -8.912200 -33.127100 -20.753200
C -8.461200 -34.909700 -21.573600
C -8.274500 -33.803400 -20.785000
H -7.666100 -36.672900 -22.176600
C -7.513000 -35.938700 -21.626400
C -7.107200 -33.720300 -20.035900
H -6.802100 -30.888300 -17.870200
N -6.674100 -32.728000 -19.179000
C -6.361800 -35.882400 -20.880900
H -6.231500 -29.533400 -17.342800
N -6.202600 -30.474900 -17.369200
C -6.185300 -34.761000 -20.085000
H -5.729800 -36.564400 -20.907600
H -5.669200 -29.939200 -14.657200
C -5.530600 -33.172100 -18.721100
H -5.416000 -28.114300 -13.287400
N -5.180000 -34.384800 -19.218500
C -5.092900 -31.224200 -17.203800
C -4.886500 -29.438600 -14.688000
C -4.738000 -32.431800 -17.767100
C -4.729900 -28.351400 -13.869400
H -4.470000 -34.831700 -19.030100
N -4.045500 -30.905000 -16.410300
C -3.882900 -29.782700 -15.552200
C -3.575500 -27.605800 -13.893400
N -3.519300 -32.801800 -17.291300
H -3.472000 -26.873200 -13.329600
N -3.081300 -31.881800 -16.470300
C -2.716400 -29.050800 -15.597700
C -2.581200 -27.963200 -14.763600
H -2.032900 -29.287100 -16.182700
H -1.798300 -27.461600 -14.792400
33
Fragment
H -4.861700 -41.784400 -21.163600
H -4.627200 -39.958900 -19.773300
C -4.078800 -41.282800 -21.192500
C -3.943600 -40.195200 -20.358300
N -3.578700 -37.364200 -19.485800
H -3.188000 -42.372800 -22.626400
N -3.140800 -36.444200 -18.664800
C -3.084600 -41.640200 -22.062600
C -2.777100 -39.463300 -20.403900
N -2.614500 -38.341000 -19.545700
H -2.190000 -34.414300 -16.925900
C -1.930100 -40.894600 -22.086600
C -1.922000 -36.814200 -18.189000
C -1.773600 -39.807400 -21.268000
C -1.567100 -38.021800 -18.752300
N -1.480000 -34.861200 -16.737500
H -1.244000 -41.131700 -22.668600
C -1.129500 -36.073900 -17.234900
H -0.990800 -39.306800 -21.298800
H -0.930200 -32.681600 -15.048400
C -0.474800 -34.485000 -15.871000
N -0.457400 -38.771100 -18.586900
H -0.428500 -39.712600 -18.613200
C -0.298300 -33.363600 -15.075200
N 0.014100 -36.518000 -16.777100
H 0.142100 -38.357700 -18.085900
C 0.447100 -35.525700 -15.920100
C 0.853000 -33.307300 -14.329700
H 1.006000 -32.573100 -13.779400
C 1.614500 -35.442600 -15.171100
C 1.801200 -34.336300 -14.382400
H 2.252100 -36.118900 -15.202800
H 2.575000 -34.268000 -13.870800
66
Fragment
H -9.235000 -34.978000 -22.085300
H -8.912200 -33.127100 -20.753200
C -8.461200 -34.909700 -21.573600
C -8.274500 -33.803400 -20.785000
H -7.666100 -36.672900 -22.176600
C -7.513000 -35.938700 -21.626400
C -7.107200 -33.720300 -20.035900
H -6.802100 -30.888300 -17.870200
N -6.674100 -32.728000 -19.179000
C -6.361800 -35.882400 -20.880900
H -6.231500 -29.533400 -17.342800
N -6.202600 -30.474900 -17.369200
C -6.185300 -34.761000 -20.085000
H -5.729800 -36.564400 -20.907600
H -5.669200 -29.939200 -14.657200
C -5.530600 -33.172100 -18.721100
H -5.416000 -28.114300 -13.287400
N -5.180000 -34.384800 -19.218500
C -5.092900 -31.224200 -17.203800
C -4.886500 -29.438600 -14.688000
C -4.738000 -32.431800 -17.767100
C -4.729900 -28.351400 -13.869400
H -4.470000 -34.831700 -19.030100
N -4.045500 -30.905000 -16.410300
C -3.882900 -29.782700 -15.552200
C -3.575500 -27.605800 -13.893400
N -3.519300 -32.801800 -17.291300
H -3.472000 -26.873200 -13.329600
N -3.081300 -31.881800 -16.470300
C -2.716400 -29.050800 -15.597700
C -2.581200 -27.963200 -14.763600
H -2.032900 -29.287100 -16.182700
H -1.798300 -27.461600 -14.792400
H -4.861700 -41.784400 -21.163600
H -4.627200 -39.958900 -19.773300
C -4.078800 -41.282800 -21.192500
C -3.943600 -40.195200 -20.358300
N -3.578700 -37.364200 -19.485800
H -3.188000 -42.372800 -22.626400
N -3.140800 -36.444200 -18.664800
C -3.084600 -41.640200 -22.062600
C -2.777100 -39.463300 -20.403900
N -2.614500 -38.341000 -19.545700
H -2.190000 -34.414300 -16.925900
C -1.930100 -40.894600 -22.086600
C -1.922000 -36.814200 -18.189000
C -1.773600 -39.807400 -21.268000
C -1.567100 -38.021800 -18.752300
N -1.480000 -34.861200 -16.737500
H -1.244000 -41.131700 -22.668600
C -1.129500 -36.073900 -17.234900
H -0.990800 -39.306800 -21.298800
H -0.930200 -32.681600 -15.048400
C -0.474800 -34.485000 -15.871000
N -0.457400 -38.771100 -18.586900
H -0.428500 -39.712600 -18.613200
C -0.298300 -33.363600 -15.075200
N 0.014100 -36.518000 -16.777100
H 0.142100 -38.357700 -18.085900
C 0.447100 -35.525700 -15.920100
C 0.853000 -33.307300 -14.329700
H 1.006000 -32.573100 -13.779400
C 1.614500 -35.442600 -15.171100
C 1.801200 -34.336300 -14.382400
H 2.252100 -36.118900 -15.202800
H 2.575000 -34.268000 -13.870800
