33
Fragment
H -9.235000 -34.978000 -22.085300
H -8.912200 -33.127100 -20.753200
C -8.461200 -34.909700 -21.573600
C -8.274500 -33.803400 -20.785000
H -7.666100 -36.672900 -22.176600
C -7.513000 -35.938700 -21.626400
C -7.107200 -33.720300 -20.035900
H -6.802100 -30.888300 -17.870200
N -6.674100 -32.728000 -19.179000
C -6.361800 -35.882400 -20.880900
H -6.231500 -29.533400 -17.342800
N -6.202600 -30.474900 -17.369200
C -6.185300 -34.761000 -20.085000
H -5.729800 -36.564400 -20.907600
H -5.669200 -29.939200 -14.657200
C -5.530600 -33.172100 -18.721100
H -5.416000 -28.114300 -13.287400
N -5.180000 -34.384800 -19.218500
C -5.092900 -31.224200 -17.203800
C -4.886500 -29.438600 -14.688000
C -4.738000 -32.431800 -17.767100
C -4.729900 -28.351400 -13.869400
H -4.470000 -34.831700 -19.030100
N -4.045500 -30.905000 -16.410300
C -3.882900 -29.782700 -15.552200
C -3.575500 -27.605800 -13.893400
N -3.519300 -32.801800 -17.291300
H -3.472000 -26.873200 -13.329600
N -3.081300 -31.881800 -16.470300
C -2.716400 -29.050800 -15.597700
C -2.581200 -27.963200 -14.763600
H -2.032900 -29.287100 -16.182700
H -1.798300 -27.461600 -14.792400
11
Fragment
H -13.952300 -32.204700 -24.565500
H -13.272400 -30.066400 -24.654600
C -13.187300 -31.938600 -24.108500
H -12.795400 -33.683800 -23.279400
C -12.757500 -30.673700 -24.174400
C -12.495500 -32.808800 -23.375000
N -11.666500 -30.234200 -23.612300
C -11.374800 -32.416400 -22.780500
C -10.993900 -31.123800 -22.928000
H -10.866300 -33.010300 -22.277800
H -10.205000 -30.851900 -22.517000
44
Fragment
H -9.235000 -34.978000 -22.085300
H -8.912200 -33.127100 -20.753200
C -8.461200 -34.909700 -21.573600
C -8.274500 -33.803400 -20.785000
H -7.666100 -36.672900 -22.176600
C -7.513000 -35.938700 -21.626400
C -7.107200 -33.720300 -20.035900
H -6.802100 -30.888300 -17.870200
N -6.674100 -32.728000 -19.179000
C -6.361800 -35.882400 -20.880900
H -6.231500 -29.533400 -17.342800
N -6.202600 -30.474900 -17.369200
C -6.185300 -34.761000 -20.085000
H -5.729800 -36.564400 -20.907600
H -5.669200 -29.939200 -14.657200
C -5.530600 -33.172100 -18.721100
H -5.416000 -28.114300 -13.287400
N -5.180000 -34.384800 -19.218500
C -5.092900 -31.224200 -17.203800
C -4.886500 -29.438600 -14.688000
C -4.738000 -32.431800 -17.767100
C -4.729900 -28.351400 -13.869400
H -4.470000 -34.831700 -19.030100
N -4.045500 -30.905000 -16.410300
C -3.882900 -29.782700 -15.552200
C -3.575500 -27.605800 -13.893400
N -3.519300 -32.801800 -17.291300
H -3.472000 -26.873200 -13.329600
N -3.081300 -31.881800 -16.470300
C -2.716400 -29.050800 -15.597700
C -2.581200 -27.963200 -14.763600
H -2.032900 -29.287100 -16.182700
H -1.798300 -27.461600 -14.792400
H -13.952300 -32.204700 -24.565500
H -13.272400 -30.066400 -24.654600
C -13.187300 -31.938600 -24.108500
H -12.795400 -33.683800 -23.279400
C -12.757500 -30.673700 -24.174400
C -12.495500 -32.808800 -23.375000
N -11.666500 -30.234200 -23.612300
C -11.374800 -32.416400 -22.780500
C -10.993900 -31.123800 -22.928000
H -10.866300 -33.010300 -22.277800
H -10.205000 -30.851900 -22.517000
