33
Fragment
H -9.235000 -34.978000 -22.085300
H -8.912200 -33.127100 -20.753200
C -8.461200 -34.909700 -21.573600
C -8.274500 -33.803400 -20.785000
H -7.666100 -36.672900 -22.176600
C -7.513000 -35.938700 -21.626400
C -7.107200 -33.720300 -20.035900
H -6.802100 -30.888300 -17.870200
N -6.674100 -32.728000 -19.179000
C -6.361800 -35.882400 -20.880900
H -6.231500 -29.533400 -17.342800
N -6.202600 -30.474900 -17.369200
C -6.185300 -34.761000 -20.085000
H -5.729800 -36.564400 -20.907600
H -5.669200 -29.939200 -14.657200
C -5.530600 -33.172100 -18.721100
H -5.416000 -28.114300 -13.287400
N -5.180000 -34.384800 -19.218500
C -5.092900 -31.224200 -17.203800
C -4.886500 -29.438600 -14.688000
C -4.738000 -32.431800 -17.767100
C -4.729900 -28.351400 -13.869400
H -4.470000 -34.831700 -19.030100
N -4.045500 -30.905000 -16.410300
C -3.882900 -29.782700 -15.552200
C -3.575500 -27.605800 -13.893400
N -3.519300 -32.801800 -17.291300
H -3.472000 -26.873200 -13.329600
N -3.081300 -31.881800 -16.470300
C -2.716400 -29.050800 -15.597700
C -2.581200 -27.963200 -14.763600
H -2.032900 -29.287100 -16.182700
H -1.798300 -27.461600 -14.792400
33
Fragment
H -10.264700 -22.727000 -16.092600
H -9.941900 -24.577900 -14.760600
C -9.490900 -22.795300 -15.581000
C -9.304200 -23.901600 -14.792300
H -8.695800 -21.032100 -16.183900
C -8.542700 -21.766300 -15.633700
C -8.136900 -23.984700 -14.043200
H -7.831800 -26.816700 -11.877500
N -7.703800 -24.977000 -13.186300
C -7.391500 -21.822600 -14.888200
H -7.261200 -28.171600 -11.350100
N -7.232300 -27.230100 -11.376500
C -7.215000 -22.944000 -14.092400
H -6.759600 -21.140600 -14.914900
H -6.699000 -27.765800 -8.664600
C -6.560300 -24.532900 -12.728400
H -6.445700 -29.590700 -7.294800
N -6.209700 -23.320200 -13.225800
C -6.122600 -26.480800 -11.211100
C -5.916200 -28.266400 -8.695400
C -5.767800 -25.273200 -11.774400
C -5.759600 -29.353600 -7.876800
H -5.499800 -22.873300 -13.037400
N -5.075300 -26.800000 -10.417700
C -4.912700 -27.922300 -9.559500
C -4.605200 -30.099200 -7.900700
N -4.549000 -24.903200 -11.298600
H -4.501700 -30.831800 -7.337000
N -4.111100 -25.823200 -10.477600
C -3.746200 -28.654200 -9.605100
C -3.610900 -29.741800 -8.770900
H -3.062600 -28.417900 -10.190100
H -2.828000 -30.243400 -8.799800
66
Fragment
H -9.235000 -34.978000 -22.085300
H -8.912200 -33.127100 -20.753200
C -8.461200 -34.909700 -21.573600
C -8.274500 -33.803400 -20.785000
H -7.666100 -36.672900 -22.176600
C -7.513000 -35.938700 -21.626400
C -7.107200 -33.720300 -20.035900
H -6.802100 -30.888300 -17.870200
N -6.674100 -32.728000 -19.179000
C -6.361800 -35.882400 -20.880900
H -6.231500 -29.533400 -17.342800
N -6.202600 -30.474900 -17.369200
C -6.185300 -34.761000 -20.085000
H -5.729800 -36.564400 -20.907600
H -5.669200 -29.939200 -14.657200
C -5.530600 -33.172100 -18.721100
H -5.416000 -28.114300 -13.287400
N -5.180000 -34.384800 -19.218500
C -5.092900 -31.224200 -17.203800
C -4.886500 -29.438600 -14.688000
C -4.738000 -32.431800 -17.767100
C -4.729900 -28.351400 -13.869400
H -4.470000 -34.831700 -19.030100
N -4.045500 -30.905000 -16.410300
C -3.882900 -29.782700 -15.552200
C -3.575500 -27.605800 -13.893400
N -3.519300 -32.801800 -17.291300
H -3.472000 -26.873200 -13.329600
N -3.081300 -31.881800 -16.470300
C -2.716400 -29.050800 -15.597700
C -2.581200 -27.963200 -14.763600
H -2.032900 -29.287100 -16.182700
H -1.798300 -27.461600 -14.792400
H -10.264700 -22.727000 -16.092600
H -9.941900 -24.577900 -14.760600
C -9.490900 -22.795300 -15.581000
C -9.304200 -23.901600 -14.792300
H -8.695800 -21.032100 -16.183900
C -8.542700 -21.766300 -15.633700
C -8.136900 -23.984700 -14.043200
H -7.831800 -26.816700 -11.877500
N -7.703800 -24.977000 -13.186300
C -7.391500 -21.822600 -14.888200
H -7.261200 -28.171600 -11.350100
N -7.232300 -27.230100 -11.376500
C -7.215000 -22.944000 -14.092400
H -6.759600 -21.140600 -14.914900
H -6.699000 -27.765800 -8.664600
C -6.560300 -24.532900 -12.728400
H -6.445700 -29.590700 -7.294800
N -6.209700 -23.320200 -13.225800
C -6.122600 -26.480800 -11.211100
C -5.916200 -28.266400 -8.695400
C -5.767800 -25.273200 -11.774400
C -5.759600 -29.353600 -7.876800
H -5.499800 -22.873300 -13.037400
N -5.075300 -26.800000 -10.417700
C -4.912700 -27.922300 -9.559500
C -4.605200 -30.099200 -7.900700
N -4.549000 -24.903200 -11.298600
H -4.501700 -30.831800 -7.337000
N -4.111100 -25.823200 -10.477600
C -3.746200 -28.654200 -9.605100
C -3.610900 -29.741800 -8.770900
H -3.062600 -28.417900 -10.190100
H -2.828000 -30.243400 -8.799800
