17
Fragment
O -6.755600 -23.927400 -25.725400
N -6.079600 -22.915000 -25.656700
H -5.925500 -24.329100 -23.417500
O -5.827600 -22.206600 -26.597400
C -5.592300 -23.448400 -23.291500
C -5.592200 -22.514500 -24.329500
H -5.159200 -20.583400 -24.897900
C -5.145700 -21.199300 -24.174900
C -5.089700 -23.039100 -22.083100
H -5.043300 -23.667600 -21.371500
C -4.682200 -20.828000 -22.920700
C -4.644500 -21.739100 -21.856900
O -4.256200 -20.299600 -19.954100
Cl -4.159000 -19.182200 -22.761700
C -4.129200 -21.388100 -20.476700
O -3.566500 -22.432200 -19.922600
H -3.355300 -22.249700 -19.130900
15
Fragment
H -9.651100 -20.071500 -32.027900
H -9.577900 -19.602700 -30.725100
N -9.501300 -20.179200 -31.303500
C -8.916300 -21.323400 -30.928400
N -8.712600 -22.253500 -31.876200
H -8.693200 -20.897700 -28.913900
C -8.528700 -21.555300 -29.579700
C -8.095600 -23.397700 -31.566900
C -7.921500 -22.723600 -29.253200
H -7.920200 -24.033800 -32.249900
C -7.707300 -23.670200 -30.261200
H -7.647700 -22.896000 -28.359800
N -7.036200 -24.920800 -29.973400
O -6.835200 -25.200900 -28.797900
O -6.714800 -25.648200 -30.911200
32
Fragment
O -6.755600 -23.927400 -25.725400
N -6.079600 -22.915000 -25.656700
H -5.925500 -24.329100 -23.417500
O -5.827600 -22.206600 -26.597400
C -5.592300 -23.448400 -23.291500
C -5.592200 -22.514500 -24.329500
H -5.159200 -20.583400 -24.897900
C -5.145700 -21.199300 -24.174900
C -5.089700 -23.039100 -22.083100
H -5.043300 -23.667600 -21.371500
C -4.682200 -20.828000 -22.920700
C -4.644500 -21.739100 -21.856900
O -4.256200 -20.299600 -19.954100
Cl -4.159000 -19.182200 -22.761700
C -4.129200 -21.388100 -20.476700
O -3.566500 -22.432200 -19.922600
H -3.355300 -22.249700 -19.130900
H -9.651100 -20.071500 -32.027900
H -9.577900 -19.602700 -30.725100
N -9.501300 -20.179200 -31.303500
C -8.916300 -21.323400 -30.928400
N -8.712600 -22.253500 -31.876200
H -8.693200 -20.897700 -28.913900
C -8.528700 -21.555300 -29.579700
C -8.095600 -23.397700 -31.566900
C -7.921500 -22.723600 -29.253200
H -7.920200 -24.033800 -32.249900
C -7.707300 -23.670200 -30.261200
H -7.647700 -22.896000 -28.359800
N -7.036200 -24.920800 -29.973400
O -6.835200 -25.200900 -28.797900
O -6.714800 -25.648200 -30.911200
