17
Fragment
O -6.755600 -23.927400 -25.725400
N -6.079600 -22.915000 -25.656700
H -5.925500 -24.329100 -23.417500
O -5.827600 -22.206600 -26.597400
C -5.592300 -23.448400 -23.291500
C -5.592200 -22.514500 -24.329500
H -5.159200 -20.583400 -24.897900
C -5.145700 -21.199300 -24.174900
C -5.089700 -23.039100 -22.083100
H -5.043300 -23.667600 -21.371500
C -4.682200 -20.828000 -22.920700
C -4.644500 -21.739100 -21.856900
O -4.256200 -20.299600 -19.954100
Cl -4.159000 -19.182200 -22.761700
C -4.129200 -21.388100 -20.476700
O -3.566500 -22.432200 -19.922600
H -3.355300 -22.249700 -19.130900
15
Fragment
O -10.712900 -31.983900 -26.358300
O -10.592500 -31.536600 -28.471500
N -10.391500 -31.256500 -27.296000
H -9.780000 -29.231700 -28.909600
C -9.720400 -30.005900 -27.008300
H -9.507400 -30.369500 -25.019600
C -9.506200 -29.059300 -28.016200
C -9.332000 -29.733400 -25.702500
C -8.899000 -27.891000 -27.689800
H -8.734500 -27.233400 -28.355500
N -8.715100 -28.589200 -25.393300
C -8.511400 -27.659100 -26.341100
N -7.926400 -26.514900 -25.966000
H -7.849800 -25.938400 -26.544400
H -7.776500 -26.407200 -25.241500
32
Fragment
O -6.755600 -23.927400 -25.725400
N -6.079600 -22.915000 -25.656700
H -5.925500 -24.329100 -23.417500
O -5.827600 -22.206600 -26.597400
C -5.592300 -23.448400 -23.291500
C -5.592200 -22.514500 -24.329500
H -5.159200 -20.583400 -24.897900
C -5.145700 -21.199300 -24.174900
C -5.089700 -23.039100 -22.083100
H -5.043300 -23.667600 -21.371500
C -4.682200 -20.828000 -22.920700
C -4.644500 -21.739100 -21.856900
O -4.256200 -20.299600 -19.954100
Cl -4.159000 -19.182200 -22.761700
C -4.129200 -21.388100 -20.476700
O -3.566500 -22.432200 -19.922600
H -3.355300 -22.249700 -19.130900
O -10.712900 -31.983900 -26.358300
O -10.592500 -31.536600 -28.471500
N -10.391500 -31.256500 -27.296000
H -9.780000 -29.231700 -28.909600
C -9.720400 -30.005900 -27.008300
H -9.507400 -30.369500 -25.019600
C -9.506200 -29.059300 -28.016200
C -9.332000 -29.733400 -25.702500
C -8.899000 -27.891000 -27.689800
H -8.734500 -27.233400 -28.355500
N -8.715100 -28.589200 -25.393300
C -8.511400 -27.659100 -26.341100
N -7.926400 -26.514900 -25.966000
H -7.849800 -25.938400 -26.544400
H -7.776500 -26.407200 -25.241500
