17
Fragment
O -6.755600 -23.927400 -25.725400
N -6.079600 -22.915000 -25.656700
H -5.925500 -24.329100 -23.417500
O -5.827600 -22.206600 -26.597400
C -5.592300 -23.448400 -23.291500
C -5.592200 -22.514500 -24.329500
H -5.159200 -20.583400 -24.897900
C -5.145700 -21.199300 -24.174900
C -5.089700 -23.039100 -22.083100
H -5.043300 -23.667600 -21.371500
C -4.682200 -20.828000 -22.920700
C -4.644500 -21.739100 -21.856900
O -4.256200 -20.299600 -19.954100
Cl -4.159000 -19.182200 -22.761700
C -4.129200 -21.388100 -20.476700
O -3.566500 -22.432200 -19.922600
H -3.355300 -22.249700 -19.130900
15
Fragment
H -3.425700 -20.071500 -17.710600
H -3.352500 -19.602700 -16.407700
N -3.275900 -20.179200 -16.986100
C -2.690900 -21.323400 -16.611000
N -2.487100 -22.253500 -17.558800
H -2.467800 -20.897700 -14.596500
C -2.303200 -21.555300 -15.262300
C -1.870200 -23.397700 -17.249600
C -1.696100 -22.723600 -14.935900
H -1.694800 -24.033800 -17.932500
C -1.481800 -23.670200 -15.943800
H -1.422300 -22.896000 -14.042500
N -0.810700 -24.920800 -15.656000
O -0.609800 -25.200900 -14.480600
O -0.489400 -25.648200 -16.593800
32
Fragment
O -6.755600 -23.927400 -25.725400
N -6.079600 -22.915000 -25.656700
H -5.925500 -24.329100 -23.417500
O -5.827600 -22.206600 -26.597400
C -5.592300 -23.448400 -23.291500
C -5.592200 -22.514500 -24.329500
H -5.159200 -20.583400 -24.897900
C -5.145700 -21.199300 -24.174900
C -5.089700 -23.039100 -22.083100
H -5.043300 -23.667600 -21.371500
C -4.682200 -20.828000 -22.920700
C -4.644500 -21.739100 -21.856900
O -4.256200 -20.299600 -19.954100
Cl -4.159000 -19.182200 -22.761700
C -4.129200 -21.388100 -20.476700
O -3.566500 -22.432200 -19.922600
H -3.355300 -22.249700 -19.130900
H -3.425700 -20.071500 -17.710600
H -3.352500 -19.602700 -16.407700
N -3.275900 -20.179200 -16.986100
C -2.690900 -21.323400 -16.611000
N -2.487100 -22.253500 -17.558800
H -2.467800 -20.897700 -14.596500
C -2.303200 -21.555300 -15.262300
C -1.870200 -23.397700 -17.249600
C -1.696100 -22.723600 -14.935900
H -1.694800 -24.033800 -17.932500
C -1.481800 -23.670200 -15.943800
H -1.422300 -22.896000 -14.042500
N -0.810700 -24.920800 -15.656000
O -0.609800 -25.200900 -14.480600
O -0.489400 -25.648200 -16.593800
