17
Fragment
O -6.755600 -23.927400 -25.725400
N -6.079600 -22.915000 -25.656700
H -5.925500 -24.329100 -23.417500
O -5.827600 -22.206600 -26.597400
C -5.592300 -23.448400 -23.291500
C -5.592200 -22.514500 -24.329500
H -5.159200 -20.583400 -24.897900
C -5.145700 -21.199300 -24.174900
C -5.089700 -23.039100 -22.083100
H -5.043300 -23.667600 -21.371500
C -4.682200 -20.828000 -22.920700
C -4.644500 -21.739100 -21.856900
O -4.256200 -20.299600 -19.954100
Cl -4.159000 -19.182200 -22.761700
C -4.129200 -21.388100 -20.476700
O -3.566500 -22.432200 -19.922600
H -3.355300 -22.249700 -19.130900
17
Fragment
H -7.847000 -15.914000 -23.821200
O -7.635700 -16.096500 -23.029500
C -7.073100 -15.052400 -22.475400
Cl -7.043300 -12.846500 -20.190300
O -6.946000 -13.963900 -22.998000
C -6.557800 -15.403400 -21.095200
C -6.520100 -14.492300 -20.031400
H -6.158900 -17.331900 -21.580600
C -6.112600 -16.703400 -20.869000
C -6.056600 -14.863600 -18.777200
H -6.043000 -14.247700 -18.054200
C -5.610100 -16.178800 -18.622600
C -5.610000 -17.112700 -19.660600
O -5.374700 -15.870900 -16.354700
H -5.276800 -17.993400 -19.534600
N -5.122700 -16.579300 -17.295400
O -4.446600 -17.591700 -17.226600
34
Fragment
O -6.755600 -23.927400 -25.725400
N -6.079600 -22.915000 -25.656700
H -5.925500 -24.329100 -23.417500
O -5.827600 -22.206600 -26.597400
C -5.592300 -23.448400 -23.291500
C -5.592200 -22.514500 -24.329500
H -5.159200 -20.583400 -24.897900
C -5.145700 -21.199300 -24.174900
C -5.089700 -23.039100 -22.083100
H -5.043300 -23.667600 -21.371500
C -4.682200 -20.828000 -22.920700
C -4.644500 -21.739100 -21.856900
O -4.256200 -20.299600 -19.954100
Cl -4.159000 -19.182200 -22.761700
C -4.129200 -21.388100 -20.476700
O -3.566500 -22.432200 -19.922600
H -3.355300 -22.249700 -19.130900
H -7.847000 -15.914000 -23.821200
O -7.635700 -16.096500 -23.029500
C -7.073100 -15.052400 -22.475400
Cl -7.043300 -12.846500 -20.190300
O -6.946000 -13.963900 -22.998000
C -6.557800 -15.403400 -21.095200
C -6.520100 -14.492300 -20.031400
H -6.158900 -17.331900 -21.580600
C -6.112600 -16.703400 -20.869000
C -6.056600 -14.863600 -18.777200
H -6.043000 -14.247700 -18.054200
C -5.610100 -16.178800 -18.622600
C -5.610000 -17.112700 -19.660600
O -5.374700 -15.870900 -16.354700
H -5.276800 -17.993400 -19.534600
N -5.122700 -16.579300 -17.295400
O -4.446600 -17.591700 -17.226600
