17
Fragment
O -6.755600 -23.927400 -25.725400
N -6.079600 -22.915000 -25.656700
H -5.925500 -24.329100 -23.417500
O -5.827600 -22.206600 -26.597400
C -5.592300 -23.448400 -23.291500
C -5.592200 -22.514500 -24.329500
H -5.159200 -20.583400 -24.897900
C -5.145700 -21.199300 -24.174900
C -5.089700 -23.039100 -22.083100
H -5.043300 -23.667600 -21.371500
C -4.682200 -20.828000 -22.920700
C -4.644500 -21.739100 -21.856900
O -4.256200 -20.299600 -19.954100
Cl -4.159000 -19.182200 -22.761700
C -4.129200 -21.388100 -20.476700
O -3.566500 -22.432200 -19.922600
H -3.355300 -22.249700 -19.130900
17
Fragment
H -4.110000 -28.585400 -23.821200
O -3.898700 -28.767900 -23.029500
C -3.336100 -27.723800 -22.475400
Cl -3.306300 -25.517900 -20.190300
O -3.209000 -26.635300 -22.998000
C -2.820800 -28.074800 -21.095200
C -2.783100 -27.163700 -20.031400
H -2.421900 -30.003300 -21.580600
C -2.375600 -29.374800 -20.869000
C -2.319600 -27.535000 -18.777200
H -2.306000 -26.919100 -18.054200
C -1.873100 -28.850200 -18.622600
C -1.873000 -29.784100 -19.660600
O -1.637700 -28.542300 -16.354700
H -1.539800 -30.664800 -19.534600
N -1.385700 -29.250700 -17.295400
O -0.709600 -30.263100 -17.226600
34
Fragment
O -6.755600 -23.927400 -25.725400
N -6.079600 -22.915000 -25.656700
H -5.925500 -24.329100 -23.417500
O -5.827600 -22.206600 -26.597400
C -5.592300 -23.448400 -23.291500
C -5.592200 -22.514500 -24.329500
H -5.159200 -20.583400 -24.897900
C -5.145700 -21.199300 -24.174900
C -5.089700 -23.039100 -22.083100
H -5.043300 -23.667600 -21.371500
C -4.682200 -20.828000 -22.920700
C -4.644500 -21.739100 -21.856900
O -4.256200 -20.299600 -19.954100
Cl -4.159000 -19.182200 -22.761700
C -4.129200 -21.388100 -20.476700
O -3.566500 -22.432200 -19.922600
H -3.355300 -22.249700 -19.130900
H -4.110000 -28.585400 -23.821200
O -3.898700 -28.767900 -23.029500
C -3.336100 -27.723800 -22.475400
Cl -3.306300 -25.517900 -20.190300
O -3.209000 -26.635300 -22.998000
C -2.820800 -28.074800 -21.095200
C -2.783100 -27.163700 -20.031400
H -2.421900 -30.003300 -21.580600
C -2.375600 -29.374800 -20.869000
C -2.319600 -27.535000 -18.777200
H -2.306000 -26.919100 -18.054200
C -1.873100 -28.850200 -18.622600
C -1.873000 -29.784100 -19.660600
O -1.637700 -28.542300 -16.354700
H -1.539800 -30.664800 -19.534600
N -1.385700 -29.250700 -17.295400
O -0.709600 -30.263100 -17.226600
