3
Fragment
H -11.595400 -16.879200 -18.619200
O -11.197900 -17.826900 -18.565200
H -11.116800 -18.071100 -19.520700
30
Fragment
H -15.259400 -19.659900 -17.363700
H -15.219900 -22.040100 -15.532700
H -14.934200 -21.796200 -17.729100
H -14.371300 -18.719400 -15.559300
C -14.341500 -19.917800 -17.252200
C -14.320200 -21.804400 -15.770700
C -14.220600 -21.396100 -17.227000
N -13.889200 -20.607200 -15.073600
C -13.820900 -19.423700 -15.909600
H -13.817000 -19.552200 -17.968300
H -13.735400 -22.541500 -15.580100
N -13.591000 -21.598800 -12.930000
C -13.560900 -20.616600 -13.786400
H -13.377400 -21.667800 -17.596800
O -13.111100 -19.454800 -13.248700
N -13.087300 -21.048500 -11.736100
H -12.915500 -19.114100 -15.986700
C -12.834200 -19.814900 -11.952900
H -12.405700 -21.048400 -9.797600
H -12.369800 -17.263700 -12.412900
C -12.325000 -18.790300 -11.068200
C -12.164700 -17.490500 -11.502900
N -12.079600 -20.339300 -9.220500
C -11.992700 -19.093800 -9.711000
H -11.767400 -20.557600 -8.339800
C -11.695700 -16.513400 -10.636500
H -11.576000 -15.607400 -10.930600
N -11.559000 -18.132800 -8.880500
C -11.424800 -16.886200 -9.341600
H -11.117300 -16.210400 -8.733100
33
Fragment
H -11.595400 -16.879200 -18.619200
O -11.197900 -17.826900 -18.565200
H -11.116800 -18.071100 -19.520700
H -15.259400 -19.659900 -17.363700
H -15.219900 -22.040100 -15.532700
H -14.934200 -21.796200 -17.729100
H -14.371300 -18.719400 -15.559300
C -14.341500 -19.917800 -17.252200
C -14.320200 -21.804400 -15.770700
C -14.220600 -21.396100 -17.227000
N -13.889200 -20.607200 -15.073600
C -13.820900 -19.423700 -15.909600
H -13.817000 -19.552200 -17.968300
H -13.735400 -22.541500 -15.580100
N -13.591000 -21.598800 -12.930000
C -13.560900 -20.616600 -13.786400
H -13.377400 -21.667800 -17.596800
O -13.111100 -19.454800 -13.248700
N -13.087300 -21.048500 -11.736100
H -12.915500 -19.114100 -15.986700
C -12.834200 -19.814900 -11.952900
H -12.405700 -21.048400 -9.797600
H -12.369800 -17.263700 -12.412900
C -12.325000 -18.790300 -11.068200
C -12.164700 -17.490500 -11.502900
N -12.079600 -20.339300 -9.220500
C -11.992700 -19.093800 -9.711000
H -11.767400 -20.557600 -8.339800
C -11.695700 -16.513400 -10.636500
H -11.576000 -15.607400 -10.930600
N -11.559000 -18.132800 -8.880500
C -11.424800 -16.886200 -9.341600
H -11.117300 -16.210400 -8.733100
