32
Fragment
H -10.672700 -25.064000 -33.372800
H -10.461600 -26.012500 -31.233100
C -10.044400 -24.702500 -32.758600
C -9.915600 -25.276100 -31.481400
H -9.378500 -23.275600 -33.998700
C -9.284100 -23.639700 -33.126500
C -9.001300 -24.770000 -30.595400
H -8.907200 -25.167200 -29.737300
O -8.782300 -20.908700 -34.273200
C -8.347300 -23.064700 -32.222100
C -8.202200 -23.670600 -30.944500
C -7.669300 -21.187900 -33.784000
C -7.532300 -21.935800 -32.496500
H -7.325500 -19.330700 -35.459300
N -7.301300 -23.212900 -29.998300
O -7.106300 -20.000000 -28.561100
H -6.696300 -20.596000 -36.233700
C -6.650300 -21.507000 -31.545000
C -6.554500 -22.184600 -30.304600
N -6.545900 -20.784200 -34.355000
N -6.531200 -19.987300 -35.526400
H -6.098900 -20.753200 -31.716200
C -5.942600 -20.406200 -28.621900
H -5.762400 -18.023300 -27.832800
H -5.726000 -20.933400 -33.968500
C -5.553500 -21.708000 -29.272800
H -5.459600 -22.401100 -28.572400
H -5.380500 -18.613700 -26.644800
N -5.076600 -18.474500 -27.445000
N -4.925300 -19.736200 -28.081800
H -4.671100 -21.597700 -29.708300
H -4.111500 -19.949300 -28.239000
32
Fragment
H -3.991300 -22.226800 -26.171400
H -3.431700 -20.578400 -24.702200
N -3.177400 -22.439900 -26.328700
N -3.026200 -23.701600 -26.965500
H -2.722300 -23.562400 -27.765700
H -2.643100 -19.775000 -25.838100
C -2.549300 -20.468100 -25.137600
H -2.376700 -21.242700 -20.442000
H -2.340300 -24.152800 -26.577700
C -2.160100 -21.769900 -25.788600
H -2.003800 -21.422900 -22.694200
N -1.571600 -22.188800 -18.884100
N -1.556900 -21.391900 -20.055500
C -1.548300 -19.991500 -24.105800
C -1.452400 -20.669100 -22.865500
H -1.406500 -21.580100 -18.176700
O -0.996500 -22.176100 -25.849300
N -0.801500 -18.963200 -24.412200
H -0.777200 -22.845400 -18.951200
C -0.570400 -20.240300 -21.914000
C -0.433500 -20.988200 -20.626500
C 0.099500 -18.505500 -23.466000
C 0.244600 -19.111400 -22.188400
O 0.679500 -21.267400 -20.137300
H 0.804400 -17.008900 -24.673200
C 0.898500 -17.406100 -23.815100
C 1.181300 -18.536400 -21.283900
H 1.275700 -18.900500 -20.411700
C 1.812800 -16.900000 -22.929100
C 1.941700 -17.473600 -21.651900
H 2.358800 -16.163600 -23.177400
H 2.569900 -17.112100 -21.037600
64
Fragment
H -10.672700 -25.064000 -33.372800
H -10.461600 -26.012500 -31.233100
C -10.044400 -24.702500 -32.758600
C -9.915600 -25.276100 -31.481400
H -9.378500 -23.275600 -33.998700
C -9.284100 -23.639700 -33.126500
C -9.001300 -24.770000 -30.595400
H -8.907200 -25.167200 -29.737300
O -8.782300 -20.908700 -34.273200
C -8.347300 -23.064700 -32.222100
C -8.202200 -23.670600 -30.944500
C -7.669300 -21.187900 -33.784000
C -7.532300 -21.935800 -32.496500
H -7.325500 -19.330700 -35.459300
N -7.301300 -23.212900 -29.998300
O -7.106300 -20.000000 -28.561100
H -6.696300 -20.596000 -36.233700
C -6.650300 -21.507000 -31.545000
C -6.554500 -22.184600 -30.304600
N -6.545900 -20.784200 -34.355000
N -6.531200 -19.987300 -35.526400
H -6.098900 -20.753200 -31.716200
C -5.942600 -20.406200 -28.621900
H -5.762400 -18.023300 -27.832800
H -5.726000 -20.933400 -33.968500
C -5.553500 -21.708000 -29.272800
H -5.459600 -22.401100 -28.572400
H -5.380500 -18.613700 -26.644800
N -5.076600 -18.474500 -27.445000
N -4.925300 -19.736200 -28.081800
H -4.671100 -21.597700 -29.708300
H -4.111500 -19.949300 -28.239000
H -3.991300 -22.226800 -26.171400
H -3.431700 -20.578400 -24.702200
N -3.177400 -22.439900 -26.328700
N -3.026200 -23.701600 -26.965500
H -2.722300 -23.562400 -27.765700
H -2.643100 -19.775000 -25.838100
C -2.549300 -20.468100 -25.137600
H -2.376700 -21.242700 -20.442000
H -2.340300 -24.152800 -26.577700
C -2.160100 -21.769900 -25.788600
H -2.003800 -21.422900 -22.694200
N -1.571600 -22.188800 -18.884100
N -1.556900 -21.391900 -20.055500
C -1.548300 -19.991500 -24.105800
C -1.452400 -20.669100 -22.865500
H -1.406500 -21.580100 -18.176700
O -0.996500 -22.176100 -25.849300
N -0.801500 -18.963200 -24.412200
H -0.777200 -22.845400 -18.951200
C -0.570400 -20.240300 -21.914000
C -0.433500 -20.988200 -20.626500
C 0.099500 -18.505500 -23.466000
C 0.244600 -19.111400 -22.188400
O 0.679500 -21.267400 -20.137300
H 0.804400 -17.008900 -24.673200
C 0.898500 -17.406100 -23.815100
C 1.181300 -18.536400 -21.283900
H 1.275700 -18.900500 -20.411700
C 1.812800 -16.900000 -22.929100
C 1.941700 -17.473600 -21.651900
H 2.358800 -16.163600 -23.177400
H 2.569900 -17.112100 -21.037600
