32
Fragment
H -10.672700 -25.064000 -33.372800
H -10.461600 -26.012500 -31.233100
C -10.044400 -24.702500 -32.758600
C -9.915600 -25.276100 -31.481400
H -9.378500 -23.275600 -33.998700
C -9.284100 -23.639700 -33.126500
C -9.001300 -24.770000 -30.595400
H -8.907200 -25.167200 -29.737300
O -8.782300 -20.908700 -34.273200
C -8.347300 -23.064700 -32.222100
C -8.202200 -23.670600 -30.944500
C -7.669300 -21.187900 -33.784000
C -7.532300 -21.935800 -32.496500
H -7.325500 -19.330700 -35.459300
N -7.301300 -23.212900 -29.998300
O -7.106300 -20.000000 -28.561100
H -6.696300 -20.596000 -36.233700
C -6.650300 -21.507000 -31.545000
C -6.554500 -22.184600 -30.304600
N -6.545900 -20.784200 -34.355000
N -6.531200 -19.987300 -35.526400
H -6.098900 -20.753200 -31.716200
C -5.942600 -20.406200 -28.621900
H -5.762400 -18.023300 -27.832800
H -5.726000 -20.933400 -33.968500
C -5.553500 -21.708000 -29.272800
H -5.459600 -22.401100 -28.572400
H -5.380500 -18.613700 -26.644800
N -5.076600 -18.474500 -27.445000
N -4.925300 -19.736200 -28.081800
H -4.671100 -21.597700 -29.708300
H -4.111500 -19.949300 -28.239000
32
Fragment
H -6.692200 -22.226800 -44.308300
H -6.132600 -20.578400 -42.839000
N -5.878300 -22.439900 -44.465500
N -5.727100 -23.701600 -45.102300
H -5.423200 -23.562400 -45.902500
H -5.344100 -19.775000 -43.974900
C -5.250200 -20.468100 -43.274500
H -5.077600 -21.242700 -38.578800
H -5.041300 -24.152800 -44.714500
C -4.861100 -21.769900 -43.925400
H -4.704700 -21.422900 -40.831100
N -4.272500 -22.188800 -37.020900
N -4.257800 -21.391900 -38.192300
C -4.249200 -19.991500 -42.242700
C -4.153400 -20.669100 -41.002300
H -4.107400 -21.580100 -36.313600
O -3.697400 -22.176100 -43.986200
N -3.502400 -18.963200 -42.549000
H -3.478200 -22.845400 -37.088000
C -3.271400 -20.240300 -40.050800
C -3.134400 -20.988200 -38.763300
C -2.601400 -18.505500 -41.602800
C -2.456400 -19.111400 -40.325200
O -2.021400 -21.267400 -38.274100
H -1.896500 -17.008900 -42.810000
C -1.802400 -17.406100 -41.951900
C -1.519600 -18.536400 -39.420800
H -1.425200 -18.900500 -38.548600
C -0.888100 -16.900000 -41.065900
C -0.759300 -17.473600 -39.788700
H -0.342100 -16.163600 -41.314200
H -0.131000 -17.112100 -39.174500
64
Fragment
H -10.672700 -25.064000 -33.372800
H -10.461600 -26.012500 -31.233100
C -10.044400 -24.702500 -32.758600
C -9.915600 -25.276100 -31.481400
H -9.378500 -23.275600 -33.998700
C -9.284100 -23.639700 -33.126500
C -9.001300 -24.770000 -30.595400
H -8.907200 -25.167200 -29.737300
O -8.782300 -20.908700 -34.273200
C -8.347300 -23.064700 -32.222100
C -8.202200 -23.670600 -30.944500
C -7.669300 -21.187900 -33.784000
C -7.532300 -21.935800 -32.496500
H -7.325500 -19.330700 -35.459300
N -7.301300 -23.212900 -29.998300
O -7.106300 -20.000000 -28.561100
H -6.696300 -20.596000 -36.233700
C -6.650300 -21.507000 -31.545000
C -6.554500 -22.184600 -30.304600
N -6.545900 -20.784200 -34.355000
N -6.531200 -19.987300 -35.526400
H -6.098900 -20.753200 -31.716200
C -5.942600 -20.406200 -28.621900
H -5.762400 -18.023300 -27.832800
H -5.726000 -20.933400 -33.968500
C -5.553500 -21.708000 -29.272800
H -5.459600 -22.401100 -28.572400
H -5.380500 -18.613700 -26.644800
N -5.076600 -18.474500 -27.445000
N -4.925300 -19.736200 -28.081800
H -4.671100 -21.597700 -29.708300
H -4.111500 -19.949300 -28.239000
H -6.692200 -22.226800 -44.308300
H -6.132600 -20.578400 -42.839000
N -5.878300 -22.439900 -44.465500
N -5.727100 -23.701600 -45.102300
H -5.423200 -23.562400 -45.902500
H -5.344100 -19.775000 -43.974900
C -5.250200 -20.468100 -43.274500
H -5.077600 -21.242700 -38.578800
H -5.041300 -24.152800 -44.714500
C -4.861100 -21.769900 -43.925400
H -4.704700 -21.422900 -40.831100
N -4.272500 -22.188800 -37.020900
N -4.257800 -21.391900 -38.192300
C -4.249200 -19.991500 -42.242700
C -4.153400 -20.669100 -41.002300
H -4.107400 -21.580100 -36.313600
O -3.697400 -22.176100 -43.986200
N -3.502400 -18.963200 -42.549000
H -3.478200 -22.845400 -37.088000
C -3.271400 -20.240300 -40.050800
C -3.134400 -20.988200 -38.763300
C -2.601400 -18.505500 -41.602800
C -2.456400 -19.111400 -40.325200
O -2.021400 -21.267400 -38.274100
H -1.896500 -17.008900 -42.810000
C -1.802400 -17.406100 -41.951900
C -1.519600 -18.536400 -39.420800
H -1.425200 -18.900500 -38.548600
C -0.888100 -16.900000 -41.065900
C -0.759300 -17.473600 -39.788700
H -0.342100 -16.163600 -41.314200
H -0.131000 -17.112100 -39.174500
