32
Fragment
H -10.672700 -25.064000 -33.372800
H -10.461600 -26.012500 -31.233100
C -10.044400 -24.702500 -32.758600
C -9.915600 -25.276100 -31.481400
H -9.378500 -23.275600 -33.998700
C -9.284100 -23.639700 -33.126500
C -9.001300 -24.770000 -30.595400
H -8.907200 -25.167200 -29.737300
O -8.782300 -20.908700 -34.273200
C -8.347300 -23.064700 -32.222100
C -8.202200 -23.670600 -30.944500
C -7.669300 -21.187900 -33.784000
C -7.532300 -21.935800 -32.496500
H -7.325500 -19.330700 -35.459300
N -7.301300 -23.212900 -29.998300
O -7.106300 -20.000000 -28.561100
H -6.696300 -20.596000 -36.233700
C -6.650300 -21.507000 -31.545000
C -6.554500 -22.184600 -30.304600
N -6.545900 -20.784200 -34.355000
N -6.531200 -19.987300 -35.526400
H -6.098900 -20.753200 -31.716200
C -5.942600 -20.406200 -28.621900
H -5.762400 -18.023300 -27.832800
H -5.726000 -20.933400 -33.968500
C -5.553500 -21.708000 -29.272800
H -5.459600 -22.401100 -28.572400
H -5.380500 -18.613700 -26.644800
N -5.076600 -18.474500 -27.445000
N -4.925300 -19.736200 -28.081800
H -4.671100 -21.597700 -29.708300
H -4.111500 -19.949300 -28.239000
32
Fragment
H -15.223200 -26.978600 -35.239900
H -14.663600 -28.627000 -33.770600
N -14.409300 -26.765500 -35.397100
N -14.258000 -25.503900 -36.033900
H -13.954200 -25.643100 -36.834100
H -13.875000 -29.430500 -34.906500
C -13.781200 -28.737400 -34.206100
H -13.608600 -27.962800 -29.510400
H -13.572200 -25.052600 -35.646100
C -13.392000 -27.435600 -34.857000
H -13.235700 -27.782500 -31.762700
N -12.803500 -27.016600 -27.952500
N -12.788700 -27.813600 -29.123900
C -12.780100 -29.214000 -33.174200
C -12.684300 -28.536300 -31.933900
H -12.638300 -27.625300 -27.245100
O -12.228400 -27.029400 -34.917700
N -12.033300 -30.242200 -33.480600
H -12.009100 -26.360100 -28.019600
C -11.802300 -28.965100 -30.982400
C -11.665400 -28.217200 -29.694900
C -11.132400 -30.700000 -32.534400
C -10.987300 -30.094100 -31.256800
O -10.552300 -27.938000 -29.205700
H -10.427500 -32.196500 -33.741600
C -10.333300 -31.799400 -32.883500
C -10.050600 -30.669100 -30.352300
H -9.956200 -30.304900 -29.480100
C -9.419000 -32.305500 -31.997500
C -9.290200 -31.731900 -30.720300
H -8.873000 -33.041900 -32.245800
H -8.662000 -32.093300 -30.106000
64
Fragment
H -10.672700 -25.064000 -33.372800
H -10.461600 -26.012500 -31.233100
C -10.044400 -24.702500 -32.758600
C -9.915600 -25.276100 -31.481400
H -9.378500 -23.275600 -33.998700
C -9.284100 -23.639700 -33.126500
C -9.001300 -24.770000 -30.595400
H -8.907200 -25.167200 -29.737300
O -8.782300 -20.908700 -34.273200
C -8.347300 -23.064700 -32.222100
C -8.202200 -23.670600 -30.944500
C -7.669300 -21.187900 -33.784000
C -7.532300 -21.935800 -32.496500
H -7.325500 -19.330700 -35.459300
N -7.301300 -23.212900 -29.998300
O -7.106300 -20.000000 -28.561100
H -6.696300 -20.596000 -36.233700
C -6.650300 -21.507000 -31.545000
C -6.554500 -22.184600 -30.304600
N -6.545900 -20.784200 -34.355000
N -6.531200 -19.987300 -35.526400
H -6.098900 -20.753200 -31.716200
C -5.942600 -20.406200 -28.621900
H -5.762400 -18.023300 -27.832800
H -5.726000 -20.933400 -33.968500
C -5.553500 -21.708000 -29.272800
H -5.459600 -22.401100 -28.572400
H -5.380500 -18.613700 -26.644800
N -5.076600 -18.474500 -27.445000
N -4.925300 -19.736200 -28.081800
H -4.671100 -21.597700 -29.708300
H -4.111500 -19.949300 -28.239000
H -15.223200 -26.978600 -35.239900
H -14.663600 -28.627000 -33.770600
N -14.409300 -26.765500 -35.397100
N -14.258000 -25.503900 -36.033900
H -13.954200 -25.643100 -36.834100
H -13.875000 -29.430500 -34.906500
C -13.781200 -28.737400 -34.206100
H -13.608600 -27.962800 -29.510400
H -13.572200 -25.052600 -35.646100
C -13.392000 -27.435600 -34.857000
H -13.235700 -27.782500 -31.762700
N -12.803500 -27.016600 -27.952500
N -12.788700 -27.813600 -29.123900
C -12.780100 -29.214000 -33.174200
C -12.684300 -28.536300 -31.933900
H -12.638300 -27.625300 -27.245100
O -12.228400 -27.029400 -34.917700
N -12.033300 -30.242200 -33.480600
H -12.009100 -26.360100 -28.019600
C -11.802300 -28.965100 -30.982400
C -11.665400 -28.217200 -29.694900
C -11.132400 -30.700000 -32.534400
C -10.987300 -30.094100 -31.256800
O -10.552300 -27.938000 -29.205700
H -10.427500 -32.196500 -33.741600
C -10.333300 -31.799400 -32.883500
C -10.050600 -30.669100 -30.352300
H -9.956200 -30.304900 -29.480100
C -9.419000 -32.305500 -31.997500
C -9.290200 -31.731900 -30.720300
H -8.873000 -33.041900 -32.245800
H -8.662000 -32.093300 -30.106000
