3
Fragment
H -11.595400 -16.879200 -18.619200
O -11.197900 -17.826900 -18.565200
H -11.116800 -18.071100 -19.520700
30
Fragment
H -14.715500 -9.718400 -22.794800
C -14.408000 -10.394200 -22.186400
N -14.273800 -11.640800 -22.647400
H -14.256900 -9.115400 -20.597300
C -14.137200 -10.021400 -20.891400
H -14.065400 -14.065600 -23.188200
C -13.840100 -12.601800 -21.817000
N -13.753200 -13.847300 -22.307400
C -13.668100 -10.998500 -20.025100
C -13.507800 -12.298300 -20.459800
H -13.463000 -10.771700 -19.115000
H -13.427200 -14.556400 -21.730300
C -12.998600 -13.322900 -19.575100
H -12.917300 -12.622100 -15.541300
N -12.745500 -14.556500 -19.791900
O -12.721700 -12.962800 -18.279300
H -12.455400 -15.175800 -13.931200
C -12.271900 -14.124600 -17.741500
N -12.241800 -15.106800 -18.598000
H -12.097400 -16.049500 -15.947900
H -12.015800 -13.060200 -13.559700
C -12.011900 -12.931700 -15.618300
N -11.943600 -14.115200 -16.454300
C -11.612300 -14.904100 -14.301000
C -11.512600 -15.312400 -15.757300
C -11.491300 -13.425800 -14.275700
H -11.461600 -12.227400 -15.968700
H -10.898600 -15.304200 -13.798900
H -10.612900 -15.548100 -15.995300
H -10.573400 -13.167900 -14.164300
33
Fragment
H -11.595400 -16.879200 -18.619200
O -11.197900 -17.826900 -18.565200
H -11.116800 -18.071100 -19.520700
H -14.715500 -9.718400 -22.794800
C -14.408000 -10.394200 -22.186400
N -14.273800 -11.640800 -22.647400
H -14.256900 -9.115400 -20.597300
C -14.137200 -10.021400 -20.891400
H -14.065400 -14.065600 -23.188200
C -13.840100 -12.601800 -21.817000
N -13.753200 -13.847300 -22.307400
C -13.668100 -10.998500 -20.025100
C -13.507800 -12.298300 -20.459800
H -13.463000 -10.771700 -19.115000
H -13.427200 -14.556400 -21.730300
C -12.998600 -13.322900 -19.575100
H -12.917300 -12.622100 -15.541300
N -12.745500 -14.556500 -19.791900
O -12.721700 -12.962800 -18.279300
H -12.455400 -15.175800 -13.931200
C -12.271900 -14.124600 -17.741500
N -12.241800 -15.106800 -18.598000
H -12.097400 -16.049500 -15.947900
H -12.015800 -13.060200 -13.559700
C -12.011900 -12.931700 -15.618300
N -11.943600 -14.115200 -16.454300
C -11.612300 -14.904100 -14.301000
C -11.512600 -15.312400 -15.757300
C -11.491300 -13.425800 -14.275700
H -11.461600 -12.227400 -15.968700
H -10.898600 -15.304200 -13.798900
H -10.612900 -15.548100 -15.995300
H -10.573400 -13.167900 -14.164300
