32
Fragment
H -10.672700 -25.064000 -33.372800
H -10.461600 -26.012500 -31.233100
C -10.044400 -24.702500 -32.758600
C -9.915600 -25.276100 -31.481400
H -9.378500 -23.275600 -33.998700
C -9.284100 -23.639700 -33.126500
C -9.001300 -24.770000 -30.595400
H -8.907200 -25.167200 -29.737300
O -8.782300 -20.908700 -34.273200
C -8.347300 -23.064700 -32.222100
C -8.202200 -23.670600 -30.944500
C -7.669300 -21.187900 -33.784000
C -7.532300 -21.935800 -32.496500
H -7.325500 -19.330700 -35.459300
N -7.301300 -23.212900 -29.998300
O -7.106300 -20.000000 -28.561100
H -6.696300 -20.596000 -36.233700
C -6.650300 -21.507000 -31.545000
C -6.554500 -22.184600 -30.304600
N -6.545900 -20.784200 -34.355000
N -6.531200 -19.987300 -35.526400
H -6.098900 -20.753200 -31.716200
C -5.942600 -20.406200 -28.621900
H -5.762400 -18.023300 -27.832800
H -5.726000 -20.933400 -33.968500
C -5.553500 -21.708000 -29.272800
H -5.459600 -22.401100 -28.572400
H -5.380500 -18.613700 -26.644800
N -5.076600 -18.474500 -27.445000
N -4.925300 -19.736200 -28.081800
H -4.671100 -21.597700 -29.708300
H -4.111500 -19.949300 -28.239000
32
Fragment
H -9.322200 -10.082800 -24.304400
H -9.111200 -9.134200 -22.164700
C -8.694000 -10.444200 -23.690100
C -8.565100 -9.870600 -22.412900
H -8.028000 -11.871200 -24.930300
C -7.933600 -11.507000 -24.058100
C -7.650800 -10.376700 -21.527000
H -7.556700 -9.979600 -20.668900
O -7.431800 -14.238100 -25.204700
C -6.996900 -12.082000 -23.153700
C -6.851800 -11.476100 -21.876100
C -6.318800 -13.958900 -24.715600
C -6.181900 -13.211000 -23.428100
H -5.975100 -15.816000 -26.390900
N -5.950900 -11.933900 -20.929900
O -5.755800 -15.146700 -19.492700
H -5.345800 -14.550800 -27.165300
C -5.299900 -13.639800 -22.476600
C -5.204000 -12.962100 -21.236200
N -5.195400 -14.362500 -25.286500
N -5.180700 -15.159500 -26.458000
H -4.748500 -14.393600 -22.647800
C -4.592200 -14.740500 -19.553500
H -4.412000 -17.123500 -18.764400
H -4.375600 -14.213300 -24.900000
C -4.203000 -13.438700 -20.204400
H -4.109200 -12.745600 -19.504000
H -4.030000 -16.533000 -17.576400
N -3.726200 -16.672200 -18.376600
N -3.574900 -15.410600 -19.013400
H -3.320600 -13.549100 -20.639900
H -2.761000 -15.197500 -19.170600
64
Fragment
H -10.672700 -25.064000 -33.372800
H -10.461600 -26.012500 -31.233100
C -10.044400 -24.702500 -32.758600
C -9.915600 -25.276100 -31.481400
H -9.378500 -23.275600 -33.998700
C -9.284100 -23.639700 -33.126500
C -9.001300 -24.770000 -30.595400
H -8.907200 -25.167200 -29.737300
O -8.782300 -20.908700 -34.273200
C -8.347300 -23.064700 -32.222100
C -8.202200 -23.670600 -30.944500
C -7.669300 -21.187900 -33.784000
C -7.532300 -21.935800 -32.496500
H -7.325500 -19.330700 -35.459300
N -7.301300 -23.212900 -29.998300
O -7.106300 -20.000000 -28.561100
H -6.696300 -20.596000 -36.233700
C -6.650300 -21.507000 -31.545000
C -6.554500 -22.184600 -30.304600
N -6.545900 -20.784200 -34.355000
N -6.531200 -19.987300 -35.526400
H -6.098900 -20.753200 -31.716200
C -5.942600 -20.406200 -28.621900
H -5.762400 -18.023300 -27.832800
H -5.726000 -20.933400 -33.968500
C -5.553500 -21.708000 -29.272800
H -5.459600 -22.401100 -28.572400
H -5.380500 -18.613700 -26.644800
N -5.076600 -18.474500 -27.445000
N -4.925300 -19.736200 -28.081800
H -4.671100 -21.597700 -29.708300
H -4.111500 -19.949300 -28.239000
H -9.322200 -10.082800 -24.304400
H -9.111200 -9.134200 -22.164700
C -8.694000 -10.444200 -23.690100
C -8.565100 -9.870600 -22.412900
H -8.028000 -11.871200 -24.930300
C -7.933600 -11.507000 -24.058100
C -7.650800 -10.376700 -21.527000
H -7.556700 -9.979600 -20.668900
O -7.431800 -14.238100 -25.204700
C -6.996900 -12.082000 -23.153700
C -6.851800 -11.476100 -21.876100
C -6.318800 -13.958900 -24.715600
C -6.181900 -13.211000 -23.428100
H -5.975100 -15.816000 -26.390900
N -5.950900 -11.933900 -20.929900
O -5.755800 -15.146700 -19.492700
H -5.345800 -14.550800 -27.165300
C -5.299900 -13.639800 -22.476600
C -5.204000 -12.962100 -21.236200
N -5.195400 -14.362500 -25.286500
N -5.180700 -15.159500 -26.458000
H -4.748500 -14.393600 -22.647800
C -4.592200 -14.740500 -19.553500
H -4.412000 -17.123500 -18.764400
H -4.375600 -14.213300 -24.900000
C -4.203000 -13.438700 -20.204400
H -4.109200 -12.745600 -19.504000
H -4.030000 -16.533000 -17.576400
N -3.726200 -16.672200 -18.376600
N -3.574900 -15.410600 -19.013400
H -3.320600 -13.549100 -20.639900
H -2.761000 -15.197500 -19.170600
