32
Fragment
H -10.672700 -25.064000 -33.372800
H -10.461600 -26.012500 -31.233100
C -10.044400 -24.702500 -32.758600
C -9.915600 -25.276100 -31.481400
H -9.378500 -23.275600 -33.998700
C -9.284100 -23.639700 -33.126500
C -9.001300 -24.770000 -30.595400
H -8.907200 -25.167200 -29.737300
O -8.782300 -20.908700 -34.273200
C -8.347300 -23.064700 -32.222100
C -8.202200 -23.670600 -30.944500
C -7.669300 -21.187900 -33.784000
C -7.532300 -21.935800 -32.496500
H -7.325500 -19.330700 -35.459300
N -7.301300 -23.212900 -29.998300
O -7.106300 -20.000000 -28.561100
H -6.696300 -20.596000 -36.233700
C -6.650300 -21.507000 -31.545000
C -6.554500 -22.184600 -30.304600
N -6.545900 -20.784200 -34.355000
N -6.531200 -19.987300 -35.526400
H -6.098900 -20.753200 -31.716200
C -5.942600 -20.406200 -28.621900
H -5.762400 -18.023300 -27.832800
H -5.726000 -20.933400 -33.968500
C -5.553500 -21.708000 -29.272800
H -5.459600 -22.401100 -28.572400
H -5.380500 -18.613700 -26.644800
N -5.076600 -18.474500 -27.445000
N -4.925300 -19.736200 -28.081800
H -4.671100 -21.597700 -29.708300
H -4.111500 -19.949300 -28.239000
32
Fragment
H -10.282500 -12.919900 -35.239900
H -9.722900 -14.568300 -33.770600
N -9.468600 -12.706800 -35.397100
N -9.317300 -11.445200 -36.033900
H -9.013500 -11.584400 -36.834100
H -8.934300 -15.371800 -34.906500
C -8.840500 -14.678700 -34.206100
H -8.667900 -13.904100 -29.510400
H -8.631500 -10.993900 -35.646100
C -8.451300 -13.376900 -34.857000
H -8.295000 -13.723800 -31.762700
N -7.862800 -12.957900 -27.952500
N -7.848000 -13.754900 -29.123900
C -7.839400 -15.155300 -33.174200
C -7.743600 -14.477600 -31.933900
H -7.697600 -13.566600 -27.245100
O -7.287700 -12.970700 -34.917700
N -7.092600 -16.183500 -33.480600
H -7.068400 -12.301400 -28.019600
C -6.861600 -14.906400 -30.982400
C -6.724700 -14.158500 -29.694900
C -6.191700 -16.641300 -32.534400
C -6.046600 -16.035400 -31.256800
O -5.611600 -13.879300 -29.205700
H -5.486800 -18.137800 -33.741600
C -5.392600 -17.740700 -32.883500
C -5.109900 -16.610400 -30.352300
H -5.015500 -16.246200 -29.480100
C -4.478300 -18.246800 -31.997500
C -4.349500 -17.673200 -30.720300
H -3.932300 -18.983200 -32.245800
H -3.721300 -18.034600 -30.106000
64
Fragment
H -10.672700 -25.064000 -33.372800
H -10.461600 -26.012500 -31.233100
C -10.044400 -24.702500 -32.758600
C -9.915600 -25.276100 -31.481400
H -9.378500 -23.275600 -33.998700
C -9.284100 -23.639700 -33.126500
C -9.001300 -24.770000 -30.595400
H -8.907200 -25.167200 -29.737300
O -8.782300 -20.908700 -34.273200
C -8.347300 -23.064700 -32.222100
C -8.202200 -23.670600 -30.944500
C -7.669300 -21.187900 -33.784000
C -7.532300 -21.935800 -32.496500
H -7.325500 -19.330700 -35.459300
N -7.301300 -23.212900 -29.998300
O -7.106300 -20.000000 -28.561100
H -6.696300 -20.596000 -36.233700
C -6.650300 -21.507000 -31.545000
C -6.554500 -22.184600 -30.304600
N -6.545900 -20.784200 -34.355000
N -6.531200 -19.987300 -35.526400
H -6.098900 -20.753200 -31.716200
C -5.942600 -20.406200 -28.621900
H -5.762400 -18.023300 -27.832800
H -5.726000 -20.933400 -33.968500
C -5.553500 -21.708000 -29.272800
H -5.459600 -22.401100 -28.572400
H -5.380500 -18.613700 -26.644800
N -5.076600 -18.474500 -27.445000
N -4.925300 -19.736200 -28.081800
H -4.671100 -21.597700 -29.708300
H -4.111500 -19.949300 -28.239000
H -10.282500 -12.919900 -35.239900
H -9.722900 -14.568300 -33.770600
N -9.468600 -12.706800 -35.397100
N -9.317300 -11.445200 -36.033900
H -9.013500 -11.584400 -36.834100
H -8.934300 -15.371800 -34.906500
C -8.840500 -14.678700 -34.206100
H -8.667900 -13.904100 -29.510400
H -8.631500 -10.993900 -35.646100
C -8.451300 -13.376900 -34.857000
H -8.295000 -13.723800 -31.762700
N -7.862800 -12.957900 -27.952500
N -7.848000 -13.754900 -29.123900
C -7.839400 -15.155300 -33.174200
C -7.743600 -14.477600 -31.933900
H -7.697600 -13.566600 -27.245100
O -7.287700 -12.970700 -34.917700
N -7.092600 -16.183500 -33.480600
H -7.068400 -12.301400 -28.019600
C -6.861600 -14.906400 -30.982400
C -6.724700 -14.158500 -29.694900
C -6.191700 -16.641300 -32.534400
C -6.046600 -16.035400 -31.256800
O -5.611600 -13.879300 -29.205700
H -5.486800 -18.137800 -33.741600
C -5.392600 -17.740700 -32.883500
C -5.109900 -16.610400 -30.352300
H -5.015500 -16.246200 -29.480100
C -4.478300 -18.246800 -31.997500
C -4.349500 -17.673200 -30.720300
H -3.932300 -18.983200 -32.245800
H -3.721300 -18.034600 -30.106000
