32
Fragment
H -10.672700 -25.064000 -33.372800
H -10.461600 -26.012500 -31.233100
C -10.044400 -24.702500 -32.758600
C -9.915600 -25.276100 -31.481400
H -9.378500 -23.275600 -33.998700
C -9.284100 -23.639700 -33.126500
C -9.001300 -24.770000 -30.595400
H -8.907200 -25.167200 -29.737300
O -8.782300 -20.908700 -34.273200
C -8.347300 -23.064700 -32.222100
C -8.202200 -23.670600 -30.944500
C -7.669300 -21.187900 -33.784000
C -7.532300 -21.935800 -32.496500
H -7.325500 -19.330700 -35.459300
N -7.301300 -23.212900 -29.998300
O -7.106300 -20.000000 -28.561100
H -6.696300 -20.596000 -36.233700
C -6.650300 -21.507000 -31.545000
C -6.554500 -22.184600 -30.304600
N -6.545900 -20.784200 -34.355000
N -6.531200 -19.987300 -35.526400
H -6.098900 -20.753200 -31.716200
C -5.942600 -20.406200 -28.621900
H -5.762400 -18.023300 -27.832800
H -5.726000 -20.933400 -33.968500
C -5.553500 -21.708000 -29.272800
H -5.459600 -22.401100 -28.572400
H -5.380500 -18.613700 -26.644800
N -5.076600 -18.474500 -27.445000
N -4.925300 -19.736200 -28.081800
H -4.671100 -21.597700 -29.708300
H -4.111500 -19.949300 -28.239000
32
Fragment
H -5.732000 -25.064000 -33.372800
H -5.520900 -26.012500 -31.233100
C -5.103700 -24.702500 -32.758600
C -4.974900 -25.276100 -31.481400
H -4.437800 -23.275600 -33.998700
C -4.343400 -23.639700 -33.126500
C -4.060600 -24.770000 -30.595400
H -3.966500 -25.167200 -29.737300
O -3.841600 -20.908700 -34.273200
C -3.406600 -23.064700 -32.222100
C -3.261500 -23.670600 -30.944500
C -2.728600 -21.187900 -33.784000
C -2.591600 -21.935800 -32.496500
H -2.384800 -19.330700 -35.459300
N -2.360600 -23.212900 -29.998300
O -2.165600 -20.000000 -28.561100
H -1.755600 -20.596000 -36.233700
C -1.709600 -21.507000 -31.545000
C -1.613800 -22.184600 -30.304600
N -1.605200 -20.784200 -34.355000
N -1.590500 -19.987300 -35.526400
H -1.158200 -20.753200 -31.716200
C -1.001900 -20.406200 -28.621900
H -0.821700 -18.023300 -27.832800
H -0.785300 -20.933400 -33.968500
C -0.612800 -21.708000 -29.272800
H -0.518900 -22.401100 -28.572400
H -0.439800 -18.613700 -26.644800
N -0.135900 -18.474500 -27.445000
N 0.015400 -19.736200 -28.081800
H 0.269600 -21.597700 -29.708300
H 0.829200 -19.949300 -28.239000
64
Fragment
H -10.672700 -25.064000 -33.372800
H -10.461600 -26.012500 -31.233100
C -10.044400 -24.702500 -32.758600
C -9.915600 -25.276100 -31.481400
H -9.378500 -23.275600 -33.998700
C -9.284100 -23.639700 -33.126500
C -9.001300 -24.770000 -30.595400
H -8.907200 -25.167200 -29.737300
O -8.782300 -20.908700 -34.273200
C -8.347300 -23.064700 -32.222100
C -8.202200 -23.670600 -30.944500
C -7.669300 -21.187900 -33.784000
C -7.532300 -21.935800 -32.496500
H -7.325500 -19.330700 -35.459300
N -7.301300 -23.212900 -29.998300
O -7.106300 -20.000000 -28.561100
H -6.696300 -20.596000 -36.233700
C -6.650300 -21.507000 -31.545000
C -6.554500 -22.184600 -30.304600
N -6.545900 -20.784200 -34.355000
N -6.531200 -19.987300 -35.526400
H -6.098900 -20.753200 -31.716200
C -5.942600 -20.406200 -28.621900
H -5.762400 -18.023300 -27.832800
H -5.726000 -20.933400 -33.968500
C -5.553500 -21.708000 -29.272800
H -5.459600 -22.401100 -28.572400
H -5.380500 -18.613700 -26.644800
N -5.076600 -18.474500 -27.445000
N -4.925300 -19.736200 -28.081800
H -4.671100 -21.597700 -29.708300
H -4.111500 -19.949300 -28.239000
H -5.732000 -25.064000 -33.372800
H -5.520900 -26.012500 -31.233100
C -5.103700 -24.702500 -32.758600
C -4.974900 -25.276100 -31.481400
H -4.437800 -23.275600 -33.998700
C -4.343400 -23.639700 -33.126500
C -4.060600 -24.770000 -30.595400
H -3.966500 -25.167200 -29.737300
O -3.841600 -20.908700 -34.273200
C -3.406600 -23.064700 -32.222100
C -3.261500 -23.670600 -30.944500
C -2.728600 -21.187900 -33.784000
C -2.591600 -21.935800 -32.496500
H -2.384800 -19.330700 -35.459300
N -2.360600 -23.212900 -29.998300
O -2.165600 -20.000000 -28.561100
H -1.755600 -20.596000 -36.233700
C -1.709600 -21.507000 -31.545000
C -1.613800 -22.184600 -30.304600
N -1.605200 -20.784200 -34.355000
N -1.590500 -19.987300 -35.526400
H -1.158200 -20.753200 -31.716200
C -1.001900 -20.406200 -28.621900
H -0.821700 -18.023300 -27.832800
H -0.785300 -20.933400 -33.968500
C -0.612800 -21.708000 -29.272800
H -0.518900 -22.401100 -28.572400
H -0.439800 -18.613700 -26.644800
N -0.135900 -18.474500 -27.445000
N 0.015400 -19.736200 -28.081800
H 0.269600 -21.597700 -29.708300
H 0.829200 -19.949300 -28.239000
