32
Fragment
H -10.672700 -25.064000 -33.372800
H -10.461600 -26.012500 -31.233100
C -10.044400 -24.702500 -32.758600
C -9.915600 -25.276100 -31.481400
H -9.378500 -23.275600 -33.998700
C -9.284100 -23.639700 -33.126500
C -9.001300 -24.770000 -30.595400
H -8.907200 -25.167200 -29.737300
O -8.782300 -20.908700 -34.273200
C -8.347300 -23.064700 -32.222100
C -8.202200 -23.670600 -30.944500
C -7.669300 -21.187900 -33.784000
C -7.532300 -21.935800 -32.496500
H -7.325500 -19.330700 -35.459300
N -7.301300 -23.212900 -29.998300
O -7.106300 -20.000000 -28.561100
H -6.696300 -20.596000 -36.233700
C -6.650300 -21.507000 -31.545000
C -6.554500 -22.184600 -30.304600
N -6.545900 -20.784200 -34.355000
N -6.531200 -19.987300 -35.526400
H -6.098900 -20.753200 -31.716200
C -5.942600 -20.406200 -28.621900
H -5.762400 -18.023300 -27.832800
H -5.726000 -20.933400 -33.968500
C -5.553500 -21.708000 -29.272800
H -5.459600 -22.401100 -28.572400
H -5.380500 -18.613700 -26.644800
N -5.076600 -18.474500 -27.445000
N -4.925300 -19.736200 -28.081800
H -4.671100 -21.597700 -29.708300
H -4.111500 -19.949300 -28.239000
32
Fragment
H -12.023100 -10.082800 -42.441300
H -11.812100 -9.134200 -40.301500
C -11.394900 -10.444200 -41.827000
C -11.266100 -9.870600 -40.549800
H -10.728900 -11.871200 -43.067200
C -10.634500 -11.507000 -42.195000
C -10.351800 -10.376700 -39.663800
H -10.257600 -9.979600 -38.805700
O -10.132700 -14.238100 -43.341600
C -9.697800 -12.082000 -41.290500
C -9.552700 -11.476100 -40.012900
C -9.019700 -13.958900 -42.852400
C -8.882800 -13.211000 -41.564900
H -8.676000 -15.816000 -44.527700
N -8.651800 -11.933900 -39.066700
O -8.456700 -15.146700 -37.629600
H -8.046800 -14.550800 -45.302200
C -8.000800 -13.639800 -40.613400
C -7.905000 -12.962100 -39.373100
N -7.896400 -14.362500 -43.423400
N -7.881600 -15.159500 -44.594800
H -7.449400 -14.393600 -40.784600
C -7.293100 -14.740500 -37.690300
H -7.112900 -17.123500 -36.901200
H -7.076500 -14.213300 -43.036900
C -6.903900 -13.438700 -38.341200
H -6.810100 -12.745600 -37.640800
H -6.730900 -16.533000 -35.713200
N -6.427100 -16.672200 -36.513400
N -6.275800 -15.410600 -37.150200
H -6.021500 -13.549100 -38.776700
H -5.461900 -15.197500 -37.307400
64
Fragment
H -10.672700 -25.064000 -33.372800
H -10.461600 -26.012500 -31.233100
C -10.044400 -24.702500 -32.758600
C -9.915600 -25.276100 -31.481400
H -9.378500 -23.275600 -33.998700
C -9.284100 -23.639700 -33.126500
C -9.001300 -24.770000 -30.595400
H -8.907200 -25.167200 -29.737300
O -8.782300 -20.908700 -34.273200
C -8.347300 -23.064700 -32.222100
C -8.202200 -23.670600 -30.944500
C -7.669300 -21.187900 -33.784000
C -7.532300 -21.935800 -32.496500
H -7.325500 -19.330700 -35.459300
N -7.301300 -23.212900 -29.998300
O -7.106300 -20.000000 -28.561100
H -6.696300 -20.596000 -36.233700
C -6.650300 -21.507000 -31.545000
C -6.554500 -22.184600 -30.304600
N -6.545900 -20.784200 -34.355000
N -6.531200 -19.987300 -35.526400
H -6.098900 -20.753200 -31.716200
C -5.942600 -20.406200 -28.621900
H -5.762400 -18.023300 -27.832800
H -5.726000 -20.933400 -33.968500
C -5.553500 -21.708000 -29.272800
H -5.459600 -22.401100 -28.572400
H -5.380500 -18.613700 -26.644800
N -5.076600 -18.474500 -27.445000
N -4.925300 -19.736200 -28.081800
H -4.671100 -21.597700 -29.708300
H -4.111500 -19.949300 -28.239000
H -12.023100 -10.082800 -42.441300
H -11.812100 -9.134200 -40.301500
C -11.394900 -10.444200 -41.827000
C -11.266100 -9.870600 -40.549800
H -10.728900 -11.871200 -43.067200
C -10.634500 -11.507000 -42.195000
C -10.351800 -10.376700 -39.663800
H -10.257600 -9.979600 -38.805700
O -10.132700 -14.238100 -43.341600
C -9.697800 -12.082000 -41.290500
C -9.552700 -11.476100 -40.012900
C -9.019700 -13.958900 -42.852400
C -8.882800 -13.211000 -41.564900
H -8.676000 -15.816000 -44.527700
N -8.651800 -11.933900 -39.066700
O -8.456700 -15.146700 -37.629600
H -8.046800 -14.550800 -45.302200
C -8.000800 -13.639800 -40.613400
C -7.905000 -12.962100 -39.373100
N -7.896400 -14.362500 -43.423400
N -7.881600 -15.159500 -44.594800
H -7.449400 -14.393600 -40.784600
C -7.293100 -14.740500 -37.690300
H -7.112900 -17.123500 -36.901200
H -7.076500 -14.213300 -43.036900
C -6.903900 -13.438700 -38.341200
H -6.810100 -12.745600 -37.640800
H -6.730900 -16.533000 -35.713200
N -6.427100 -16.672200 -36.513400
N -6.275800 -15.410600 -37.150200
H -6.021500 -13.549100 -38.776700
H -5.461900 -15.197500 -37.307400
