32
Fragment
H -26.481400 -4.188600 -8.786600
H -26.459400 -4.796300 -10.207700
N -26.037500 -4.346300 -9.569100
C -24.722100 -4.070500 -9.659500
H -24.520100 -3.311600 -7.925200
N -24.146100 -3.441100 -8.629800
N -24.075000 -4.414600 -10.766400
H -23.200400 -3.169300 -8.642900
N -22.715600 -4.100900 -10.659600
H -22.461700 -4.765900 -12.447500
C -22.023500 -4.385800 -11.695400
C -20.581200 -4.149100 -11.768800
H -20.379000 -4.828300 -13.686700
H -20.299300 -3.384300 -9.901200
C -19.896800 -4.472700 -12.949200
C -19.854400 -3.618100 -10.706300
C -18.532500 -4.283500 -13.057500
C -18.490200 -3.428900 -10.814500
H -18.087700 -4.517300 -13.862600
H -18.008000 -3.073300 -10.077000
C -17.805800 -3.752500 -11.995000
C -16.363500 -3.515800 -12.068300
H -15.925300 -3.135700 -11.316300
N -15.671400 -3.800700 -13.104200
H -15.186600 -4.732300 -15.120900
N -14.312000 -3.487000 -12.997300
N -14.240800 -4.460500 -15.133900
H -13.866800 -4.590000 -15.838500
C -13.664900 -3.831100 -14.104300
N -12.349500 -3.555300 -14.194700
H -11.927600 -3.105300 -13.556000
H -11.905600 -3.713000 -14.977100
3
Fragment
O -24.937000 -2.432500 -12.626500
H -24.798200 -3.101400 -12.135000
H -24.741900 -1.773900 -12.048200
35
Fragment
H -26.481400 -4.188600 -8.786600
H -26.459400 -4.796300 -10.207700
N -26.037500 -4.346300 -9.569100
C -24.722100 -4.070500 -9.659500
H -24.520100 -3.311600 -7.925200
N -24.146100 -3.441100 -8.629800
N -24.075000 -4.414600 -10.766400
H -23.200400 -3.169300 -8.642900
N -22.715600 -4.100900 -10.659600
H -22.461700 -4.765900 -12.447500
C -22.023500 -4.385800 -11.695400
C -20.581200 -4.149100 -11.768800
H -20.379000 -4.828300 -13.686700
H -20.299300 -3.384300 -9.901200
C -19.896800 -4.472700 -12.949200
C -19.854400 -3.618100 -10.706300
C -18.532500 -4.283500 -13.057500
C -18.490200 -3.428900 -10.814500
H -18.087700 -4.517300 -13.862600
H -18.008000 -3.073300 -10.077000
C -17.805800 -3.752500 -11.995000
C -16.363500 -3.515800 -12.068300
H -15.925300 -3.135700 -11.316300
N -15.671400 -3.800700 -13.104200
H -15.186600 -4.732300 -15.120900
N -14.312000 -3.487000 -12.997300
N -14.240800 -4.460500 -15.133900
H -13.866800 -4.590000 -15.838500
C -13.664900 -3.831100 -14.104300
N -12.349500 -3.555300 -14.194700
H -11.927600 -3.105300 -13.556000
H -11.905600 -3.713000 -14.977100
O -24.937000 -2.432500 -12.626500
H -24.798200 -3.101400 -12.135000
H -24.741900 -1.773900 -12.048200
