32
Fragment
H -26.481400 -4.188600 -8.786600
H -26.459400 -4.796300 -10.207700
N -26.037500 -4.346300 -9.569100
C -24.722100 -4.070500 -9.659500
H -24.520100 -3.311600 -7.925200
N -24.146100 -3.441100 -8.629800
N -24.075000 -4.414600 -10.766400
H -23.200400 -3.169300 -8.642900
N -22.715600 -4.100900 -10.659600
H -22.461700 -4.765900 -12.447500
C -22.023500 -4.385800 -11.695400
C -20.581200 -4.149100 -11.768800
H -20.379000 -4.828300 -13.686700
H -20.299300 -3.384300 -9.901200
C -19.896800 -4.472700 -12.949200
C -19.854400 -3.618100 -10.706300
C -18.532500 -4.283500 -13.057500
C -18.490200 -3.428900 -10.814500
H -18.087700 -4.517300 -13.862600
H -18.008000 -3.073300 -10.077000
C -17.805800 -3.752500 -11.995000
C -16.363500 -3.515800 -12.068300
H -15.925300 -3.135700 -11.316300
N -15.671400 -3.800700 -13.104200
H -15.186600 -4.732300 -15.120900
N -14.312000 -3.487000 -12.997300
N -14.240800 -4.460500 -15.133900
H -13.866800 -4.590000 -15.838500
C -13.664900 -3.831100 -14.104300
N -12.349500 -3.555300 -14.194700
H -11.927600 -3.105300 -13.556000
H -11.905600 -3.713000 -14.977100
32
Fragment
H -27.998200 -5.688400 -2.845700
H -27.976200 -5.080700 -4.266800
N -27.554200 -5.530700 -3.628100
C -26.238800 -5.806500 -3.718600
H -26.036900 -6.565400 -1.984300
N -25.662900 -6.435900 -2.688900
N -25.591700 -5.462400 -4.825500
H -24.717100 -6.707700 -2.701900
N -24.232300 -5.776100 -4.718600
H -23.978400 -5.111100 -6.506500
C -23.540200 -5.491200 -5.754500
C -22.097900 -5.727900 -5.827800
H -21.895700 -5.048700 -7.745800
H -21.816100 -6.492700 -3.960200
C -21.413500 -5.404300 -7.008300
C -21.371200 -6.258900 -4.765300
C -20.049300 -5.593500 -7.116500
C -20.007000 -6.448100 -4.873600
H -19.604400 -5.359700 -7.921600
H -19.524800 -6.803700 -4.136100
C -19.322600 -6.124500 -6.054100
C -17.880300 -6.361200 -6.127400
H -17.442100 -6.741300 -5.375400
N -17.188200 -6.076300 -7.163200
H -16.703400 -5.144700 -9.179900
N -15.828800 -6.390000 -7.056400
N -15.757600 -5.416500 -9.193000
H -15.383600 -5.287000 -9.897600
C -15.181600 -6.045900 -8.163300
N -13.866300 -6.321700 -8.253700
H -13.444300 -6.771700 -7.615100
H -13.422300 -6.164000 -9.036200
64
Fragment
H -26.481400 -4.188600 -8.786600
H -26.459400 -4.796300 -10.207700
N -26.037500 -4.346300 -9.569100
C -24.722100 -4.070500 -9.659500
H -24.520100 -3.311600 -7.925200
N -24.146100 -3.441100 -8.629800
N -24.075000 -4.414600 -10.766400
H -23.200400 -3.169300 -8.642900
N -22.715600 -4.100900 -10.659600
H -22.461700 -4.765900 -12.447500
C -22.023500 -4.385800 -11.695400
C -20.581200 -4.149100 -11.768800
H -20.379000 -4.828300 -13.686700
H -20.299300 -3.384300 -9.901200
C -19.896800 -4.472700 -12.949200
C -19.854400 -3.618100 -10.706300
C -18.532500 -4.283500 -13.057500
C -18.490200 -3.428900 -10.814500
H -18.087700 -4.517300 -13.862600
H -18.008000 -3.073300 -10.077000
C -17.805800 -3.752500 -11.995000
C -16.363500 -3.515800 -12.068300
H -15.925300 -3.135700 -11.316300
N -15.671400 -3.800700 -13.104200
H -15.186600 -4.732300 -15.120900
N -14.312000 -3.487000 -12.997300
N -14.240800 -4.460500 -15.133900
H -13.866800 -4.590000 -15.838500
C -13.664900 -3.831100 -14.104300
N -12.349500 -3.555300 -14.194700
H -11.927600 -3.105300 -13.556000
H -11.905600 -3.713000 -14.977100
H -27.998200 -5.688400 -2.845700
H -27.976200 -5.080700 -4.266800
N -27.554200 -5.530700 -3.628100
C -26.238800 -5.806500 -3.718600
H -26.036900 -6.565400 -1.984300
N -25.662900 -6.435900 -2.688900
N -25.591700 -5.462400 -4.825500
H -24.717100 -6.707700 -2.701900
N -24.232300 -5.776100 -4.718600
H -23.978400 -5.111100 -6.506500
C -23.540200 -5.491200 -5.754500
C -22.097900 -5.727900 -5.827800
H -21.895700 -5.048700 -7.745800
H -21.816100 -6.492700 -3.960200
C -21.413500 -5.404300 -7.008300
C -21.371200 -6.258900 -4.765300
C -20.049300 -5.593500 -7.116500
C -20.007000 -6.448100 -4.873600
H -19.604400 -5.359700 -7.921600
H -19.524800 -6.803700 -4.136100
C -19.322600 -6.124500 -6.054100
C -17.880300 -6.361200 -6.127400
H -17.442100 -6.741300 -5.375400
N -17.188200 -6.076300 -7.163200
H -16.703400 -5.144700 -9.179900
N -15.828800 -6.390000 -7.056400
N -15.757600 -5.416500 -9.193000
H -15.383600 -5.287000 -9.897600
C -15.181600 -6.045900 -8.163300
N -13.866300 -6.321700 -8.253700
H -13.444300 -6.771700 -7.615100
H -13.422300 -6.164000 -9.036200
