32
Fragment
H -26.481400 -4.188600 -8.786600
H -26.459400 -4.796300 -10.207700
N -26.037500 -4.346300 -9.569100
C -24.722100 -4.070500 -9.659500
H -24.520100 -3.311600 -7.925200
N -24.146100 -3.441100 -8.629800
N -24.075000 -4.414600 -10.766400
H -23.200400 -3.169300 -8.642900
N -22.715600 -4.100900 -10.659600
H -22.461700 -4.765900 -12.447500
C -22.023500 -4.385800 -11.695400
C -20.581200 -4.149100 -11.768800
H -20.379000 -4.828300 -13.686700
H -20.299300 -3.384300 -9.901200
C -19.896800 -4.472700 -12.949200
C -19.854400 -3.618100 -10.706300
C -18.532500 -4.283500 -13.057500
C -18.490200 -3.428900 -10.814500
H -18.087700 -4.517300 -13.862600
H -18.008000 -3.073300 -10.077000
C -17.805800 -3.752500 -11.995000
C -16.363500 -3.515800 -12.068300
H -15.925300 -3.135700 -11.316300
N -15.671400 -3.800700 -13.104200
H -15.186600 -4.732300 -15.120900
N -14.312000 -3.487000 -12.997300
N -14.240800 -4.460500 -15.133900
H -13.866800 -4.590000 -15.838500
C -13.664900 -3.831100 -14.104300
N -12.349500 -3.555300 -14.194700
H -11.927600 -3.105300 -13.556000
H -11.905600 -3.713000 -14.977100
32
Fragment
H -24.964700 -5.688400 -14.727600
H -24.942700 -5.080700 -16.148700
N -24.520700 -5.530700 -15.510000
C -23.205300 -5.806500 -15.600400
H -23.003400 -6.565400 -13.866100
N -22.629400 -6.435900 -14.570700
N -22.558200 -5.462400 -16.707300
H -21.683600 -6.707700 -14.583800
N -21.198800 -5.776100 -16.600500
H -20.944900 -5.111100 -18.388400
C -20.506700 -5.491200 -17.636400
C -19.064400 -5.727900 -17.709700
H -18.862200 -5.048700 -19.627700
H -18.782500 -6.492700 -15.842100
C -18.380000 -5.404300 -18.890200
C -18.337700 -6.258900 -16.647200
C -17.015800 -5.593500 -18.998400
C -16.973500 -6.448100 -16.755500
H -16.570900 -5.359700 -19.803500
H -16.491200 -6.803700 -16.018000
C -16.289000 -6.124500 -17.935900
C -14.846800 -6.361200 -18.009200
H -14.408500 -6.741300 -17.257200
N -14.154700 -6.076300 -19.045100
H -13.669900 -5.144700 -21.061800
N -12.795300 -6.390000 -18.938300
N -12.724100 -5.416500 -21.074900
H -12.350100 -5.287000 -21.779500
C -12.148100 -6.045900 -20.045200
N -10.832800 -6.321700 -20.135600
H -10.410800 -6.771700 -19.497000
H -10.388800 -6.164000 -20.918000
64
Fragment
H -26.481400 -4.188600 -8.786600
H -26.459400 -4.796300 -10.207700
N -26.037500 -4.346300 -9.569100
C -24.722100 -4.070500 -9.659500
H -24.520100 -3.311600 -7.925200
N -24.146100 -3.441100 -8.629800
N -24.075000 -4.414600 -10.766400
H -23.200400 -3.169300 -8.642900
N -22.715600 -4.100900 -10.659600
H -22.461700 -4.765900 -12.447500
C -22.023500 -4.385800 -11.695400
C -20.581200 -4.149100 -11.768800
H -20.379000 -4.828300 -13.686700
H -20.299300 -3.384300 -9.901200
C -19.896800 -4.472700 -12.949200
C -19.854400 -3.618100 -10.706300
C -18.532500 -4.283500 -13.057500
C -18.490200 -3.428900 -10.814500
H -18.087700 -4.517300 -13.862600
H -18.008000 -3.073300 -10.077000
C -17.805800 -3.752500 -11.995000
C -16.363500 -3.515800 -12.068300
H -15.925300 -3.135700 -11.316300
N -15.671400 -3.800700 -13.104200
H -15.186600 -4.732300 -15.120900
N -14.312000 -3.487000 -12.997300
N -14.240800 -4.460500 -15.133900
H -13.866800 -4.590000 -15.838500
C -13.664900 -3.831100 -14.104300
N -12.349500 -3.555300 -14.194700
H -11.927600 -3.105300 -13.556000
H -11.905600 -3.713000 -14.977100
H -24.964700 -5.688400 -14.727600
H -24.942700 -5.080700 -16.148700
N -24.520700 -5.530700 -15.510000
C -23.205300 -5.806500 -15.600400
H -23.003400 -6.565400 -13.866100
N -22.629400 -6.435900 -14.570700
N -22.558200 -5.462400 -16.707300
H -21.683600 -6.707700 -14.583800
N -21.198800 -5.776100 -16.600500
H -20.944900 -5.111100 -18.388400
C -20.506700 -5.491200 -17.636400
C -19.064400 -5.727900 -17.709700
H -18.862200 -5.048700 -19.627700
H -18.782500 -6.492700 -15.842100
C -18.380000 -5.404300 -18.890200
C -18.337700 -6.258900 -16.647200
C -17.015800 -5.593500 -18.998400
C -16.973500 -6.448100 -16.755500
H -16.570900 -5.359700 -19.803500
H -16.491200 -6.803700 -16.018000
C -16.289000 -6.124500 -17.935900
C -14.846800 -6.361200 -18.009200
H -14.408500 -6.741300 -17.257200
N -14.154700 -6.076300 -19.045100
H -13.669900 -5.144700 -21.061800
N -12.795300 -6.390000 -18.938300
N -12.724100 -5.416500 -21.074900
H -12.350100 -5.287000 -21.779500
C -12.148100 -6.045900 -20.045200
N -10.832800 -6.321700 -20.135600
H -10.410800 -6.771700 -19.497000
H -10.388800 -6.164000 -20.918000
