16
Fragment
N -19.936200 -14.561600 -17.631000
C -18.919100 -14.933800 -17.256100
H -18.206800 -17.356700 -16.615400
C -17.652400 -15.411800 -16.764500
C -17.503100 -16.764600 -16.477300
N -16.860400 -12.011700 -17.153300
C -16.744300 -13.119700 -16.886500
C -16.587800 -14.515900 -16.566600
C -16.283800 -17.219600 -15.979700
C -16.127300 -18.615800 -15.659700
N -16.011200 -19.723800 -15.393000
C -15.368500 -14.970900 -16.069000
C -15.219200 -16.323700 -15.781800
H -14.664800 -14.378800 -15.930800
C -13.952600 -16.801700 -15.290100
N -12.935500 -17.173900 -14.915300
16
Fragment
N -22.240600 -22.205300 -17.631000
C -21.223500 -22.577500 -17.256100
H -20.511200 -25.000400 -16.615400
C -19.956800 -23.055500 -16.764500
C -19.807500 -24.408300 -16.477300
N -19.164800 -19.655300 -17.153300
C -19.048700 -20.763400 -16.886500
C -18.892200 -22.159500 -16.566600
C -18.588300 -24.863300 -15.979700
C -18.431800 -26.259500 -15.659700
N -18.315700 -27.367500 -15.393000
C -17.673000 -22.614600 -16.069000
C -17.523700 -23.967400 -15.781800
H -16.969300 -22.022500 -15.930800
C -16.257000 -24.445300 -15.290100
N -15.239900 -24.817500 -14.915300
32
Fragment
N -19.936200 -14.561600 -17.631000
C -18.919100 -14.933800 -17.256100
H -18.206800 -17.356700 -16.615400
C -17.652400 -15.411800 -16.764500
C -17.503100 -16.764600 -16.477300
N -16.860400 -12.011700 -17.153300
C -16.744300 -13.119700 -16.886500
C -16.587800 -14.515900 -16.566600
C -16.283800 -17.219600 -15.979700
C -16.127300 -18.615800 -15.659700
N -16.011200 -19.723800 -15.393000
C -15.368500 -14.970900 -16.069000
C -15.219200 -16.323700 -15.781800
H -14.664800 -14.378800 -15.930800
C -13.952600 -16.801700 -15.290100
N -12.935500 -17.173900 -14.915300
N -22.240600 -22.205300 -17.631000
C -21.223500 -22.577500 -17.256100
H -20.511200 -25.000400 -16.615400
C -19.956800 -23.055500 -16.764500
C -19.807500 -24.408300 -16.477300
N -19.164800 -19.655300 -17.153300
C -19.048700 -20.763400 -16.886500
C -18.892200 -22.159500 -16.566600
C -18.588300 -24.863300 -15.979700
C -18.431800 -26.259500 -15.659700
N -18.315700 -27.367500 -15.393000
C -17.673000 -22.614600 -16.069000
C -17.523700 -23.967400 -15.781800
H -16.969300 -22.022500 -15.930800
C -16.257000 -24.445300 -15.290100
N -15.239900 -24.817500 -14.915300
