16
Fragment
N -19.936200 -14.561600 -17.631000
C -18.919100 -14.933800 -17.256100
H -18.206800 -17.356700 -16.615400
C -17.652400 -15.411800 -16.764500
C -17.503100 -16.764600 -16.477300
N -16.860400 -12.011700 -17.153300
C -16.744300 -13.119700 -16.886500
C -16.587800 -14.515900 -16.566600
C -16.283800 -17.219600 -15.979700
C -16.127300 -18.615800 -15.659700
N -16.011200 -19.723800 -15.393000
C -15.368500 -14.970900 -16.069000
C -15.219200 -16.323700 -15.781800
H -14.664800 -14.378800 -15.930800
C -13.952600 -16.801700 -15.290100
N -12.935500 -17.173900 -14.915300
16
Fragment
N -27.528800 -14.561600 -17.631000
C -26.511700 -14.933800 -17.256100
H -25.799400 -17.356700 -16.615400
C -25.245000 -15.411800 -16.764500
C -25.095700 -16.764600 -16.477300
N -24.453000 -12.011700 -17.153300
C -24.336900 -13.119700 -16.886500
C -24.180400 -14.515900 -16.566600
C -23.876400 -17.219600 -15.979700
C -23.719900 -18.615800 -15.659700
N -23.603800 -19.723800 -15.393000
C -22.961100 -14.970900 -16.069000
C -22.811800 -16.323700 -15.781800
H -22.257400 -14.378800 -15.930800
C -21.545200 -16.801700 -15.290100
N -20.528100 -17.173900 -14.915300
32
Fragment
N -19.936200 -14.561600 -17.631000
C -18.919100 -14.933800 -17.256100
H -18.206800 -17.356700 -16.615400
C -17.652400 -15.411800 -16.764500
C -17.503100 -16.764600 -16.477300
N -16.860400 -12.011700 -17.153300
C -16.744300 -13.119700 -16.886500
C -16.587800 -14.515900 -16.566600
C -16.283800 -17.219600 -15.979700
C -16.127300 -18.615800 -15.659700
N -16.011200 -19.723800 -15.393000
C -15.368500 -14.970900 -16.069000
C -15.219200 -16.323700 -15.781800
H -14.664800 -14.378800 -15.930800
C -13.952600 -16.801700 -15.290100
N -12.935500 -17.173900 -14.915300
N -27.528800 -14.561600 -17.631000
C -26.511700 -14.933800 -17.256100
H -25.799400 -17.356700 -16.615400
C -25.245000 -15.411800 -16.764500
C -25.095700 -16.764600 -16.477300
N -24.453000 -12.011700 -17.153300
C -24.336900 -13.119700 -16.886500
C -24.180400 -14.515900 -16.566600
C -23.876400 -17.219600 -15.979700
C -23.719900 -18.615800 -15.659700
N -23.603800 -19.723800 -15.393000
C -22.961100 -14.970900 -16.069000
C -22.811800 -16.323700 -15.781800
H -22.257400 -14.378800 -15.930800
C -21.545200 -16.801700 -15.290100
N -20.528100 -17.173900 -14.915300
