16
Fragment
N -19.936200 -14.561600 -17.631000
C -18.919100 -14.933800 -17.256100
H -18.206800 -17.356700 -16.615400
C -17.652400 -15.411800 -16.764500
C -17.503100 -16.764600 -16.477300
N -16.860400 -12.011700 -17.153300
C -16.744300 -13.119700 -16.886500
C -16.587800 -14.515900 -16.566600
C -16.283800 -17.219600 -15.979700
C -16.127300 -18.615800 -15.659700
N -16.011200 -19.723800 -15.393000
C -15.368500 -14.970900 -16.069000
C -15.219200 -16.323700 -15.781800
H -14.664800 -14.378800 -15.930800
C -13.952600 -16.801700 -15.290100
N -12.935500 -17.173900 -14.915300
16
Fragment
N -12.343600 -14.561600 -17.631000
C -11.326500 -14.933800 -17.256100
H -10.614200 -17.356700 -16.615400
C -10.059800 -15.411800 -16.764500
C -9.910500 -16.764600 -16.477300
N -9.267800 -12.011700 -17.153300
C -9.151700 -13.119700 -16.886500
C -8.995200 -14.515900 -16.566600
C -8.691200 -17.219600 -15.979700
C -8.534700 -18.615800 -15.659700
N -8.418600 -19.723800 -15.393000
C -7.775900 -14.970900 -16.069000
C -7.626600 -16.323700 -15.781800
H -7.072200 -14.378800 -15.930800
C -6.360000 -16.801700 -15.290100
N -5.342900 -17.173900 -14.915300
32
Fragment
N -19.936200 -14.561600 -17.631000
C -18.919100 -14.933800 -17.256100
H -18.206800 -17.356700 -16.615400
C -17.652400 -15.411800 -16.764500
C -17.503100 -16.764600 -16.477300
N -16.860400 -12.011700 -17.153300
C -16.744300 -13.119700 -16.886500
C -16.587800 -14.515900 -16.566600
C -16.283800 -17.219600 -15.979700
C -16.127300 -18.615800 -15.659700
N -16.011200 -19.723800 -15.393000
C -15.368500 -14.970900 -16.069000
C -15.219200 -16.323700 -15.781800
H -14.664800 -14.378800 -15.930800
C -13.952600 -16.801700 -15.290100
N -12.935500 -17.173900 -14.915300
N -12.343600 -14.561600 -17.631000
C -11.326500 -14.933800 -17.256100
H -10.614200 -17.356700 -16.615400
C -10.059800 -15.411800 -16.764500
C -9.910500 -16.764600 -16.477300
N -9.267800 -12.011700 -17.153300
C -9.151700 -13.119700 -16.886500
C -8.995200 -14.515900 -16.566600
C -8.691200 -17.219600 -15.979700
C -8.534700 -18.615800 -15.659700
N -8.418600 -19.723800 -15.393000
C -7.775900 -14.970900 -16.069000
C -7.626600 -16.323700 -15.781800
H -7.072200 -14.378800 -15.930800
C -6.360000 -16.801700 -15.290100
N -5.342900 -17.173900 -14.915300
