16
Fragment
N -19.936200 -14.561600 -17.631000
C -18.919100 -14.933800 -17.256100
H -18.206800 -17.356700 -16.615400
C -17.652400 -15.411800 -16.764500
C -17.503100 -16.764600 -16.477300
N -16.860400 -12.011700 -17.153300
C -16.744300 -13.119700 -16.886500
C -16.587800 -14.515900 -16.566600
C -16.283800 -17.219600 -15.979700
C -16.127300 -18.615800 -15.659700
N -16.011200 -19.723800 -15.393000
C -15.368500 -14.970900 -16.069000
C -15.219200 -16.323700 -15.781800
H -14.664800 -14.378800 -15.930800
C -13.952600 -16.801700 -15.290100
N -12.935500 -17.173900 -14.915300
22
Fragment
H -20.013900 -18.223900 -21.159800
O -19.950900 -16.003000 -21.315600
O -19.294200 -18.054400 -20.805500
H -19.114400 -14.419700 -21.262400
C -19.078400 -16.761500 -20.850600
O -18.429500 -14.017900 -21.057600
C -17.790100 -16.248200 -20.360600
H -17.681100 -18.879700 -19.659700
C -17.546600 -14.878000 -20.537400
C -16.872800 -18.452200 -19.489800
C -16.743700 -17.070200 -19.779200
C -16.303100 -14.300700 -20.187900
H -16.167300 -13.388300 -20.306500
H -15.942800 -20.079200 -18.792400
C -15.828700 -19.172300 -18.963700
C -15.498200 -16.459700 -19.454800
C -15.306400 -15.071300 -19.680200
C -14.595200 -18.571800 -18.679300
H -14.485900 -14.683500 -19.477100
C -14.444400 -17.236100 -18.910000
H -13.891300 -19.075500 -18.338800
H -13.634700 -16.826400 -18.706200
38
Fragment
N -19.936200 -14.561600 -17.631000
C -18.919100 -14.933800 -17.256100
H -18.206800 -17.356700 -16.615400
C -17.652400 -15.411800 -16.764500
C -17.503100 -16.764600 -16.477300
N -16.860400 -12.011700 -17.153300
C -16.744300 -13.119700 -16.886500
C -16.587800 -14.515900 -16.566600
C -16.283800 -17.219600 -15.979700
C -16.127300 -18.615800 -15.659700
N -16.011200 -19.723800 -15.393000
C -15.368500 -14.970900 -16.069000
C -15.219200 -16.323700 -15.781800
H -14.664800 -14.378800 -15.930800
C -13.952600 -16.801700 -15.290100
N -12.935500 -17.173900 -14.915300
H -20.013900 -18.223900 -21.159800
O -19.950900 -16.003000 -21.315600
O -19.294200 -18.054400 -20.805500
H -19.114400 -14.419700 -21.262400
C -19.078400 -16.761500 -20.850600
O -18.429500 -14.017900 -21.057600
C -17.790100 -16.248200 -20.360600
H -17.681100 -18.879700 -19.659700
C -17.546600 -14.878000 -20.537400
C -16.872800 -18.452200 -19.489800
C -16.743700 -17.070200 -19.779200
C -16.303100 -14.300700 -20.187900
H -16.167300 -13.388300 -20.306500
H -15.942800 -20.079200 -18.792400
C -15.828700 -19.172300 -18.963700
C -15.498200 -16.459700 -19.454800
C -15.306400 -15.071300 -19.680200
C -14.595200 -18.571800 -18.679300
H -14.485900 -14.683500 -19.477100
C -14.444400 -17.236100 -18.910000
H -13.891300 -19.075500 -18.338800
H -13.634700 -16.826400 -18.706200
