16
Fragment
N -19.936200 -14.561600 -17.631000
C -18.919100 -14.933800 -17.256100
H -18.206800 -17.356700 -16.615400
C -17.652400 -15.411800 -16.764500
C -17.503100 -16.764600 -16.477300
N -16.860400 -12.011700 -17.153300
C -16.744300 -13.119700 -16.886500
C -16.587800 -14.515900 -16.566600
C -16.283800 -17.219600 -15.979700
C -16.127300 -18.615800 -15.659700
N -16.011200 -19.723800 -15.393000
C -15.368500 -14.970900 -16.069000
C -15.219200 -16.323700 -15.781800
H -14.664800 -14.378800 -15.930800
C -13.952600 -16.801700 -15.290100
N -12.935500 -17.173900 -14.915300
22
Fragment
H -27.606500 -18.223900 -21.159800
O -27.543500 -16.003000 -21.315600
O -26.886800 -18.054400 -20.805500
H -26.707000 -14.419700 -21.262400
C -26.671000 -16.761500 -20.850600
O -26.022100 -14.017900 -21.057600
C -25.382700 -16.248200 -20.360600
H -25.273700 -18.879700 -19.659700
C -25.139200 -14.878000 -20.537400
C -24.465400 -18.452200 -19.489800
C -24.336300 -17.070200 -19.779200
C -23.895700 -14.300700 -20.187900
H -23.759900 -13.388300 -20.306500
H -23.535400 -20.079200 -18.792400
C -23.421300 -19.172300 -18.963700
C -23.090800 -16.459700 -19.454800
C -22.899000 -15.071300 -19.680200
C -22.187800 -18.571800 -18.679300
H -22.078500 -14.683500 -19.477100
C -22.037000 -17.236100 -18.910000
H -21.483900 -19.075500 -18.338800
H -21.227300 -16.826400 -18.706200
38
Fragment
N -19.936200 -14.561600 -17.631000
C -18.919100 -14.933800 -17.256100
H -18.206800 -17.356700 -16.615400
C -17.652400 -15.411800 -16.764500
C -17.503100 -16.764600 -16.477300
N -16.860400 -12.011700 -17.153300
C -16.744300 -13.119700 -16.886500
C -16.587800 -14.515900 -16.566600
C -16.283800 -17.219600 -15.979700
C -16.127300 -18.615800 -15.659700
N -16.011200 -19.723800 -15.393000
C -15.368500 -14.970900 -16.069000
C -15.219200 -16.323700 -15.781800
H -14.664800 -14.378800 -15.930800
C -13.952600 -16.801700 -15.290100
N -12.935500 -17.173900 -14.915300
H -27.606500 -18.223900 -21.159800
O -27.543500 -16.003000 -21.315600
O -26.886800 -18.054400 -20.805500
H -26.707000 -14.419700 -21.262400
C -26.671000 -16.761500 -20.850600
O -26.022100 -14.017900 -21.057600
C -25.382700 -16.248200 -20.360600
H -25.273700 -18.879700 -19.659700
C -25.139200 -14.878000 -20.537400
C -24.465400 -18.452200 -19.489800
C -24.336300 -17.070200 -19.779200
C -23.895700 -14.300700 -20.187900
H -23.759900 -13.388300 -20.306500
H -23.535400 -20.079200 -18.792400
C -23.421300 -19.172300 -18.963700
C -23.090800 -16.459700 -19.454800
C -22.899000 -15.071300 -19.680200
C -22.187800 -18.571800 -18.679300
H -22.078500 -14.683500 -19.477100
C -22.037000 -17.236100 -18.910000
H -21.483900 -19.075500 -18.338800
H -21.227300 -16.826400 -18.706200
