16
Fragment
N -19.936200 -14.561600 -17.631000
C -18.919100 -14.933800 -17.256100
H -18.206800 -17.356700 -16.615400
C -17.652400 -15.411800 -16.764500
C -17.503100 -16.764600 -16.477300
N -16.860400 -12.011700 -17.153300
C -16.744300 -13.119700 -16.886500
C -16.587800 -14.515900 -16.566600
C -16.283800 -17.219600 -15.979700
C -16.127300 -18.615800 -15.659700
N -16.011200 -19.723800 -15.393000
C -15.368500 -14.970900 -16.069000
C -15.219200 -16.323700 -15.781800
H -14.664800 -14.378800 -15.930800
C -13.952600 -16.801700 -15.290100
N -12.935500 -17.173900 -14.915300
22
Fragment
H -11.644400 -14.909100 -13.840100
H -11.387700 -12.660000 -14.207400
C -10.834600 -14.499300 -13.636200
H -10.793100 -17.052000 -13.069200
C -10.683900 -13.163700 -13.867000
C -9.972600 -16.664200 -12.866100
C -9.780800 -15.275800 -13.091400
C -9.450300 -12.563200 -13.582500
H -9.336200 -11.656300 -13.753800
H -9.111700 -18.347200 -12.239800
C -8.976000 -17.434800 -12.358400
C -8.535300 -14.665300 -12.767000
C -8.406200 -13.283200 -13.056500
C -7.732400 -16.857500 -12.008800
H -7.598000 -12.855800 -12.886600
C -7.488900 -15.487300 -12.185600
O -6.849500 -17.717600 -11.488600
C -6.200600 -14.974000 -11.695600
H -6.164600 -17.315800 -11.283900
O -5.984900 -13.681100 -11.740700
O -5.328200 -15.732500 -11.230600
H -5.265100 -13.511600 -11.386400
38
Fragment
N -19.936200 -14.561600 -17.631000
C -18.919100 -14.933800 -17.256100
H -18.206800 -17.356700 -16.615400
C -17.652400 -15.411800 -16.764500
C -17.503100 -16.764600 -16.477300
N -16.860400 -12.011700 -17.153300
C -16.744300 -13.119700 -16.886500
C -16.587800 -14.515900 -16.566600
C -16.283800 -17.219600 -15.979700
C -16.127300 -18.615800 -15.659700
N -16.011200 -19.723800 -15.393000
C -15.368500 -14.970900 -16.069000
C -15.219200 -16.323700 -15.781800
H -14.664800 -14.378800 -15.930800
C -13.952600 -16.801700 -15.290100
N -12.935500 -17.173900 -14.915300
H -11.644400 -14.909100 -13.840100
H -11.387700 -12.660000 -14.207400
C -10.834600 -14.499300 -13.636200
H -10.793100 -17.052000 -13.069200
C -10.683900 -13.163700 -13.867000
C -9.972600 -16.664200 -12.866100
C -9.780800 -15.275800 -13.091400
C -9.450300 -12.563200 -13.582500
H -9.336200 -11.656300 -13.753800
H -9.111700 -18.347200 -12.239800
C -8.976000 -17.434800 -12.358400
C -8.535300 -14.665300 -12.767000
C -8.406200 -13.283200 -13.056500
C -7.732400 -16.857500 -12.008800
H -7.598000 -12.855800 -12.886600
C -7.488900 -15.487300 -12.185600
O -6.849500 -17.717600 -11.488600
C -6.200600 -14.974000 -11.695600
H -6.164600 -17.315800 -11.283900
O -5.984900 -13.681100 -11.740700
O -5.328200 -15.732500 -11.230600
H -5.265100 -13.511600 -11.386400
