16
Fragment
N -17.385300 -17.219300 -10.436600
C -16.992700 -17.782400 -11.345100
N -16.981300 -21.217300 -10.335800
C -16.720000 -20.622200 -11.284200
C -16.509900 -18.495200 -12.505100
C -16.394600 -19.900400 -12.480600
H -16.268500 -16.866100 -13.678900
C -16.187200 -17.792600 -13.654200
C -15.945800 -20.600500 -13.597900
H -15.864500 -21.527000 -13.573200
C -15.738400 -18.492700 -14.771600
C -15.623100 -19.897900 -14.747000
C -15.413000 -17.770900 -15.967900
N -15.151700 -17.175800 -16.916300
C -15.140300 -20.610700 -15.907100
N -14.747700 -21.173800 -16.815500
22
Fragment
O -21.164300 -18.094700 -1.126400
H -21.159200 -20.279900 -0.547600
O -20.897600 -20.298200 -1.324500
H -20.834900 -16.698300 -2.347500
C -20.821600 -19.073700 -1.789600
O -20.527700 -16.499200 -3.081300
C -20.302100 -18.941900 -3.163100
C -20.169900 -17.630100 -3.744400
H -20.079800 -20.884100 -3.549700
C -19.974800 -20.036100 -3.917900
C -19.667700 -17.491900 -5.011700
H -19.547900 -16.639700 -5.365100
C -19.477300 -19.920900 -5.252400
C -19.334800 -18.607900 -5.779300
H -19.243300 -21.905400 -5.675400
C -19.142100 -21.050900 -6.029100
C -18.832900 -18.490100 -7.125500
H -18.725700 -17.646400 -7.503600
C -18.671300 -20.889700 -7.294500
C -18.516700 -19.581800 -7.842200
H -18.450000 -21.635300 -7.804400
H -18.192300 -19.483200 -8.708000
38
Fragment
N -17.385300 -17.219300 -10.436600
C -16.992700 -17.782400 -11.345100
N -16.981300 -21.217300 -10.335800
C -16.720000 -20.622200 -11.284200
C -16.509900 -18.495200 -12.505100
C -16.394600 -19.900400 -12.480600
H -16.268500 -16.866100 -13.678900
C -16.187200 -17.792600 -13.654200
C -15.945800 -20.600500 -13.597900
H -15.864500 -21.527000 -13.573200
C -15.738400 -18.492700 -14.771600
C -15.623100 -19.897900 -14.747000
C -15.413000 -17.770900 -15.967900
N -15.151700 -17.175800 -16.916300
C -15.140300 -20.610700 -15.907100
N -14.747700 -21.173800 -16.815500
O -21.164300 -18.094700 -1.126400
H -21.159200 -20.279900 -0.547600
O -20.897600 -20.298200 -1.324500
H -20.834900 -16.698300 -2.347500
C -20.821600 -19.073700 -1.789600
O -20.527700 -16.499200 -3.081300
C -20.302100 -18.941900 -3.163100
C -20.169900 -17.630100 -3.744400
H -20.079800 -20.884100 -3.549700
C -19.974800 -20.036100 -3.917900
C -19.667700 -17.491900 -5.011700
H -19.547900 -16.639700 -5.365100
C -19.477300 -19.920900 -5.252400
C -19.334800 -18.607900 -5.779300
H -19.243300 -21.905400 -5.675400
C -19.142100 -21.050900 -6.029100
C -18.832900 -18.490100 -7.125500
H -18.725700 -17.646400 -7.503600
C -18.671300 -20.889700 -7.294500
C -18.516700 -19.581800 -7.842200
H -18.450000 -21.635300 -7.804400
H -18.192300 -19.483200 -8.708000
