16
Fragment
N -17.385300 -17.219300 -10.436600
C -16.992700 -17.782400 -11.345100
N -16.981300 -21.217300 -10.335800
C -16.720000 -20.622200 -11.284200
C -16.509900 -18.495200 -12.505100
C -16.394600 -19.900400 -12.480600
H -16.268500 -16.866100 -13.678900
C -16.187200 -17.792600 -13.654200
C -15.945800 -20.600500 -13.597900
H -15.864500 -21.527000 -13.573200
C -15.738400 -18.492700 -14.771600
C -15.623100 -19.897900 -14.747000
C -15.413000 -17.770900 -15.967900
N -15.151700 -17.175800 -16.916300
C -15.140300 -20.610700 -15.907100
N -14.747700 -21.173800 -16.815500
16
Fragment
N -17.431200 -27.572600 -5.894600
C -17.038600 -27.009500 -6.803000
N -17.027200 -23.574600 -5.793800
C -16.765900 -24.169700 -6.742200
C -16.555800 -26.296700 -7.963100
C -16.440500 -24.891500 -7.938500
H -16.314400 -27.925900 -9.136900
C -16.233100 -26.999300 -9.112200
C -15.991700 -24.191500 -9.055900
H -15.910400 -23.264900 -9.031200
C -15.784300 -26.299300 -10.229500
C -15.669000 -24.894100 -10.205000
C -15.458900 -27.021100 -11.425900
N -15.197600 -27.616200 -12.374300
C -15.186200 -24.181300 -11.365000
N -14.793600 -23.618200 -12.273400
32
Fragment
N -17.385300 -17.219300 -10.436600
C -16.992700 -17.782400 -11.345100
N -16.981300 -21.217300 -10.335800
C -16.720000 -20.622200 -11.284200
C -16.509900 -18.495200 -12.505100
C -16.394600 -19.900400 -12.480600
H -16.268500 -16.866100 -13.678900
C -16.187200 -17.792600 -13.654200
C -15.945800 -20.600500 -13.597900
H -15.864500 -21.527000 -13.573200
C -15.738400 -18.492700 -14.771600
C -15.623100 -19.897900 -14.747000
C -15.413000 -17.770900 -15.967900
N -15.151700 -17.175800 -16.916300
C -15.140300 -20.610700 -15.907100
N -14.747700 -21.173800 -16.815500
N -17.431200 -27.572600 -5.894600
C -17.038600 -27.009500 -6.803000
N -17.027200 -23.574600 -5.793800
C -16.765900 -24.169700 -6.742200
C -16.555800 -26.296700 -7.963100
C -16.440500 -24.891500 -7.938500
H -16.314400 -27.925900 -9.136900
C -16.233100 -26.999300 -9.112200
C -15.991700 -24.191500 -9.055900
H -15.910400 -23.264900 -9.031200
C -15.784300 -26.299300 -10.229500
C -15.669000 -24.894100 -10.205000
C -15.458900 -27.021100 -11.425900
N -15.197600 -27.616200 -12.374300
C -15.186200 -24.181300 -11.365000
N -14.793600 -23.618200 -12.273400
