16
Fragment
N -17.385300 -17.219300 -10.436600
C -16.992700 -17.782400 -11.345100
N -16.981300 -21.217300 -10.335800
C -16.720000 -20.622200 -11.284200
C -16.509900 -18.495200 -12.505100
C -16.394600 -19.900400 -12.480600
H -16.268500 -16.866100 -13.678900
C -16.187200 -17.792600 -13.654200
C -15.945800 -20.600500 -13.597900
H -15.864500 -21.527000 -13.573200
C -15.738400 -18.492700 -14.771600
C -15.623100 -19.897900 -14.747000
C -15.413000 -17.770900 -15.967900
N -15.151700 -17.175800 -16.916300
C -15.140300 -20.610700 -15.907100
N -14.747700 -21.173800 -16.815500
16
Fragment
N -17.431200 -14.774900 -5.894600
C -17.038600 -14.211800 -6.803000
N -17.027200 -10.776900 -5.793800
C -16.765900 -11.372000 -6.742200
C -16.555800 -13.499000 -7.963100
C -16.440500 -12.093800 -7.938500
H -16.314400 -15.128200 -9.136900
C -16.233100 -14.201600 -9.112200
C -15.991700 -11.393800 -9.055900
H -15.910400 -10.467200 -9.031200
C -15.784300 -13.501600 -10.229500
C -15.669000 -12.096400 -10.205000
C -15.458900 -14.223400 -11.425900
N -15.197600 -14.818500 -12.374300
C -15.186200 -11.383600 -11.365000
N -14.793600 -10.820500 -12.273400
32
Fragment
N -17.385300 -17.219300 -10.436600
C -16.992700 -17.782400 -11.345100
N -16.981300 -21.217300 -10.335800
C -16.720000 -20.622200 -11.284200
C -16.509900 -18.495200 -12.505100
C -16.394600 -19.900400 -12.480600
H -16.268500 -16.866100 -13.678900
C -16.187200 -17.792600 -13.654200
C -15.945800 -20.600500 -13.597900
H -15.864500 -21.527000 -13.573200
C -15.738400 -18.492700 -14.771600
C -15.623100 -19.897900 -14.747000
C -15.413000 -17.770900 -15.967900
N -15.151700 -17.175800 -16.916300
C -15.140300 -20.610700 -15.907100
N -14.747700 -21.173800 -16.815500
N -17.431200 -14.774900 -5.894600
C -17.038600 -14.211800 -6.803000
N -17.027200 -10.776900 -5.793800
C -16.765900 -11.372000 -6.742200
C -16.555800 -13.499000 -7.963100
C -16.440500 -12.093800 -7.938500
H -16.314400 -15.128200 -9.136900
C -16.233100 -14.201600 -9.112200
C -15.991700 -11.393800 -9.055900
H -15.910400 -10.467200 -9.031200
C -15.784300 -13.501600 -10.229500
C -15.669000 -12.096400 -10.205000
C -15.458900 -14.223400 -11.425900
N -15.197600 -14.818500 -12.374300
C -15.186200 -11.383600 -11.365000
N -14.793600 -10.820500 -12.273400
