16
Fragment
N -17.385300 -17.219300 -10.436600
C -16.992700 -17.782400 -11.345100
N -16.981300 -21.217300 -10.335800
C -16.720000 -20.622200 -11.284200
C -16.509900 -18.495200 -12.505100
C -16.394600 -19.900400 -12.480600
H -16.268500 -16.866100 -13.678900
C -16.187200 -17.792600 -13.654200
C -15.945800 -20.600500 -13.597900
H -15.864500 -21.527000 -13.573200
C -15.738400 -18.492700 -14.771600
C -15.623100 -19.897900 -14.747000
C -15.413000 -17.770900 -15.967900
N -15.151700 -17.175800 -16.916300
C -15.140300 -20.610700 -15.907100
N -14.747700 -21.173800 -16.815500
22
Fragment
O -21.072500 -18.094700 -10.210500
H -21.067400 -20.279900 -9.631600
O -20.805800 -20.298200 -10.408500
H -20.743100 -16.698300 -11.431500
C -20.729800 -19.073700 -10.873600
O -20.435900 -16.499200 -12.165300
C -20.210300 -18.941900 -12.247100
C -20.078100 -17.630100 -12.828500
H -19.988000 -20.884100 -12.633700
C -19.883000 -20.036100 -13.002000
C -19.575900 -17.491900 -14.095700
H -19.456100 -16.639700 -14.449200
C -19.385500 -19.920900 -14.336400
C -19.243000 -18.607900 -14.863300
H -19.151500 -21.905400 -14.759500
C -19.050300 -21.050900 -15.113100
C -18.741100 -18.490100 -16.209600
H -18.633900 -17.646400 -16.587600
C -18.579500 -20.889700 -16.378500
C -18.424900 -19.581800 -16.926300
H -18.358200 -21.635300 -16.888400
H -18.100500 -19.483200 -17.792000
38
Fragment
N -17.385300 -17.219300 -10.436600
C -16.992700 -17.782400 -11.345100
N -16.981300 -21.217300 -10.335800
C -16.720000 -20.622200 -11.284200
C -16.509900 -18.495200 -12.505100
C -16.394600 -19.900400 -12.480600
H -16.268500 -16.866100 -13.678900
C -16.187200 -17.792600 -13.654200
C -15.945800 -20.600500 -13.597900
H -15.864500 -21.527000 -13.573200
C -15.738400 -18.492700 -14.771600
C -15.623100 -19.897900 -14.747000
C -15.413000 -17.770900 -15.967900
N -15.151700 -17.175800 -16.916300
C -15.140300 -20.610700 -15.907100
N -14.747700 -21.173800 -16.815500
O -21.072500 -18.094700 -10.210500
H -21.067400 -20.279900 -9.631600
O -20.805800 -20.298200 -10.408500
H -20.743100 -16.698300 -11.431500
C -20.729800 -19.073700 -10.873600
O -20.435900 -16.499200 -12.165300
C -20.210300 -18.941900 -12.247100
C -20.078100 -17.630100 -12.828500
H -19.988000 -20.884100 -12.633700
C -19.883000 -20.036100 -13.002000
C -19.575900 -17.491900 -14.095700
H -19.456100 -16.639700 -14.449200
C -19.385500 -19.920900 -14.336400
C -19.243000 -18.607900 -14.863300
H -19.151500 -21.905400 -14.759500
C -19.050300 -21.050900 -15.113100
C -18.741100 -18.490100 -16.209600
H -18.633900 -17.646400 -16.587600
C -18.579500 -20.889700 -16.378500
C -18.424900 -19.581800 -16.926300
H -18.358200 -21.635300 -16.888400
H -18.100500 -19.483200 -17.792000
