16
Fragment
N -17.385300 -17.219300 -10.436600
C -16.992700 -17.782400 -11.345100
N -16.981300 -21.217300 -10.335800
C -16.720000 -20.622200 -11.284200
C -16.509900 -18.495200 -12.505100
C -16.394600 -19.900400 -12.480600
H -16.268500 -16.866100 -13.678900
C -16.187200 -17.792600 -13.654200
C -15.945800 -20.600500 -13.597900
H -15.864500 -21.527000 -13.573200
C -15.738400 -18.492700 -14.771600
C -15.623100 -19.897900 -14.747000
C -15.413000 -17.770900 -15.967900
N -15.151700 -17.175800 -16.916300
C -15.140300 -20.610700 -15.907100
N -14.747700 -21.173800 -16.815500
16
Fragment
N -17.477100 -17.219300 -1.352600
C -17.084500 -17.782400 -2.261000
N -17.073100 -21.217300 -1.251800
C -16.811800 -20.622200 -2.200200
C -16.601700 -18.495200 -3.421000
C -16.486400 -19.900400 -3.396500
H -16.360300 -16.866100 -4.594900
C -16.279000 -17.792600 -4.570200
C -16.037600 -20.600500 -4.513900
H -15.956300 -21.527000 -4.489100
C -15.830200 -18.492700 -5.687500
C -15.714900 -19.897900 -5.663000
C -15.504800 -17.770900 -6.883900
N -15.243500 -17.175800 -7.832300
C -15.232100 -20.610700 -6.823000
N -14.839500 -21.173800 -7.731400
32
Fragment
N -17.385300 -17.219300 -10.436600
C -16.992700 -17.782400 -11.345100
N -16.981300 -21.217300 -10.335800
C -16.720000 -20.622200 -11.284200
C -16.509900 -18.495200 -12.505100
C -16.394600 -19.900400 -12.480600
H -16.268500 -16.866100 -13.678900
C -16.187200 -17.792600 -13.654200
C -15.945800 -20.600500 -13.597900
H -15.864500 -21.527000 -13.573200
C -15.738400 -18.492700 -14.771600
C -15.623100 -19.897900 -14.747000
C -15.413000 -17.770900 -15.967900
N -15.151700 -17.175800 -16.916300
C -15.140300 -20.610700 -15.907100
N -14.747700 -21.173800 -16.815500
N -17.477100 -17.219300 -1.352600
C -17.084500 -17.782400 -2.261000
N -17.073100 -21.217300 -1.251800
C -16.811800 -20.622200 -2.200200
C -16.601700 -18.495200 -3.421000
C -16.486400 -19.900400 -3.396500
H -16.360300 -16.866100 -4.594900
C -16.279000 -17.792600 -4.570200
C -16.037600 -20.600500 -4.513900
H -15.956300 -21.527000 -4.489100
C -15.830200 -18.492700 -5.687500
C -15.714900 -19.897900 -5.663000
C -15.504800 -17.770900 -6.883900
N -15.243500 -17.175800 -7.832300
C -15.232100 -20.610700 -6.823000
N -14.839500 -21.173800 -7.731400
