26
Fragment
H -37.890400 -13.864600 -5.879400
C -37.034700 -14.205500 -6.004000
H -36.985500 -15.299600 -4.335000
H -36.678300 -13.284100 -7.736300
C -36.492300 -15.055000 -5.084200
C -36.312300 -13.859600 -7.104900
C -35.212300 -15.557600 -5.256000
C -35.042200 -14.356300 -7.289900
H -34.849500 -16.132200 -4.621100
H -34.561400 -14.115100 -8.048900
C -34.470700 -15.204100 -6.371800
H -33.085400 -16.701000 -6.415400
C -33.076300 -15.743500 -6.566500
H -32.804600 -15.591100 -7.485200
H -32.346100 -15.274400 -4.715300
N -32.184900 -12.830100 -4.774500
N -32.055300 -11.631300 -5.245100
C -32.051900 -15.102700 -5.634000
N -31.993600 -13.656900 -5.808100
N -31.782800 -11.662300 -6.572300
C -31.742800 -12.925600 -6.877900
H -31.563700 -13.264000 -7.726000
O -30.708100 -16.993400 -5.747200
C -30.660600 -15.689900 -5.781100
H -29.948400 -17.295800 -5.797800
O -29.664300 -15.021200 -5.886300
26
Fragment
O -42.338700 -18.486400 -8.759000
H -42.054600 -16.211800 -8.670500
C -41.342400 -17.817700 -8.653900
O -41.294900 -16.514200 -8.620000
H -40.439300 -20.243600 -10.598700
C -40.260200 -20.582000 -9.750700
N -40.220200 -21.845300 -9.445000
N -40.009400 -19.850700 -8.680900
C -39.951100 -18.404900 -8.506800
N -39.947700 -21.876300 -8.117800
N -39.818100 -20.677500 -7.647300
H -39.656900 -18.233200 -7.588100
H -39.198400 -17.916500 -10.358000
C -38.926700 -17.764100 -9.439300
H -38.917600 -16.806600 -9.288200
C -37.532300 -18.303500 -9.244500
H -37.441600 -19.392500 -10.921600
H -37.153500 -17.375400 -7.493900
C -36.960800 -19.151300 -10.162600
C -36.790700 -17.950000 -8.128700
C -35.690700 -19.648000 -9.977600
C -35.510700 -18.452600 -7.956900
H -35.324700 -20.223500 -10.609100
H -35.017500 -18.208000 -7.207700
C -34.968300 -19.302100 -8.876800
H -34.112600 -19.643000 -8.752100
52
Fragment
H -37.890400 -13.864600 -5.879400
C -37.034700 -14.205500 -6.004000
H -36.985500 -15.299600 -4.335000
H -36.678300 -13.284100 -7.736300
C -36.492300 -15.055000 -5.084200
C -36.312300 -13.859600 -7.104900
C -35.212300 -15.557600 -5.256000
C -35.042200 -14.356300 -7.289900
H -34.849500 -16.132200 -4.621100
H -34.561400 -14.115100 -8.048900
C -34.470700 -15.204100 -6.371800
H -33.085400 -16.701000 -6.415400
C -33.076300 -15.743500 -6.566500
H -32.804600 -15.591100 -7.485200
H -32.346100 -15.274400 -4.715300
N -32.184900 -12.830100 -4.774500
N -32.055300 -11.631300 -5.245100
C -32.051900 -15.102700 -5.634000
N -31.993600 -13.656900 -5.808100
N -31.782800 -11.662300 -6.572300
C -31.742800 -12.925600 -6.877900
H -31.563700 -13.264000 -7.726000
O -30.708100 -16.993400 -5.747200
C -30.660600 -15.689900 -5.781100
H -29.948400 -17.295800 -5.797800
O -29.664300 -15.021200 -5.886300
O -42.338700 -18.486400 -8.759000
H -42.054600 -16.211800 -8.670500
C -41.342400 -17.817700 -8.653900
O -41.294900 -16.514200 -8.620000
H -40.439300 -20.243600 -10.598700
C -40.260200 -20.582000 -9.750700
N -40.220200 -21.845300 -9.445000
N -40.009400 -19.850700 -8.680900
C -39.951100 -18.404900 -8.506800
N -39.947700 -21.876300 -8.117800
N -39.818100 -20.677500 -7.647300
H -39.656900 -18.233200 -7.588100
H -39.198400 -17.916500 -10.358000
C -38.926700 -17.764100 -9.439300
H -38.917600 -16.806600 -9.288200
C -37.532300 -18.303500 -9.244500
H -37.441600 -19.392500 -10.921600
H -37.153500 -17.375400 -7.493900
C -36.960800 -19.151300 -10.162600
C -36.790700 -17.950000 -8.128700
C -35.690700 -19.648000 -9.977600
C -35.510700 -18.452600 -7.956900
H -35.324700 -20.223500 -10.609100
H -35.017500 -18.208000 -7.207700
C -34.968300 -19.302100 -8.876800
H -34.112600 -19.643000 -8.752100
