26
Fragment
H -37.890400 -13.864600 -5.879400
C -37.034700 -14.205500 -6.004000
H -36.985500 -15.299600 -4.335000
H -36.678300 -13.284100 -7.736300
C -36.492300 -15.055000 -5.084200
C -36.312300 -13.859600 -7.104900
C -35.212300 -15.557600 -5.256000
C -35.042200 -14.356300 -7.289900
H -34.849500 -16.132200 -4.621100
H -34.561400 -14.115100 -8.048900
C -34.470700 -15.204100 -6.371800
H -33.085400 -16.701000 -6.415400
C -33.076300 -15.743500 -6.566500
H -32.804600 -15.591100 -7.485200
H -32.346100 -15.274400 -4.715300
N -32.184900 -12.830100 -4.774500
N -32.055300 -11.631300 -5.245100
C -32.051900 -15.102700 -5.634000
N -31.993600 -13.656900 -5.808100
N -31.782800 -11.662300 -6.572300
C -31.742800 -12.925600 -6.877900
H -31.563700 -13.264000 -7.726000
O -30.708100 -16.993400 -5.747200
C -30.660600 -15.689900 -5.781100
H -29.948400 -17.295800 -5.797800
O -29.664300 -15.021200 -5.886300
26
Fragment
O -30.338200 -15.021200 -8.759000
H -30.054100 -17.295800 -8.670500
C -29.341900 -15.689900 -8.653900
O -29.294400 -16.993400 -8.620000
H -28.438800 -13.264000 -10.598700
C -28.259700 -12.925600 -9.750700
N -28.219700 -11.662300 -9.445000
N -28.008900 -13.656900 -8.680900
C -27.950600 -15.102700 -8.506800
N -27.947200 -11.631300 -8.117800
N -27.817600 -12.830100 -7.647300
H -27.656400 -15.274400 -7.588100
H -27.197900 -15.591100 -10.358000
C -26.926200 -15.743500 -9.439300
H -26.917100 -16.701000 -9.288200
C -25.531800 -15.204100 -9.244500
H -25.441100 -14.115100 -10.921600
H -25.153000 -16.132200 -7.493900
C -24.960300 -14.356300 -10.162600
C -24.790200 -15.557600 -8.128700
C -23.690200 -13.859600 -9.977600
C -23.510200 -15.055000 -7.956900
H -23.324200 -13.284100 -10.609100
H -23.017000 -15.299600 -7.207700
C -22.967800 -14.205500 -8.876800
H -22.112100 -13.864600 -8.752100
52
Fragment
H -37.890400 -13.864600 -5.879400
C -37.034700 -14.205500 -6.004000
H -36.985500 -15.299600 -4.335000
H -36.678300 -13.284100 -7.736300
C -36.492300 -15.055000 -5.084200
C -36.312300 -13.859600 -7.104900
C -35.212300 -15.557600 -5.256000
C -35.042200 -14.356300 -7.289900
H -34.849500 -16.132200 -4.621100
H -34.561400 -14.115100 -8.048900
C -34.470700 -15.204100 -6.371800
H -33.085400 -16.701000 -6.415400
C -33.076300 -15.743500 -6.566500
H -32.804600 -15.591100 -7.485200
H -32.346100 -15.274400 -4.715300
N -32.184900 -12.830100 -4.774500
N -32.055300 -11.631300 -5.245100
C -32.051900 -15.102700 -5.634000
N -31.993600 -13.656900 -5.808100
N -31.782800 -11.662300 -6.572300
C -31.742800 -12.925600 -6.877900
H -31.563700 -13.264000 -7.726000
O -30.708100 -16.993400 -5.747200
C -30.660600 -15.689900 -5.781100
H -29.948400 -17.295800 -5.797800
O -29.664300 -15.021200 -5.886300
O -30.338200 -15.021200 -8.759000
H -30.054100 -17.295800 -8.670500
C -29.341900 -15.689900 -8.653900
O -29.294400 -16.993400 -8.620000
H -28.438800 -13.264000 -10.598700
C -28.259700 -12.925600 -9.750700
N -28.219700 -11.662300 -9.445000
N -28.008900 -13.656900 -8.680900
C -27.950600 -15.102700 -8.506800
N -27.947200 -11.631300 -8.117800
N -27.817600 -12.830100 -7.647300
H -27.656400 -15.274400 -7.588100
H -27.197900 -15.591100 -10.358000
C -26.926200 -15.743500 -9.439300
H -26.917100 -16.701000 -9.288200
C -25.531800 -15.204100 -9.244500
H -25.441100 -14.115100 -10.921600
H -25.153000 -16.132200 -7.493900
C -24.960300 -14.356300 -10.162600
C -24.790200 -15.557600 -8.128700
C -23.690200 -13.859600 -9.977600
C -23.510200 -15.055000 -7.956900
H -23.324200 -13.284100 -10.609100
H -23.017000 -15.299600 -7.207700
C -22.967800 -14.205500 -8.876800
H -22.112100 -13.864600 -8.752100
