26
Fragment
H -37.890400 -13.864600 -5.879400
C -37.034700 -14.205500 -6.004000
H -36.985500 -15.299600 -4.335000
H -36.678300 -13.284100 -7.736300
C -36.492300 -15.055000 -5.084200
C -36.312300 -13.859600 -7.104900
C -35.212300 -15.557600 -5.256000
C -35.042200 -14.356300 -7.289900
H -34.849500 -16.132200 -4.621100
H -34.561400 -14.115100 -8.048900
C -34.470700 -15.204100 -6.371800
H -33.085400 -16.701000 -6.415400
C -33.076300 -15.743500 -6.566500
H -32.804600 -15.591100 -7.485200
H -32.346100 -15.274400 -4.715300
N -32.184900 -12.830100 -4.774500
N -32.055300 -11.631300 -5.245100
C -32.051900 -15.102700 -5.634000
N -31.993600 -13.656900 -5.808100
N -31.782800 -11.662300 -6.572300
C -31.742800 -12.925600 -6.877900
H -31.563700 -13.264000 -7.726000
O -30.708100 -16.993400 -5.747200
C -30.660600 -15.689900 -5.781100
H -29.948400 -17.295800 -5.797800
O -29.664300 -15.021200 -5.886300
26
Fragment
O -42.338700 -10.109500 -3.013500
H -42.054600 -7.834900 -2.925000
C -41.342400 -9.440800 -2.908400
O -41.294900 -8.137300 -2.874500
H -40.439300 -11.866700 -4.853200
C -40.260200 -12.205100 -4.005200
N -40.220200 -13.468400 -3.699500
N -40.009400 -11.473800 -2.935400
C -39.951100 -10.028000 -2.761300
N -39.947700 -13.499400 -2.372300
N -39.818100 -12.300600 -1.901800
H -39.656900 -9.856300 -1.842600
H -39.198400 -9.539600 -4.612500
C -38.926700 -9.387200 -3.693800
H -38.917600 -8.429700 -3.542700
C -37.532300 -9.926600 -3.499000
H -37.441600 -11.015600 -5.176100
H -37.153500 -8.998500 -1.748400
C -36.960800 -10.774400 -4.417100
C -36.790700 -9.573100 -2.383200
C -35.690700 -11.271100 -4.232100
C -35.510700 -10.075700 -2.211400
H -35.324700 -11.846600 -4.863600
H -35.017500 -9.831100 -1.462200
C -34.968300 -10.925200 -3.131300
H -34.112600 -11.266100 -3.006600
52
Fragment
H -37.890400 -13.864600 -5.879400
C -37.034700 -14.205500 -6.004000
H -36.985500 -15.299600 -4.335000
H -36.678300 -13.284100 -7.736300
C -36.492300 -15.055000 -5.084200
C -36.312300 -13.859600 -7.104900
C -35.212300 -15.557600 -5.256000
C -35.042200 -14.356300 -7.289900
H -34.849500 -16.132200 -4.621100
H -34.561400 -14.115100 -8.048900
C -34.470700 -15.204100 -6.371800
H -33.085400 -16.701000 -6.415400
C -33.076300 -15.743500 -6.566500
H -32.804600 -15.591100 -7.485200
H -32.346100 -15.274400 -4.715300
N -32.184900 -12.830100 -4.774500
N -32.055300 -11.631300 -5.245100
C -32.051900 -15.102700 -5.634000
N -31.993600 -13.656900 -5.808100
N -31.782800 -11.662300 -6.572300
C -31.742800 -12.925600 -6.877900
H -31.563700 -13.264000 -7.726000
O -30.708100 -16.993400 -5.747200
C -30.660600 -15.689900 -5.781100
H -29.948400 -17.295800 -5.797800
O -29.664300 -15.021200 -5.886300
O -42.338700 -10.109500 -3.013500
H -42.054600 -7.834900 -2.925000
C -41.342400 -9.440800 -2.908400
O -41.294900 -8.137300 -2.874500
H -40.439300 -11.866700 -4.853200
C -40.260200 -12.205100 -4.005200
N -40.220200 -13.468400 -3.699500
N -40.009400 -11.473800 -2.935400
C -39.951100 -10.028000 -2.761300
N -39.947700 -13.499400 -2.372300
N -39.818100 -12.300600 -1.901800
H -39.656900 -9.856300 -1.842600
H -39.198400 -9.539600 -4.612500
C -38.926700 -9.387200 -3.693800
H -38.917600 -8.429700 -3.542700
C -37.532300 -9.926600 -3.499000
H -37.441600 -11.015600 -5.176100
H -37.153500 -8.998500 -1.748400
C -36.960800 -10.774400 -4.417100
C -36.790700 -9.573100 -2.383200
C -35.690700 -11.271100 -4.232100
C -35.510700 -10.075700 -2.211400
H -35.324700 -11.846600 -4.863600
H -35.017500 -9.831100 -1.462200
C -34.968300 -10.925200 -3.131300
H -34.112600 -11.266100 -3.006600
