26
Fragment
H -37.890400 -13.864600 -5.879400
C -37.034700 -14.205500 -6.004000
H -36.985500 -15.299600 -4.335000
H -36.678300 -13.284100 -7.736300
C -36.492300 -15.055000 -5.084200
C -36.312300 -13.859600 -7.104900
C -35.212300 -15.557600 -5.256000
C -35.042200 -14.356300 -7.289900
H -34.849500 -16.132200 -4.621100
H -34.561400 -14.115100 -8.048900
C -34.470700 -15.204100 -6.371800
H -33.085400 -16.701000 -6.415400
C -33.076300 -15.743500 -6.566500
H -32.804600 -15.591100 -7.485200
H -32.346100 -15.274400 -4.715300
N -32.184900 -12.830100 -4.774500
N -32.055300 -11.631300 -5.245100
C -32.051900 -15.102700 -5.634000
N -31.993600 -13.656900 -5.808100
N -31.782800 -11.662300 -6.572300
C -31.742800 -12.925600 -6.877900
H -31.563700 -13.264000 -7.726000
O -30.708100 -16.993400 -5.747200
C -30.660600 -15.689900 -5.781100
H -29.948400 -17.295800 -5.797800
O -29.664300 -15.021200 -5.886300
26
Fragment
H -37.890400 -5.487700 -5.879400
C -37.034700 -5.828600 -6.004000
H -36.985500 -6.922700 -4.335000
H -36.678300 -4.907200 -7.736300
C -36.492300 -6.678100 -5.084200
C -36.312300 -5.482700 -7.104900
C -35.212300 -7.180700 -5.256000
C -35.042200 -5.979400 -7.289900
H -34.849500 -7.755300 -4.621100
H -34.561400 -5.738200 -8.048900
C -34.470700 -6.827200 -6.371800
H -33.085400 -8.324100 -6.415400
C -33.076300 -7.366600 -6.566500
H -32.804600 -7.214200 -7.485200
H -32.346100 -6.897500 -4.715300
N -32.184900 -4.453200 -4.774500
N -32.055300 -3.254400 -5.245100
C -32.051900 -6.725800 -5.634000
N -31.993600 -5.280000 -5.808100
N -31.782800 -3.285400 -6.572300
C -31.742800 -4.548700 -6.877900
H -31.563700 -4.887100 -7.726000
O -30.708100 -8.616500 -5.747200
C -30.660600 -7.313000 -5.781100
H -29.948400 -8.918900 -5.797800
O -29.664300 -6.644300 -5.886300
52
Fragment
H -37.890400 -13.864600 -5.879400
C -37.034700 -14.205500 -6.004000
H -36.985500 -15.299600 -4.335000
H -36.678300 -13.284100 -7.736300
C -36.492300 -15.055000 -5.084200
C -36.312300 -13.859600 -7.104900
C -35.212300 -15.557600 -5.256000
C -35.042200 -14.356300 -7.289900
H -34.849500 -16.132200 -4.621100
H -34.561400 -14.115100 -8.048900
C -34.470700 -15.204100 -6.371800
H -33.085400 -16.701000 -6.415400
C -33.076300 -15.743500 -6.566500
H -32.804600 -15.591100 -7.485200
H -32.346100 -15.274400 -4.715300
N -32.184900 -12.830100 -4.774500
N -32.055300 -11.631300 -5.245100
C -32.051900 -15.102700 -5.634000
N -31.993600 -13.656900 -5.808100
N -31.782800 -11.662300 -6.572300
C -31.742800 -12.925600 -6.877900
H -31.563700 -13.264000 -7.726000
O -30.708100 -16.993400 -5.747200
C -30.660600 -15.689900 -5.781100
H -29.948400 -17.295800 -5.797800
O -29.664300 -15.021200 -5.886300
H -37.890400 -5.487700 -5.879400
C -37.034700 -5.828600 -6.004000
H -36.985500 -6.922700 -4.335000
H -36.678300 -4.907200 -7.736300
C -36.492300 -6.678100 -5.084200
C -36.312300 -5.482700 -7.104900
C -35.212300 -7.180700 -5.256000
C -35.042200 -5.979400 -7.289900
H -34.849500 -7.755300 -4.621100
H -34.561400 -5.738200 -8.048900
C -34.470700 -6.827200 -6.371800
H -33.085400 -8.324100 -6.415400
C -33.076300 -7.366600 -6.566500
H -32.804600 -7.214200 -7.485200
H -32.346100 -6.897500 -4.715300
N -32.184900 -4.453200 -4.774500
N -32.055300 -3.254400 -5.245100
C -32.051900 -6.725800 -5.634000
N -31.993600 -5.280000 -5.808100
N -31.782800 -3.285400 -6.572300
C -31.742800 -4.548700 -6.877900
H -31.563700 -4.887100 -7.726000
O -30.708100 -8.616500 -5.747200
C -30.660600 -7.313000 -5.781100
H -29.948400 -8.918900 -5.797800
O -29.664300 -6.644300 -5.886300
