24
Fragment
H -36.843100 -5.558200 -41.534900
H -36.758400 -6.577700 -40.347700
O -36.534800 -5.600200 -38.300600
H -36.412200 -3.729500 -36.090700
C -36.246200 -6.060200 -40.974400
H -35.713300 -6.647500 -41.515100
C -35.634300 -4.973300 -38.845600
C -35.491800 -3.878100 -35.859000
N -35.371600 -5.142000 -40.248200
H -35.366300 -4.801900 -35.630000
H -35.258200 -3.326500 -35.109900
C -34.747300 -4.025000 -38.291000
N -34.639500 -3.538000 -37.001800
C -34.386200 -4.511000 -40.973800
O -34.261700 -4.714300 -42.196000
C -33.755900 -3.402600 -38.986900
C -33.610600 -2.664900 -37.008800
N -33.552000 -3.633800 -40.330700
H -33.327600 -2.199900 -36.254700
N -33.032700 -2.535400 -38.227400
H -32.636500 -2.080400 -41.190000
C -32.428700 -3.001800 -41.020100
H -32.267700 -3.453700 -41.851500
H -31.643900 -3.056600 -40.469200
24
Fragment
H -41.889500 -6.062000 -44.330400
H -41.265700 -5.664900 -42.948200
C -41.104700 -6.116800 -43.779500
H -40.896900 -7.038200 -43.609600
N -40.500700 -6.583200 -46.572300
H -40.205800 -6.918700 -48.545000
N -39.981300 -5.484800 -44.469000
C -39.922800 -6.453700 -47.790800
C -39.777500 -5.716000 -45.812700
O -39.271700 -4.404300 -42.603600
C -39.147200 -4.607600 -43.825900
N -38.893800 -5.580600 -47.797900
C -38.786100 -5.093600 -46.508700
H -38.275200 -5.792100 -49.689800
H -38.167100 -4.316700 -49.169700
N -38.161800 -3.976600 -44.551500
C -38.041600 -5.240500 -48.940700
C -37.899100 -4.145300 -45.954100
H -37.820100 -2.471100 -43.284600
C -37.287100 -3.058400 -43.825300
H -37.121200 -5.389100 -48.708900
O -36.998600 -3.518400 -46.499100
H -36.775000 -2.540900 -44.452000
H -36.690300 -3.560400 -43.264800
48
Fragment
H -36.843100 -5.558200 -41.534900
H -36.758400 -6.577700 -40.347700
O -36.534800 -5.600200 -38.300600
H -36.412200 -3.729500 -36.090700
C -36.246200 -6.060200 -40.974400
H -35.713300 -6.647500 -41.515100
C -35.634300 -4.973300 -38.845600
C -35.491800 -3.878100 -35.859000
N -35.371600 -5.142000 -40.248200
H -35.366300 -4.801900 -35.630000
H -35.258200 -3.326500 -35.109900
C -34.747300 -4.025000 -38.291000
N -34.639500 -3.538000 -37.001800
C -34.386200 -4.511000 -40.973800
O -34.261700 -4.714300 -42.196000
C -33.755900 -3.402600 -38.986900
C -33.610600 -2.664900 -37.008800
N -33.552000 -3.633800 -40.330700
H -33.327600 -2.199900 -36.254700
N -33.032700 -2.535400 -38.227400
H -32.636500 -2.080400 -41.190000
C -32.428700 -3.001800 -41.020100
H -32.267700 -3.453700 -41.851500
H -31.643900 -3.056600 -40.469200
H -41.889500 -6.062000 -44.330400
H -41.265700 -5.664900 -42.948200
C -41.104700 -6.116800 -43.779500
H -40.896900 -7.038200 -43.609600
N -40.500700 -6.583200 -46.572300
H -40.205800 -6.918700 -48.545000
N -39.981300 -5.484800 -44.469000
C -39.922800 -6.453700 -47.790800
C -39.777500 -5.716000 -45.812700
O -39.271700 -4.404300 -42.603600
C -39.147200 -4.607600 -43.825900
N -38.893800 -5.580600 -47.797900
C -38.786100 -5.093600 -46.508700
H -38.275200 -5.792100 -49.689800
H -38.167100 -4.316700 -49.169700
N -38.161800 -3.976600 -44.551500
C -38.041600 -5.240500 -48.940700
C -37.899100 -4.145300 -45.954100
H -37.820100 -2.471100 -43.284600
C -37.287100 -3.058400 -43.825300
H -37.121200 -5.389100 -48.708900
O -36.998600 -3.518400 -46.499100
H -36.775000 -2.540900 -44.452000
H -36.690300 -3.560400 -43.264800
