24
Fragment
H -36.843100 -5.558200 -41.534900
H -36.758400 -6.577700 -40.347700
O -36.534800 -5.600200 -38.300600
H -36.412200 -3.729500 -36.090700
C -36.246200 -6.060200 -40.974400
H -35.713300 -6.647500 -41.515100
C -35.634300 -4.973300 -38.845600
C -35.491800 -3.878100 -35.859000
N -35.371600 -5.142000 -40.248200
H -35.366300 -4.801900 -35.630000
H -35.258200 -3.326500 -35.109900
C -34.747300 -4.025000 -38.291000
N -34.639500 -3.538000 -37.001800
C -34.386200 -4.511000 -40.973800
O -34.261700 -4.714300 -42.196000
C -33.755900 -3.402600 -38.986900
C -33.610600 -2.664900 -37.008800
N -33.552000 -3.633800 -40.330700
H -33.327600 -2.199900 -36.254700
N -33.032700 -2.535400 -38.227400
H -32.636500 -2.080400 -41.190000
C -32.428700 -3.001800 -41.020100
H -32.267700 -3.453700 -41.851500
H -31.643900 -3.056600 -40.469200
30
Fragment
H -31.538600 -1.215100 -38.555600
O -31.074500 -0.716300 -39.013200
O -30.738600 -1.665100 -36.521800
H -30.587100 -2.138300 -35.771300
C -30.013900 -0.278600 -38.275500
C -29.809900 -0.779600 -36.982600
H -29.314500 0.979800 -39.691900
C -29.166100 0.649700 -38.834600
C -28.701400 -0.373000 -36.270200
O -28.478600 -0.910500 -35.036700
C -28.087600 1.076000 -38.085200
C -27.812500 0.577700 -36.805600
H -27.689000 -0.506100 -34.804600
O -27.261300 2.017900 -38.673500
H -26.688500 3.544900 -40.359000
C -26.631400 1.026300 -36.097200
O -26.336400 0.549400 -34.974500
C -26.140600 2.452900 -38.004700
C -25.872900 3.859400 -40.043300
C -25.827300 1.997000 -36.777600
H -25.480100 5.055800 -41.611200
C -25.383500 3.418600 -38.813100
C -25.144000 4.764000 -40.794600
H -25.065400 2.323000 -36.359300
C -24.158500 3.895900 -38.358600
C -23.921900 5.242300 -40.349700
H -23.817900 3.603200 -37.543600
C -23.448000 4.806000 -39.118700
H -23.429400 5.841800 -40.862100
H -22.636700 5.132900 -38.798700
54
Fragment
H -36.843100 -5.558200 -41.534900
H -36.758400 -6.577700 -40.347700
O -36.534800 -5.600200 -38.300600
H -36.412200 -3.729500 -36.090700
C -36.246200 -6.060200 -40.974400
H -35.713300 -6.647500 -41.515100
C -35.634300 -4.973300 -38.845600
C -35.491800 -3.878100 -35.859000
N -35.371600 -5.142000 -40.248200
H -35.366300 -4.801900 -35.630000
H -35.258200 -3.326500 -35.109900
C -34.747300 -4.025000 -38.291000
N -34.639500 -3.538000 -37.001800
C -34.386200 -4.511000 -40.973800
O -34.261700 -4.714300 -42.196000
C -33.755900 -3.402600 -38.986900
C -33.610600 -2.664900 -37.008800
N -33.552000 -3.633800 -40.330700
H -33.327600 -2.199900 -36.254700
N -33.032700 -2.535400 -38.227400
H -32.636500 -2.080400 -41.190000
C -32.428700 -3.001800 -41.020100
H -32.267700 -3.453700 -41.851500
H -31.643900 -3.056600 -40.469200
H -31.538600 -1.215100 -38.555600
O -31.074500 -0.716300 -39.013200
O -30.738600 -1.665100 -36.521800
H -30.587100 -2.138300 -35.771300
C -30.013900 -0.278600 -38.275500
C -29.809900 -0.779600 -36.982600
H -29.314500 0.979800 -39.691900
C -29.166100 0.649700 -38.834600
C -28.701400 -0.373000 -36.270200
O -28.478600 -0.910500 -35.036700
C -28.087600 1.076000 -38.085200
C -27.812500 0.577700 -36.805600
H -27.689000 -0.506100 -34.804600
O -27.261300 2.017900 -38.673500
H -26.688500 3.544900 -40.359000
C -26.631400 1.026300 -36.097200
O -26.336400 0.549400 -34.974500
C -26.140600 2.452900 -38.004700
C -25.872900 3.859400 -40.043300
C -25.827300 1.997000 -36.777600
H -25.480100 5.055800 -41.611200
C -25.383500 3.418600 -38.813100
C -25.144000 4.764000 -40.794600
H -25.065400 2.323000 -36.359300
C -24.158500 3.895900 -38.358600
C -23.921900 5.242300 -40.349700
H -23.817900 3.603200 -37.543600
C -23.448000 4.806000 -39.118700
H -23.429400 5.841800 -40.862100
H -22.636700 5.132900 -38.798700
