24
Fragment
H -36.843100 -5.558200 -41.534900
H -36.758400 -6.577700 -40.347700
O -36.534800 -5.600200 -38.300600
H -36.412200 -3.729500 -36.090700
C -36.246200 -6.060200 -40.974400
H -35.713300 -6.647500 -41.515100
C -35.634300 -4.973300 -38.845600
C -35.491800 -3.878100 -35.859000
N -35.371600 -5.142000 -40.248200
H -35.366300 -4.801900 -35.630000
H -35.258200 -3.326500 -35.109900
C -34.747300 -4.025000 -38.291000
N -34.639500 -3.538000 -37.001800
C -34.386200 -4.511000 -40.973800
O -34.261700 -4.714300 -42.196000
C -33.755900 -3.402600 -38.986900
C -33.610600 -2.664900 -37.008800
N -33.552000 -3.633800 -40.330700
H -33.327600 -2.199900 -36.254700
N -33.032700 -2.535400 -38.227400
H -32.636500 -2.080400 -41.190000
C -32.428700 -3.001800 -41.020100
H -32.267700 -3.453700 -41.851500
H -31.643900 -3.056600 -40.469200
24
Fragment
H -41.968500 -0.776900 -30.197200
H -41.344700 -1.174000 -28.814900
C -41.183600 -0.722200 -29.646200
H -40.975900 0.199200 -29.476400
N -40.579700 -0.255800 -32.439000
H -40.284700 0.079800 -34.411700
N -40.060300 -1.354100 -30.335700
C -40.001800 -0.385300 -33.657600
C -39.856400 -1.123000 -31.679500
O -39.350600 -2.434700 -28.470400
C -39.226100 -2.231300 -29.692600
N -38.972800 -1.258400 -33.664600
C -38.865000 -1.745300 -32.375400
H -38.354100 -1.046800 -35.556500
H -38.246000 -2.522200 -35.036400
N -38.240700 -2.862300 -30.418200
C -38.120500 -1.598500 -34.807400
C -37.978100 -2.693600 -31.820800
H -37.899000 -4.367800 -29.151300
C -37.366100 -3.780600 -29.692000
H -37.200200 -1.449900 -34.575700
O -37.077600 -3.320500 -32.365800
H -36.853900 -4.298100 -30.318700
H -36.769300 -3.278600 -29.131500
48
Fragment
H -36.843100 -5.558200 -41.534900
H -36.758400 -6.577700 -40.347700
O -36.534800 -5.600200 -38.300600
H -36.412200 -3.729500 -36.090700
C -36.246200 -6.060200 -40.974400
H -35.713300 -6.647500 -41.515100
C -35.634300 -4.973300 -38.845600
C -35.491800 -3.878100 -35.859000
N -35.371600 -5.142000 -40.248200
H -35.366300 -4.801900 -35.630000
H -35.258200 -3.326500 -35.109900
C -34.747300 -4.025000 -38.291000
N -34.639500 -3.538000 -37.001800
C -34.386200 -4.511000 -40.973800
O -34.261700 -4.714300 -42.196000
C -33.755900 -3.402600 -38.986900
C -33.610600 -2.664900 -37.008800
N -33.552000 -3.633800 -40.330700
H -33.327600 -2.199900 -36.254700
N -33.032700 -2.535400 -38.227400
H -32.636500 -2.080400 -41.190000
C -32.428700 -3.001800 -41.020100
H -32.267700 -3.453700 -41.851500
H -31.643900 -3.056600 -40.469200
H -41.968500 -0.776900 -30.197200
H -41.344700 -1.174000 -28.814900
C -41.183600 -0.722200 -29.646200
H -40.975900 0.199200 -29.476400
N -40.579700 -0.255800 -32.439000
H -40.284700 0.079800 -34.411700
N -40.060300 -1.354100 -30.335700
C -40.001800 -0.385300 -33.657600
C -39.856400 -1.123000 -31.679500
O -39.350600 -2.434700 -28.470400
C -39.226100 -2.231300 -29.692600
N -38.972800 -1.258400 -33.664600
C -38.865000 -1.745300 -32.375400
H -38.354100 -1.046800 -35.556500
H -38.246000 -2.522200 -35.036400
N -38.240700 -2.862300 -30.418200
C -38.120500 -1.598500 -34.807400
C -37.978100 -2.693600 -31.820800
H -37.899000 -4.367800 -29.151300
C -37.366100 -3.780600 -29.692000
H -37.200200 -1.449900 -34.575700
O -37.077600 -3.320500 -32.365800
H -36.853900 -4.298100 -30.318700
H -36.769300 -3.278600 -29.131500
