16
Fragment
H -16.510300 -18.262700 -13.656200
H -16.406900 -17.484400 -11.578100
H -15.902100 -16.102500 -12.150200
H -15.885100 -16.925100 -14.214300
C -15.780100 -17.631800 -13.558300
C -15.740400 -17.058600 -12.140100
C -14.451600 -18.318600 -13.717300
C -14.356400 -17.360200 -11.646600
N -14.100800 -18.946300 -14.766000
N -13.877400 -16.942000 -10.542800
N -13.697500 -18.117000 -12.588500
H -12.903100 -18.428500 -12.482000
O -12.779400 -19.452800 -14.613300
O -12.543600 -17.389100 -10.401300
H -12.440000 -19.558800 -15.352600
H -12.189800 -16.998700 -9.772900
3
Fragment
O -15.206400 -15.535500 -8.451300
H -14.802600 -15.972000 -9.030400
H -14.766800 -15.589700 -7.726300
19
Fragment
H -16.510300 -18.262700 -13.656200
H -16.406900 -17.484400 -11.578100
H -15.902100 -16.102500 -12.150200
H -15.885100 -16.925100 -14.214300
C -15.780100 -17.631800 -13.558300
C -15.740400 -17.058600 -12.140100
C -14.451600 -18.318600 -13.717300
C -14.356400 -17.360200 -11.646600
N -14.100800 -18.946300 -14.766000
N -13.877400 -16.942000 -10.542800
N -13.697500 -18.117000 -12.588500
H -12.903100 -18.428500 -12.482000
O -12.779400 -19.452800 -14.613300
O -12.543600 -17.389100 -10.401300
H -12.440000 -19.558800 -15.352600
H -12.189800 -16.998700 -9.772900
O -15.206400 -15.535500 -8.451300
H -14.802600 -15.972000 -9.030400
H -14.766800 -15.589700 -7.726300
