16
Fragment
H -16.510300 -18.262700 -13.656200
H -16.406900 -17.484400 -11.578100
H -15.902100 -16.102500 -12.150200
H -15.885100 -16.925100 -14.214300
C -15.780100 -17.631800 -13.558300
C -15.740400 -17.058600 -12.140100
C -14.451600 -18.318600 -13.717300
C -14.356400 -17.360200 -11.646600
N -14.100800 -18.946300 -14.766000
N -13.877400 -16.942000 -10.542800
N -13.697500 -18.117000 -12.588500
H -12.903100 -18.428500 -12.482000
O -12.779400 -19.452800 -14.613300
O -12.543600 -17.389100 -10.401300
H -12.440000 -19.558800 -15.352600
H -12.189800 -16.998700 -9.772900
16
Fragment
H -11.993900 -22.436600 -16.554900
H -11.743800 -19.876400 -10.975200
O -11.640100 -22.046200 -15.926400
O -11.404400 -19.982500 -11.714400
H -11.280700 -21.006700 -13.845700
N -10.486300 -21.318300 -13.739200
N -10.306400 -22.493300 -15.784900
N -10.082900 -20.489000 -11.561700
C -9.827300 -22.075100 -14.681100
C -9.732200 -21.116700 -12.610500
C -8.443400 -22.376700 -14.187700
C -8.403700 -21.803500 -12.769500
H -8.298700 -22.510200 -12.113400
H -8.281600 -23.332800 -14.177500
H -7.776900 -21.950900 -14.749700
H -7.673400 -21.172600 -12.671500
32
Fragment
H -16.510300 -18.262700 -13.656200
H -16.406900 -17.484400 -11.578100
H -15.902100 -16.102500 -12.150200
H -15.885100 -16.925100 -14.214300
C -15.780100 -17.631800 -13.558300
C -15.740400 -17.058600 -12.140100
C -14.451600 -18.318600 -13.717300
C -14.356400 -17.360200 -11.646600
N -14.100800 -18.946300 -14.766000
N -13.877400 -16.942000 -10.542800
N -13.697500 -18.117000 -12.588500
H -12.903100 -18.428500 -12.482000
O -12.779400 -19.452800 -14.613300
O -12.543600 -17.389100 -10.401300
H -12.440000 -19.558800 -15.352600
H -12.189800 -16.998700 -9.772900
H -11.993900 -22.436600 -16.554900
H -11.743800 -19.876400 -10.975200
O -11.640100 -22.046200 -15.926400
O -11.404400 -19.982500 -11.714400
H -11.280700 -21.006700 -13.845700
N -10.486300 -21.318300 -13.739200
N -10.306400 -22.493300 -15.784900
N -10.082900 -20.489000 -11.561700
C -9.827300 -22.075100 -14.681100
C -9.732200 -21.116700 -12.610500
C -8.443400 -22.376700 -14.187700
C -8.403700 -21.803500 -12.769500
H -8.298700 -22.510200 -12.113400
H -8.281600 -23.332800 -14.177500
H -7.776900 -21.950900 -14.749700
H -7.673400 -21.172600 -12.671500
