16
Fragment
H -16.510300 -18.262700 -13.656200
H -16.406900 -17.484400 -11.578100
H -15.902100 -16.102500 -12.150200
H -15.885100 -16.925100 -14.214300
C -15.780100 -17.631800 -13.558300
C -15.740400 -17.058600 -12.140100
C -14.451600 -18.318600 -13.717300
C -14.356400 -17.360200 -11.646600
N -14.100800 -18.946300 -14.766000
N -13.877400 -16.942000 -10.542800
N -13.697500 -18.117000 -12.588500
H -12.903100 -18.428500 -12.482000
O -12.779400 -19.452800 -14.613300
O -12.543600 -17.389100 -10.401300
H -12.440000 -19.558800 -15.352600
H -12.189800 -16.998700 -9.772900
16
Fragment
H -15.674300 -15.201000 -16.554900
H -15.424200 -12.640800 -10.975200
O -15.320500 -14.810500 -15.926400
O -15.084800 -12.746800 -11.714400
H -14.961100 -13.771100 -13.845700
N -14.166700 -14.082600 -13.739200
N -13.986700 -15.257600 -15.784900
N -13.763300 -13.253300 -11.561700
C -13.507700 -14.839400 -14.681100
C -13.412600 -13.881000 -12.610500
C -12.123800 -15.141000 -14.187700
C -12.084100 -14.567800 -12.769500
H -11.979100 -15.274500 -12.113400
H -11.962000 -16.097100 -14.177500
H -11.457300 -14.715200 -14.749700
H -11.353800 -13.936900 -12.671500
32
Fragment
H -16.510300 -18.262700 -13.656200
H -16.406900 -17.484400 -11.578100
H -15.902100 -16.102500 -12.150200
H -15.885100 -16.925100 -14.214300
C -15.780100 -17.631800 -13.558300
C -15.740400 -17.058600 -12.140100
C -14.451600 -18.318600 -13.717300
C -14.356400 -17.360200 -11.646600
N -14.100800 -18.946300 -14.766000
N -13.877400 -16.942000 -10.542800
N -13.697500 -18.117000 -12.588500
H -12.903100 -18.428500 -12.482000
O -12.779400 -19.452800 -14.613300
O -12.543600 -17.389100 -10.401300
H -12.440000 -19.558800 -15.352600
H -12.189800 -16.998700 -9.772900
H -15.674300 -15.201000 -16.554900
H -15.424200 -12.640800 -10.975200
O -15.320500 -14.810500 -15.926400
O -15.084800 -12.746800 -11.714400
H -14.961100 -13.771100 -13.845700
N -14.166700 -14.082600 -13.739200
N -13.986700 -15.257600 -15.784900
N -13.763300 -13.253300 -11.561700
C -13.507700 -14.839400 -14.681100
C -13.412600 -13.881000 -12.610500
C -12.123800 -15.141000 -14.187700
C -12.084100 -14.567800 -12.769500
H -11.979100 -15.274500 -12.113400
H -11.962000 -16.097100 -14.177500
H -11.457300 -14.715200 -14.749700
H -11.353800 -13.936900 -12.671500
