38
Fragment
O -10.642300 -38.296300 -8.536300
H -10.622100 -38.477300 -16.558500
H -10.357400 -36.306800 -15.823000
C -10.344400 -38.318200 -15.684800
H -10.225200 -40.258300 -15.134000
C -10.170500 -37.013000 -15.249000
C -10.110700 -39.383400 -14.840900
C -9.722500 -36.756300 -13.970000
C -9.699100 -39.116300 -13.540500
H -9.684600 -40.177500 -7.086500
H -9.587100 -35.879300 -13.688900
C -9.557700 -38.843000 -8.511800
O -9.527000 -40.194600 -12.698600
C -9.471600 -37.821600 -13.097900
O -9.203400 -41.049800 -10.705200
C -9.187800 -40.042400 -11.377900
N -9.156600 -39.805700 -7.646100
C -8.981900 -37.673000 -11.750500
C -8.827300 -38.716200 -10.908800
O -8.687500 -36.387800 -11.429400
C -8.363600 -38.542300 -9.478000
C -8.064000 -36.138400 -10.233300
H -7.966500 -34.328700 -10.876900
C -7.885000 -37.111300 -9.305800
C -7.846000 -40.235300 -7.899600
N -7.686600 -34.861100 -10.180100
H -7.454100 -41.626100 -6.475700
C -7.323500 -39.538500 -8.985800
H -7.316200 -34.547100 -9.469900
C -7.209500 -36.760100 -8.112800
C -7.097100 -41.161400 -7.198000
N -6.668000 -36.467300 -7.154700
C -6.022100 -39.741600 -9.376100
C -5.793000 -41.370400 -7.613800
H -5.661400 -39.268000 -10.090000
H -5.267700 -41.994200 -7.166800
C -5.253300 -40.673400 -8.678700
H -4.371500 -40.825800 -8.932300
38
Fragment
O -12.276800 -38.296300 1.763800
H -12.256600 -38.477300 -6.258400
H -11.992000 -36.306800 -5.522900
C -11.979000 -38.318200 -5.384700
H -11.859800 -40.258300 -4.833800
C -11.805000 -37.013000 -4.948900
C -11.745200 -39.383400 -4.540800
C -11.357000 -36.756300 -3.669900
C -11.333600 -39.116300 -3.240400
H -11.319100 -40.177500 3.213600
H -11.221600 -35.879300 -3.388700
C -11.192200 -38.843000 1.788300
O -11.161500 -40.194600 -2.398500
C -11.106100 -37.821600 -2.797800
O -10.837900 -41.049800 -0.405100
C -10.822400 -40.042400 -1.077800
N -10.791100 -39.805700 2.654000
C -10.616400 -37.673000 -1.450400
C -10.461800 -38.716200 -0.608600
O -10.322000 -36.387800 -1.129300
C -9.998100 -38.542300 0.822200
C -9.698500 -36.138400 0.066800
H -9.601000 -34.328700 -0.576800
C -9.519500 -37.111300 0.994300
C -9.480500 -40.235300 2.400500
N -9.321100 -34.861100 0.120000
H -9.088600 -41.626100 3.824400
C -8.958000 -39.538500 1.314300
H -8.950700 -34.547100 0.830200
C -8.844000 -36.760100 2.187300
C -8.731600 -41.161400 3.102100
N -8.302500 -36.467300 3.145400
C -7.656600 -39.741600 0.924000
C -7.427500 -41.370400 2.686300
H -7.295900 -39.268000 0.210100
H -6.902200 -41.994200 3.133300
C -6.887900 -40.673400 1.621400
H -6.006000 -40.825800 1.367900
76
Fragment
O -10.642300 -38.296300 -8.536300
H -10.622100 -38.477300 -16.558500
H -10.357400 -36.306800 -15.823000
C -10.344400 -38.318200 -15.684800
H -10.225200 -40.258300 -15.134000
C -10.170500 -37.013000 -15.249000
C -10.110700 -39.383400 -14.840900
C -9.722500 -36.756300 -13.970000
C -9.699100 -39.116300 -13.540500
H -9.684600 -40.177500 -7.086500
H -9.587100 -35.879300 -13.688900
C -9.557700 -38.843000 -8.511800
O -9.527000 -40.194600 -12.698600
C -9.471600 -37.821600 -13.097900
O -9.203400 -41.049800 -10.705200
C -9.187800 -40.042400 -11.377900
N -9.156600 -39.805700 -7.646100
C -8.981900 -37.673000 -11.750500
C -8.827300 -38.716200 -10.908800
O -8.687500 -36.387800 -11.429400
C -8.363600 -38.542300 -9.478000
C -8.064000 -36.138400 -10.233300
H -7.966500 -34.328700 -10.876900
C -7.885000 -37.111300 -9.305800
C -7.846000 -40.235300 -7.899600
N -7.686600 -34.861100 -10.180100
H -7.454100 -41.626100 -6.475700
C -7.323500 -39.538500 -8.985800
H -7.316200 -34.547100 -9.469900
C -7.209500 -36.760100 -8.112800
C -7.097100 -41.161400 -7.198000
N -6.668000 -36.467300 -7.154700
C -6.022100 -39.741600 -9.376100
C -5.793000 -41.370400 -7.613800
H -5.661400 -39.268000 -10.090000
H -5.267700 -41.994200 -7.166800
C -5.253300 -40.673400 -8.678700
H -4.371500 -40.825800 -8.932300
O -12.276800 -38.296300 1.763800
H -12.256600 -38.477300 -6.258400
H -11.992000 -36.306800 -5.522900
C -11.979000 -38.318200 -5.384700
H -11.859800 -40.258300 -4.833800
C -11.805000 -37.013000 -4.948900
C -11.745200 -39.383400 -4.540800
C -11.357000 -36.756300 -3.669900
C -11.333600 -39.116300 -3.240400
H -11.319100 -40.177500 3.213600
H -11.221600 -35.879300 -3.388700
C -11.192200 -38.843000 1.788300
O -11.161500 -40.194600 -2.398500
C -11.106100 -37.821600 -2.797800
O -10.837900 -41.049800 -0.405100
C -10.822400 -40.042400 -1.077800
N -10.791100 -39.805700 2.654000
C -10.616400 -37.673000 -1.450400
C -10.461800 -38.716200 -0.608600
O -10.322000 -36.387800 -1.129300
C -9.998100 -38.542300 0.822200
C -9.698500 -36.138400 0.066800
H -9.601000 -34.328700 -0.576800
C -9.519500 -37.111300 0.994300
C -9.480500 -40.235300 2.400500
N -9.321100 -34.861100 0.120000
H -9.088600 -41.626100 3.824400
C -8.958000 -39.538500 1.314300
H -8.950700 -34.547100 0.830200
C -8.844000 -36.760100 2.187300
C -8.731600 -41.161400 3.102100
N -8.302500 -36.467300 3.145400
C -7.656600 -39.741600 0.924000
C -7.427500 -41.370400 2.686300
H -7.295900 -39.268000 0.210100
H -6.902200 -41.994200 3.133300
C -6.887900 -40.673400 1.621400
H -6.006000 -40.825800 1.367900
