38
Fragment
O -10.642300 -38.296300 -8.536300
H -10.622100 -38.477300 -16.558500
H -10.357400 -36.306800 -15.823000
C -10.344400 -38.318200 -15.684800
H -10.225200 -40.258300 -15.134000
C -10.170500 -37.013000 -15.249000
C -10.110700 -39.383400 -14.840900
C -9.722500 -36.756300 -13.970000
C -9.699100 -39.116300 -13.540500
H -9.684600 -40.177500 -7.086500
H -9.587100 -35.879300 -13.688900
C -9.557700 -38.843000 -8.511800
O -9.527000 -40.194600 -12.698600
C -9.471600 -37.821600 -13.097900
O -9.203400 -41.049800 -10.705200
C -9.187800 -40.042400 -11.377900
N -9.156600 -39.805700 -7.646100
C -8.981900 -37.673000 -11.750500
C -8.827300 -38.716200 -10.908800
O -8.687500 -36.387800 -11.429400
C -8.363600 -38.542300 -9.478000
C -8.064000 -36.138400 -10.233300
H -7.966500 -34.328700 -10.876900
C -7.885000 -37.111300 -9.305800
C -7.846000 -40.235300 -7.899600
N -7.686600 -34.861100 -10.180100
H -7.454100 -41.626100 -6.475700
C -7.323500 -39.538500 -8.985800
H -7.316200 -34.547100 -9.469900
C -7.209500 -36.760100 -8.112800
C -7.097100 -41.161400 -7.198000
N -6.668000 -36.467300 -7.154700
C -6.022100 -39.741600 -9.376100
C -5.793000 -41.370400 -7.613800
H -5.661400 -39.268000 -10.090000
H -5.267700 -41.994200 -7.166800
C -5.253300 -40.673400 -8.678700
H -4.371500 -40.825800 -8.932300
38
Fragment
O -9.007800 -38.296300 -18.836400
H -8.987600 -38.477300 -26.858600
H -8.722900 -36.306800 -26.123200
C -8.709900 -38.318200 -25.984900
H -8.590700 -40.258300 -25.434100
C -8.536000 -37.013000 -25.549100
C -8.476200 -39.383400 -25.141000
C -8.088000 -36.756300 -24.270200
C -8.064500 -39.116300 -23.840700
H -8.050100 -40.177500 -17.386600
H -7.952600 -35.879300 -23.989000
C -7.923100 -38.843000 -18.811900
O -7.892500 -40.194600 -22.998700
C -7.837100 -37.821600 -23.398100
O -7.568900 -41.049800 -21.005300
C -7.553300 -40.042400 -21.678000
N -7.522000 -39.805700 -17.946200
C -7.347400 -37.673000 -22.050600
C -7.192800 -38.716200 -21.208900
O -7.053000 -36.387800 -21.729500
C -6.729100 -38.542300 -19.778100
C -6.429500 -36.138400 -20.533400
H -6.331900 -34.328700 -21.177000
C -6.250500 -37.111300 -19.606000
C -6.211500 -40.235300 -18.199700
N -6.052100 -34.861100 -20.480200
H -5.819600 -41.626100 -16.775800
C -5.689000 -39.538500 -19.285900
H -5.681700 -34.547100 -19.770000
C -5.575000 -36.760100 -18.412900
C -5.462600 -41.161400 -17.498100
N -5.033500 -36.467300 -17.454800
C -4.387600 -39.741600 -19.676200
C -4.158500 -41.370400 -17.914000
H -4.026900 -39.268000 -20.390100
H -3.633100 -41.994200 -17.466900
C -3.618800 -40.673400 -18.978800
H -2.737000 -40.825800 -19.232400
76
Fragment
O -10.642300 -38.296300 -8.536300
H -10.622100 -38.477300 -16.558500
H -10.357400 -36.306800 -15.823000
C -10.344400 -38.318200 -15.684800
H -10.225200 -40.258300 -15.134000
C -10.170500 -37.013000 -15.249000
C -10.110700 -39.383400 -14.840900
C -9.722500 -36.756300 -13.970000
C -9.699100 -39.116300 -13.540500
H -9.684600 -40.177500 -7.086500
H -9.587100 -35.879300 -13.688900
C -9.557700 -38.843000 -8.511800
O -9.527000 -40.194600 -12.698600
C -9.471600 -37.821600 -13.097900
O -9.203400 -41.049800 -10.705200
C -9.187800 -40.042400 -11.377900
N -9.156600 -39.805700 -7.646100
C -8.981900 -37.673000 -11.750500
C -8.827300 -38.716200 -10.908800
O -8.687500 -36.387800 -11.429400
C -8.363600 -38.542300 -9.478000
C -8.064000 -36.138400 -10.233300
H -7.966500 -34.328700 -10.876900
C -7.885000 -37.111300 -9.305800
C -7.846000 -40.235300 -7.899600
N -7.686600 -34.861100 -10.180100
H -7.454100 -41.626100 -6.475700
C -7.323500 -39.538500 -8.985800
H -7.316200 -34.547100 -9.469900
C -7.209500 -36.760100 -8.112800
C -7.097100 -41.161400 -7.198000
N -6.668000 -36.467300 -7.154700
C -6.022100 -39.741600 -9.376100
C -5.793000 -41.370400 -7.613800
H -5.661400 -39.268000 -10.090000
H -5.267700 -41.994200 -7.166800
C -5.253300 -40.673400 -8.678700
H -4.371500 -40.825800 -8.932300
O -9.007800 -38.296300 -18.836400
H -8.987600 -38.477300 -26.858600
H -8.722900 -36.306800 -26.123200
C -8.709900 -38.318200 -25.984900
H -8.590700 -40.258300 -25.434100
C -8.536000 -37.013000 -25.549100
C -8.476200 -39.383400 -25.141000
C -8.088000 -36.756300 -24.270200
C -8.064500 -39.116300 -23.840700
H -8.050100 -40.177500 -17.386600
H -7.952600 -35.879300 -23.989000
C -7.923100 -38.843000 -18.811900
O -7.892500 -40.194600 -22.998700
C -7.837100 -37.821600 -23.398100
O -7.568900 -41.049800 -21.005300
C -7.553300 -40.042400 -21.678000
N -7.522000 -39.805700 -17.946200
C -7.347400 -37.673000 -22.050600
C -7.192800 -38.716200 -21.208900
O -7.053000 -36.387800 -21.729500
C -6.729100 -38.542300 -19.778100
C -6.429500 -36.138400 -20.533400
H -6.331900 -34.328700 -21.177000
C -6.250500 -37.111300 -19.606000
C -6.211500 -40.235300 -18.199700
N -6.052100 -34.861100 -20.480200
H -5.819600 -41.626100 -16.775800
C -5.689000 -39.538500 -19.285900
H -5.681700 -34.547100 -19.770000
C -5.575000 -36.760100 -18.412900
C -5.462600 -41.161400 -17.498100
N -5.033500 -36.467300 -17.454800
C -4.387600 -39.741600 -19.676200
C -4.158500 -41.370400 -17.914000
H -4.026900 -39.268000 -20.390100
H -3.633100 -41.994200 -17.466900
C -3.618800 -40.673400 -18.978800
H -2.737000 -40.825800 -19.232400
