38
Fragment
O -10.642300 -38.296300 -8.536300
H -10.622100 -38.477300 -16.558500
H -10.357400 -36.306800 -15.823000
C -10.344400 -38.318200 -15.684800
H -10.225200 -40.258300 -15.134000
C -10.170500 -37.013000 -15.249000
C -10.110700 -39.383400 -14.840900
C -9.722500 -36.756300 -13.970000
C -9.699100 -39.116300 -13.540500
H -9.684600 -40.177500 -7.086500
H -9.587100 -35.879300 -13.688900
C -9.557700 -38.843000 -8.511800
O -9.527000 -40.194600 -12.698600
C -9.471600 -37.821600 -13.097900
O -9.203400 -41.049800 -10.705200
C -9.187800 -40.042400 -11.377900
N -9.156600 -39.805700 -7.646100
C -8.981900 -37.673000 -11.750500
C -8.827300 -38.716200 -10.908800
O -8.687500 -36.387800 -11.429400
C -8.363600 -38.542300 -9.478000
C -8.064000 -36.138400 -10.233300
H -7.966500 -34.328700 -10.876900
C -7.885000 -37.111300 -9.305800
C -7.846000 -40.235300 -7.899600
N -7.686600 -34.861100 -10.180100
H -7.454100 -41.626100 -6.475700
C -7.323500 -39.538500 -8.985800
H -7.316200 -34.547100 -9.469900
C -7.209500 -36.760100 -8.112800
C -7.097100 -41.161400 -7.198000
N -6.668000 -36.467300 -7.154700
C -6.022100 -39.741600 -9.376100
C -5.793000 -41.370400 -7.613800
H -5.661400 -39.268000 -10.090000
H -5.267700 -41.994200 -7.166800
C -5.253300 -40.673400 -8.678700
H -4.371500 -40.825800 -8.932300
38
Fragment
O -3.046300 -38.296300 -8.536300
H -3.026100 -38.477300 -16.558500
H -2.761400 -36.306800 -15.823000
C -2.748400 -38.318200 -15.684800
H -2.629200 -40.258300 -15.134000
C -2.574500 -37.013000 -15.249000
C -2.514700 -39.383400 -14.840900
C -2.126500 -36.756300 -13.970000
C -2.103100 -39.116300 -13.540500
H -2.088600 -40.177500 -7.086500
H -1.991100 -35.879300 -13.688900
C -1.961700 -38.843000 -8.511800
O -1.931000 -40.194600 -12.698600
C -1.875600 -37.821600 -13.097900
O -1.607400 -41.049800 -10.705200
C -1.591800 -40.042400 -11.377900
N -1.560600 -39.805700 -7.646100
C -1.385900 -37.673000 -11.750500
C -1.231300 -38.716200 -10.908800
O -1.091500 -36.387800 -11.429400
C -0.767600 -38.542300 -9.478000
C -0.468000 -36.138400 -10.233300
H -0.370500 -34.328700 -10.876900
C -0.289000 -37.111300 -9.305800
C -0.250000 -40.235300 -7.899600
N -0.090600 -34.861100 -10.180100
H 0.141900 -41.626100 -6.475700
C 0.272500 -39.538500 -8.985800
H 0.279800 -34.547100 -9.469900
C 0.386500 -36.760100 -8.112800
C 0.498900 -41.161400 -7.198000
N 0.928000 -36.467300 -7.154700
C 1.573900 -39.741600 -9.376100
C 1.803000 -41.370400 -7.613800
H 1.934600 -39.268000 -10.090000
H 2.328300 -41.994200 -7.166800
C 2.342700 -40.673400 -8.678700
H 3.224500 -40.825800 -8.932300
76
Fragment
O -10.642300 -38.296300 -8.536300
H -10.622100 -38.477300 -16.558500
H -10.357400 -36.306800 -15.823000
C -10.344400 -38.318200 -15.684800
H -10.225200 -40.258300 -15.134000
C -10.170500 -37.013000 -15.249000
C -10.110700 -39.383400 -14.840900
C -9.722500 -36.756300 -13.970000
C -9.699100 -39.116300 -13.540500
H -9.684600 -40.177500 -7.086500
H -9.587100 -35.879300 -13.688900
C -9.557700 -38.843000 -8.511800
O -9.527000 -40.194600 -12.698600
C -9.471600 -37.821600 -13.097900
O -9.203400 -41.049800 -10.705200
C -9.187800 -40.042400 -11.377900
N -9.156600 -39.805700 -7.646100
C -8.981900 -37.673000 -11.750500
C -8.827300 -38.716200 -10.908800
O -8.687500 -36.387800 -11.429400
C -8.363600 -38.542300 -9.478000
C -8.064000 -36.138400 -10.233300
H -7.966500 -34.328700 -10.876900
C -7.885000 -37.111300 -9.305800
C -7.846000 -40.235300 -7.899600
N -7.686600 -34.861100 -10.180100
H -7.454100 -41.626100 -6.475700
C -7.323500 -39.538500 -8.985800
H -7.316200 -34.547100 -9.469900
C -7.209500 -36.760100 -8.112800
C -7.097100 -41.161400 -7.198000
N -6.668000 -36.467300 -7.154700
C -6.022100 -39.741600 -9.376100
C -5.793000 -41.370400 -7.613800
H -5.661400 -39.268000 -10.090000
H -5.267700 -41.994200 -7.166800
C -5.253300 -40.673400 -8.678700
H -4.371500 -40.825800 -8.932300
O -3.046300 -38.296300 -8.536300
H -3.026100 -38.477300 -16.558500
H -2.761400 -36.306800 -15.823000
C -2.748400 -38.318200 -15.684800
H -2.629200 -40.258300 -15.134000
C -2.574500 -37.013000 -15.249000
C -2.514700 -39.383400 -14.840900
C -2.126500 -36.756300 -13.970000
C -2.103100 -39.116300 -13.540500
H -2.088600 -40.177500 -7.086500
H -1.991100 -35.879300 -13.688900
C -1.961700 -38.843000 -8.511800
O -1.931000 -40.194600 -12.698600
C -1.875600 -37.821600 -13.097900
O -1.607400 -41.049800 -10.705200
C -1.591800 -40.042400 -11.377900
N -1.560600 -39.805700 -7.646100
C -1.385900 -37.673000 -11.750500
C -1.231300 -38.716200 -10.908800
O -1.091500 -36.387800 -11.429400
C -0.767600 -38.542300 -9.478000
C -0.468000 -36.138400 -10.233300
H -0.370500 -34.328700 -10.876900
C -0.289000 -37.111300 -9.305800
C -0.250000 -40.235300 -7.899600
N -0.090600 -34.861100 -10.180100
H 0.141900 -41.626100 -6.475700
C 0.272500 -39.538500 -8.985800
H 0.279800 -34.547100 -9.469900
C 0.386500 -36.760100 -8.112800
C 0.498900 -41.161400 -7.198000
N 0.928000 -36.467300 -7.154700
C 1.573900 -39.741600 -9.376100
C 1.803000 -41.370400 -7.613800
H 1.934600 -39.268000 -10.090000
H 2.328300 -41.994200 -7.166800
C 2.342700 -40.673400 -8.678700
H 3.224500 -40.825800 -8.932300
