38
Fragment
O -10.642300 -38.296300 -8.536300
H -10.622100 -38.477300 -16.558500
H -10.357400 -36.306800 -15.823000
C -10.344400 -38.318200 -15.684800
H -10.225200 -40.258300 -15.134000
C -10.170500 -37.013000 -15.249000
C -10.110700 -39.383400 -14.840900
C -9.722500 -36.756300 -13.970000
C -9.699100 -39.116300 -13.540500
H -9.684600 -40.177500 -7.086500
H -9.587100 -35.879300 -13.688900
C -9.557700 -38.843000 -8.511800
O -9.527000 -40.194600 -12.698600
C -9.471600 -37.821600 -13.097900
O -9.203400 -41.049800 -10.705200
C -9.187800 -40.042400 -11.377900
N -9.156600 -39.805700 -7.646100
C -8.981900 -37.673000 -11.750500
C -8.827300 -38.716200 -10.908800
O -8.687500 -36.387800 -11.429400
C -8.363600 -38.542300 -9.478000
C -8.064000 -36.138400 -10.233300
H -7.966500 -34.328700 -10.876900
C -7.885000 -37.111300 -9.305800
C -7.846000 -40.235300 -7.899600
N -7.686600 -34.861100 -10.180100
H -7.454100 -41.626100 -6.475700
C -7.323500 -39.538500 -8.985800
H -7.316200 -34.547100 -9.469900
C -7.209500 -36.760100 -8.112800
C -7.097100 -41.161400 -7.198000
N -6.668000 -36.467300 -7.154700
C -6.022100 -39.741600 -9.376100
C -5.793000 -41.370400 -7.613800
H -5.661400 -39.268000 -10.090000
H -5.267700 -41.994200 -7.166800
C -5.253300 -40.673400 -8.678700
H -4.371500 -40.825800 -8.932300
38
Fragment
O -17.421000 -44.818200 -13.686400
H -17.400800 -44.637200 -21.708500
H -17.136200 -46.807700 -20.973100
C -17.123200 -44.796300 -20.834900
H -17.004000 -42.856200 -20.284000
C -16.949300 -46.101500 -20.399100
C -16.889500 -43.731100 -19.991000
C -16.501200 -46.358200 -19.120100
C -16.477800 -43.998200 -18.690600
H -16.463300 -42.937000 -12.236500
H -16.365800 -47.235200 -18.838900
C -16.336400 -44.271500 -13.661900
O -16.305700 -42.919900 -17.848700
C -16.250300 -45.292900 -18.248000
O -15.982100 -42.064700 -15.855300
C -15.966600 -43.072100 -16.528000
N -15.935300 -43.308800 -12.796100
C -15.760600 -45.441500 -16.900500
C -15.606000 -44.398300 -16.058800
O -15.466300 -46.726700 -16.579500
C -15.142400 -44.572200 -14.628000
C -14.842800 -46.976100 -15.383300
H -14.745200 -48.785800 -16.027000
C -14.663800 -46.003200 -14.455900
C -14.624700 -42.879200 -13.049600
N -14.465300 -48.253400 -15.330200
H -14.232800 -41.488400 -11.625700
C -14.102200 -43.576000 -14.135900
H -14.094900 -48.567400 -14.620000
C -13.988200 -46.354400 -13.262800
C -13.875900 -41.953100 -12.348100
N -13.446800 -46.647200 -12.304700
C -12.800900 -43.372900 -14.526200
C -12.571700 -41.744100 -12.763900
H -12.440100 -43.846500 -15.240100
H -12.046400 -41.120300 -12.316900
C -12.032100 -42.441100 -13.828700
H -11.150200 -42.288700 -14.082300
76
Fragment
O -10.642300 -38.296300 -8.536300
H -10.622100 -38.477300 -16.558500
H -10.357400 -36.306800 -15.823000
C -10.344400 -38.318200 -15.684800
H -10.225200 -40.258300 -15.134000
C -10.170500 -37.013000 -15.249000
C -10.110700 -39.383400 -14.840900
C -9.722500 -36.756300 -13.970000
C -9.699100 -39.116300 -13.540500
H -9.684600 -40.177500 -7.086500
H -9.587100 -35.879300 -13.688900
C -9.557700 -38.843000 -8.511800
O -9.527000 -40.194600 -12.698600
C -9.471600 -37.821600 -13.097900
O -9.203400 -41.049800 -10.705200
C -9.187800 -40.042400 -11.377900
N -9.156600 -39.805700 -7.646100
C -8.981900 -37.673000 -11.750500
C -8.827300 -38.716200 -10.908800
O -8.687500 -36.387800 -11.429400
C -8.363600 -38.542300 -9.478000
C -8.064000 -36.138400 -10.233300
H -7.966500 -34.328700 -10.876900
C -7.885000 -37.111300 -9.305800
C -7.846000 -40.235300 -7.899600
N -7.686600 -34.861100 -10.180100
H -7.454100 -41.626100 -6.475700
C -7.323500 -39.538500 -8.985800
H -7.316200 -34.547100 -9.469900
C -7.209500 -36.760100 -8.112800
C -7.097100 -41.161400 -7.198000
N -6.668000 -36.467300 -7.154700
C -6.022100 -39.741600 -9.376100
C -5.793000 -41.370400 -7.613800
H -5.661400 -39.268000 -10.090000
H -5.267700 -41.994200 -7.166800
C -5.253300 -40.673400 -8.678700
H -4.371500 -40.825800 -8.932300
O -17.421000 -44.818200 -13.686400
H -17.400800 -44.637200 -21.708500
H -17.136200 -46.807700 -20.973100
C -17.123200 -44.796300 -20.834900
H -17.004000 -42.856200 -20.284000
C -16.949300 -46.101500 -20.399100
C -16.889500 -43.731100 -19.991000
C -16.501200 -46.358200 -19.120100
C -16.477800 -43.998200 -18.690600
H -16.463300 -42.937000 -12.236500
H -16.365800 -47.235200 -18.838900
C -16.336400 -44.271500 -13.661900
O -16.305700 -42.919900 -17.848700
C -16.250300 -45.292900 -18.248000
O -15.982100 -42.064700 -15.855300
C -15.966600 -43.072100 -16.528000
N -15.935300 -43.308800 -12.796100
C -15.760600 -45.441500 -16.900500
C -15.606000 -44.398300 -16.058800
O -15.466300 -46.726700 -16.579500
C -15.142400 -44.572200 -14.628000
C -14.842800 -46.976100 -15.383300
H -14.745200 -48.785800 -16.027000
C -14.663800 -46.003200 -14.455900
C -14.624700 -42.879200 -13.049600
N -14.465300 -48.253400 -15.330200
H -14.232800 -41.488400 -11.625700
C -14.102200 -43.576000 -14.135900
H -14.094900 -48.567400 -14.620000
C -13.988200 -46.354400 -13.262800
C -13.875900 -41.953100 -12.348100
N -13.446800 -46.647200 -12.304700
C -12.800900 -43.372900 -14.526200
C -12.571700 -41.744100 -12.763900
H -12.440100 -43.846500 -15.240100
H -12.046400 -41.120300 -12.316900
C -12.032100 -42.441100 -13.828700
H -11.150200 -42.288700 -14.082300
