38
Fragment
O -10.642300 -38.296300 -8.536300
H -10.622100 -38.477300 -16.558500
H -10.357400 -36.306800 -15.823000
C -10.344400 -38.318200 -15.684800
H -10.225200 -40.258300 -15.134000
C -10.170500 -37.013000 -15.249000
C -10.110700 -39.383400 -14.840900
C -9.722500 -36.756300 -13.970000
C -9.699100 -39.116300 -13.540500
H -9.684600 -40.177500 -7.086500
H -9.587100 -35.879300 -13.688900
C -9.557700 -38.843000 -8.511800
O -9.527000 -40.194600 -12.698600
C -9.471600 -37.821600 -13.097900
O -9.203400 -41.049800 -10.705200
C -9.187800 -40.042400 -11.377900
N -9.156600 -39.805700 -7.646100
C -8.981900 -37.673000 -11.750500
C -8.827300 -38.716200 -10.908800
O -8.687500 -36.387800 -11.429400
C -8.363600 -38.542300 -9.478000
C -8.064000 -36.138400 -10.233300
H -7.966500 -34.328700 -10.876900
C -7.885000 -37.111300 -9.305800
C -7.846000 -40.235300 -7.899600
N -7.686600 -34.861100 -10.180100
H -7.454100 -41.626100 -6.475700
C -7.323500 -39.538500 -8.985800
H -7.316200 -34.547100 -9.469900
C -7.209500 -36.760100 -8.112800
C -7.097100 -41.161400 -7.198000
N -6.668000 -36.467300 -7.154700
C -6.022100 -39.741600 -9.376100
C -5.793000 -41.370400 -7.613800
H -5.661400 -39.268000 -10.090000
H -5.267700 -41.994200 -7.166800
C -5.253300 -40.673400 -8.678700
H -4.371500 -40.825800 -8.932300
38
Fragment
H -7.551500 -30.415200 -11.668000
C -6.669600 -30.567600 -11.921600
H -6.655300 -29.246800 -13.433400
H -6.261600 -31.973000 -10.510200
C -6.130000 -29.870600 -12.986400
C -5.900800 -31.499400 -11.224100
N -5.255000 -34.773700 -13.445600
C -4.825800 -30.079600 -13.402200
C -4.713500 -34.480900 -12.487500
H -4.606800 -36.693900 -11.130300
C -4.599500 -31.702500 -11.614400
H -4.468900 -29.614900 -14.124600
N -4.236400 -36.379900 -10.420100
C -4.077000 -31.005700 -12.700700
C -4.037900 -34.129700 -11.294400
H -3.956500 -36.912300 -9.723300
C -3.858900 -35.102600 -10.367000
C -3.559400 -32.698700 -11.122300
O -3.235500 -34.853200 -9.170800
C -3.095700 -32.524800 -9.691500
C -2.941100 -33.568000 -8.849800
N -2.766400 -31.435300 -12.954100
C -2.735100 -31.198600 -9.222300
O -2.719600 -30.191200 -9.895000
C -2.451400 -33.419400 -7.502300
O -2.396000 -31.046400 -7.901600
C -2.365300 -32.398000 -12.088400
H -2.335900 -35.361700 -6.911400
H -2.238400 -31.063500 -13.513800
C -2.223900 -32.124700 -7.059700
C -2.200500 -34.484700 -6.630200
C -1.812300 -31.857600 -5.759300
C -1.752500 -34.228000 -5.351200
H -1.697700 -30.982700 -5.466300
C -1.578500 -32.922800 -4.915400
H -1.565500 -34.934200 -4.777200
H -1.300900 -32.763700 -4.041800
O -1.280700 -32.944700 -12.063900
76
Fragment
O -10.642300 -38.296300 -8.536300
H -10.622100 -38.477300 -16.558500
H -10.357400 -36.306800 -15.823000
C -10.344400 -38.318200 -15.684800
H -10.225200 -40.258300 -15.134000
C -10.170500 -37.013000 -15.249000
C -10.110700 -39.383400 -14.840900
C -9.722500 -36.756300 -13.970000
C -9.699100 -39.116300 -13.540500
H -9.684600 -40.177500 -7.086500
H -9.587100 -35.879300 -13.688900
C -9.557700 -38.843000 -8.511800
O -9.527000 -40.194600 -12.698600
C -9.471600 -37.821600 -13.097900
O -9.203400 -41.049800 -10.705200
C -9.187800 -40.042400 -11.377900
N -9.156600 -39.805700 -7.646100
C -8.981900 -37.673000 -11.750500
C -8.827300 -38.716200 -10.908800
O -8.687500 -36.387800 -11.429400
C -8.363600 -38.542300 -9.478000
C -8.064000 -36.138400 -10.233300
H -7.966500 -34.328700 -10.876900
C -7.885000 -37.111300 -9.305800
C -7.846000 -40.235300 -7.899600
N -7.686600 -34.861100 -10.180100
H -7.454100 -41.626100 -6.475700
C -7.323500 -39.538500 -8.985800
H -7.316200 -34.547100 -9.469900
C -7.209500 -36.760100 -8.112800
C -7.097100 -41.161400 -7.198000
N -6.668000 -36.467300 -7.154700
C -6.022100 -39.741600 -9.376100
C -5.793000 -41.370400 -7.613800
H -5.661400 -39.268000 -10.090000
H -5.267700 -41.994200 -7.166800
C -5.253300 -40.673400 -8.678700
H -4.371500 -40.825800 -8.932300
H -7.551500 -30.415200 -11.668000
C -6.669600 -30.567600 -11.921600
H -6.655300 -29.246800 -13.433400
H -6.261600 -31.973000 -10.510200
C -6.130000 -29.870600 -12.986400
C -5.900800 -31.499400 -11.224100
N -5.255000 -34.773700 -13.445600
C -4.825800 -30.079600 -13.402200
C -4.713500 -34.480900 -12.487500
H -4.606800 -36.693900 -11.130300
C -4.599500 -31.702500 -11.614400
H -4.468900 -29.614900 -14.124600
N -4.236400 -36.379900 -10.420100
C -4.077000 -31.005700 -12.700700
C -4.037900 -34.129700 -11.294400
H -3.956500 -36.912300 -9.723300
C -3.858900 -35.102600 -10.367000
C -3.559400 -32.698700 -11.122300
O -3.235500 -34.853200 -9.170800
C -3.095700 -32.524800 -9.691500
C -2.941100 -33.568000 -8.849800
N -2.766400 -31.435300 -12.954100
C -2.735100 -31.198600 -9.222300
O -2.719600 -30.191200 -9.895000
C -2.451400 -33.419400 -7.502300
O -2.396000 -31.046400 -7.901600
C -2.365300 -32.398000 -12.088400
H -2.335900 -35.361700 -6.911400
H -2.238400 -31.063500 -13.513800
C -2.223900 -32.124700 -7.059700
C -2.200500 -34.484700 -6.630200
C -1.812300 -31.857600 -5.759300
C -1.752500 -34.228000 -5.351200
H -1.697700 -30.982700 -5.466300
C -1.578500 -32.922800 -4.915400
H -1.565500 -34.934200 -4.777200
H -1.300900 -32.763700 -4.041800
O -1.280700 -32.944700 -12.063900
