48
Fragment
H -23.198300 -12.250300 -32.123700
H -22.649900 -12.819400 -30.769800
C -22.455100 -12.686500 -31.700300
H -22.301100 -13.535800 -32.119900
H -21.428300 -10.971800 -31.448700
C -21.245600 -11.842800 -31.835400
H -21.060400 -11.712100 -32.778600
H -20.884800 -12.740800 -29.413700
H -20.112600 -11.375800 -29.484400
C -20.081700 -12.310000 -29.745100
N -20.044100 -12.405300 -31.189600
H -18.915000 -10.772400 -31.360700
H -18.908300 -12.877400 -28.161200
C -18.866400 -12.965400 -29.126400
H -18.864400 -13.910800 -29.342200
C -18.860200 -11.700300 -31.638700
H -18.823400 -11.720100 -32.607700
N -17.626700 -12.347200 -29.621100
C -17.601300 -12.314600 -31.079500
H -17.506200 -13.217800 -31.419500
F -17.318000 -12.230100 -26.839800
H -16.833900 -11.800500 -31.375800
C -16.440100 -12.720600 -28.996200
C -16.296200 -12.705100 -27.588900
H -15.332700 -13.074800 -30.642200
C -15.298100 -13.066100 -29.712900
C -15.171700 -13.090100 -26.948800
H -15.154400 -13.111800 -26.019300
H -14.158000 -14.106100 -32.916400
C -14.101000 -13.398400 -29.073900
H -14.089900 -15.228400 -31.728200
C -14.028600 -13.456500 -27.675500
C -13.682200 -14.453600 -32.146000
H -13.032800 -12.549400 -31.559400
C -12.979500 -13.484400 -31.270700
N -12.957900 -13.685500 -29.826200
C -12.802900 -13.822200 -27.005400
O -12.736200 -13.894200 -25.746400
C -12.185800 -14.366800 -32.149700
C -11.810800 -13.984100 -29.206500
H -11.757700 -13.968400 -32.923600
H -11.689700 -15.090400 -31.735500
C -11.684500 -14.073200 -27.845000
H -11.149800 -14.378400 -25.759800
H -11.057000 -14.139100 -29.728600
C -10.344600 -14.400900 -27.296100
O -10.295400 -14.560500 -25.982800
O -9.354500 -14.514000 -27.973200
48
Fragment
H -36.897600 -12.250300 -32.123700
H -36.349200 -12.819400 -30.769800
C -36.154400 -12.686500 -31.700300
H -36.000400 -13.535800 -32.119900
H -35.127600 -10.971800 -31.448700
C -34.944900 -11.842800 -31.835400
H -34.759700 -11.712100 -32.778600
H -34.584100 -12.740800 -29.413700
H -33.811900 -11.375800 -29.484400
C -33.781000 -12.310000 -29.745100
N -33.743400 -12.405300 -31.189600
H -32.614300 -10.772400 -31.360700
H -32.607600 -12.877400 -28.161200
C -32.565700 -12.965400 -29.126400
H -32.563700 -13.910800 -29.342200
C -32.559500 -11.700300 -31.638700
H -32.522700 -11.720100 -32.607700
N -31.326000 -12.347200 -29.621100
C -31.300600 -12.314600 -31.079500
H -31.205500 -13.217800 -31.419500
F -31.017300 -12.230100 -26.839800
H -30.533200 -11.800500 -31.375800
C -30.139400 -12.720600 -28.996200
C -29.995500 -12.705100 -27.588900
H -29.032000 -13.074800 -30.642200
C -28.997400 -13.066100 -29.712900
C -28.871000 -13.090100 -26.948800
H -28.853700 -13.111800 -26.019300
H -27.857300 -14.106100 -32.916400
C -27.800300 -13.398400 -29.073900
H -27.789200 -15.228400 -31.728200
C -27.727900 -13.456500 -27.675500
C -27.381500 -14.453600 -32.146000
H -26.732100 -12.549400 -31.559400
C -26.678800 -13.484400 -31.270700
N -26.657200 -13.685500 -29.826200
C -26.502200 -13.822200 -27.005400
O -26.435500 -13.894200 -25.746400
C -25.885100 -14.366800 -32.149700
C -25.510100 -13.984100 -29.206500
H -25.457000 -13.968400 -32.923600
H -25.389000 -15.090400 -31.735500
C -25.383800 -14.073200 -27.845000
H -24.849100 -14.378400 -25.759800
H -24.756300 -14.139100 -29.728600
C -24.043900 -14.400900 -27.296100
O -23.994700 -14.560500 -25.982800
O -23.053800 -14.514000 -27.973200
96
Fragment
H -23.198300 -12.250300 -32.123700
H -22.649900 -12.819400 -30.769800
C -22.455100 -12.686500 -31.700300
H -22.301100 -13.535800 -32.119900
H -21.428300 -10.971800 -31.448700
C -21.245600 -11.842800 -31.835400
H -21.060400 -11.712100 -32.778600
H -20.884800 -12.740800 -29.413700
H -20.112600 -11.375800 -29.484400
C -20.081700 -12.310000 -29.745100
N -20.044100 -12.405300 -31.189600
H -18.915000 -10.772400 -31.360700
H -18.908300 -12.877400 -28.161200
C -18.866400 -12.965400 -29.126400
H -18.864400 -13.910800 -29.342200
C -18.860200 -11.700300 -31.638700
H -18.823400 -11.720100 -32.607700
N -17.626700 -12.347200 -29.621100
C -17.601300 -12.314600 -31.079500
H -17.506200 -13.217800 -31.419500
F -17.318000 -12.230100 -26.839800
H -16.833900 -11.800500 -31.375800
C -16.440100 -12.720600 -28.996200
C -16.296200 -12.705100 -27.588900
H -15.332700 -13.074800 -30.642200
C -15.298100 -13.066100 -29.712900
C -15.171700 -13.090100 -26.948800
H -15.154400 -13.111800 -26.019300
H -14.158000 -14.106100 -32.916400
C -14.101000 -13.398400 -29.073900
H -14.089900 -15.228400 -31.728200
C -14.028600 -13.456500 -27.675500
C -13.682200 -14.453600 -32.146000
H -13.032800 -12.549400 -31.559400
C -12.979500 -13.484400 -31.270700
N -12.957900 -13.685500 -29.826200
C -12.802900 -13.822200 -27.005400
O -12.736200 -13.894200 -25.746400
C -12.185800 -14.366800 -32.149700
C -11.810800 -13.984100 -29.206500
H -11.757700 -13.968400 -32.923600
H -11.689700 -15.090400 -31.735500
C -11.684500 -14.073200 -27.845000
H -11.149800 -14.378400 -25.759800
H -11.057000 -14.139100 -29.728600
C -10.344600 -14.400900 -27.296100
O -10.295400 -14.560500 -25.982800
O -9.354500 -14.514000 -27.973200
H -36.897600 -12.250300 -32.123700
H -36.349200 -12.819400 -30.769800
C -36.154400 -12.686500 -31.700300
H -36.000400 -13.535800 -32.119900
H -35.127600 -10.971800 -31.448700
C -34.944900 -11.842800 -31.835400
H -34.759700 -11.712100 -32.778600
H -34.584100 -12.740800 -29.413700
H -33.811900 -11.375800 -29.484400
C -33.781000 -12.310000 -29.745100
N -33.743400 -12.405300 -31.189600
H -32.614300 -10.772400 -31.360700
H -32.607600 -12.877400 -28.161200
C -32.565700 -12.965400 -29.126400
H -32.563700 -13.910800 -29.342200
C -32.559500 -11.700300 -31.638700
H -32.522700 -11.720100 -32.607700
N -31.326000 -12.347200 -29.621100
C -31.300600 -12.314600 -31.079500
H -31.205500 -13.217800 -31.419500
F -31.017300 -12.230100 -26.839800
H -30.533200 -11.800500 -31.375800
C -30.139400 -12.720600 -28.996200
C -29.995500 -12.705100 -27.588900
H -29.032000 -13.074800 -30.642200
C -28.997400 -13.066100 -29.712900
C -28.871000 -13.090100 -26.948800
H -28.853700 -13.111800 -26.019300
H -27.857300 -14.106100 -32.916400
C -27.800300 -13.398400 -29.073900
H -27.789200 -15.228400 -31.728200
C -27.727900 -13.456500 -27.675500
C -27.381500 -14.453600 -32.146000
H -26.732100 -12.549400 -31.559400
C -26.678800 -13.484400 -31.270700
N -26.657200 -13.685500 -29.826200
C -26.502200 -13.822200 -27.005400
O -26.435500 -13.894200 -25.746400
C -25.885100 -14.366800 -32.149700
C -25.510100 -13.984100 -29.206500
H -25.457000 -13.968400 -32.923600
H -25.389000 -15.090400 -31.735500
C -25.383800 -14.073200 -27.845000
H -24.849100 -14.378400 -25.759800
H -24.756300 -14.139100 -29.728600
C -24.043900 -14.400900 -27.296100
O -23.994700 -14.560500 -25.982800
O -23.053800 -14.514000 -27.973200
