48
Fragment
H -23.198300 -12.250300 -32.123700
H -22.649900 -12.819400 -30.769800
C -22.455100 -12.686500 -31.700300
H -22.301100 -13.535800 -32.119900
H -21.428300 -10.971800 -31.448700
C -21.245600 -11.842800 -31.835400
H -21.060400 -11.712100 -32.778600
H -20.884800 -12.740800 -29.413700
H -20.112600 -11.375800 -29.484400
C -20.081700 -12.310000 -29.745100
N -20.044100 -12.405300 -31.189600
H -18.915000 -10.772400 -31.360700
H -18.908300 -12.877400 -28.161200
C -18.866400 -12.965400 -29.126400
H -18.864400 -13.910800 -29.342200
C -18.860200 -11.700300 -31.638700
H -18.823400 -11.720100 -32.607700
N -17.626700 -12.347200 -29.621100
C -17.601300 -12.314600 -31.079500
H -17.506200 -13.217800 -31.419500
F -17.318000 -12.230100 -26.839800
H -16.833900 -11.800500 -31.375800
C -16.440100 -12.720600 -28.996200
C -16.296200 -12.705100 -27.588900
H -15.332700 -13.074800 -30.642200
C -15.298100 -13.066100 -29.712900
C -15.171700 -13.090100 -26.948800
H -15.154400 -13.111800 -26.019300
H -14.158000 -14.106100 -32.916400
C -14.101000 -13.398400 -29.073900
H -14.089900 -15.228400 -31.728200
C -14.028600 -13.456500 -27.675500
C -13.682200 -14.453600 -32.146000
H -13.032800 -12.549400 -31.559400
C -12.979500 -13.484400 -31.270700
N -12.957900 -13.685500 -29.826200
C -12.802900 -13.822200 -27.005400
O -12.736200 -13.894200 -25.746400
C -12.185800 -14.366800 -32.149700
C -11.810800 -13.984100 -29.206500
H -11.757700 -13.968400 -32.923600
H -11.689700 -15.090400 -31.735500
C -11.684500 -14.073200 -27.845000
H -11.149800 -14.378400 -25.759800
H -11.057000 -14.139100 -29.728600
C -10.344600 -14.400900 -27.296100
O -10.295400 -14.560500 -25.982800
O -9.354500 -14.514000 -27.973200
48
Fragment
O -18.455400 -16.474000 -28.226100
O -17.514500 -16.427500 -30.216400
C -17.465300 -16.587100 -28.903100
H -16.752800 -16.848900 -26.470600
H -16.660100 -16.609600 -30.439400
C -16.125400 -16.914800 -28.354200
H -16.120200 -15.897600 -24.463700
H -16.052200 -17.019600 -23.275700
C -15.999100 -17.003900 -26.992700
C -15.624100 -16.621200 -24.049500
O -15.073700 -17.093800 -30.452900
C -15.007000 -17.165800 -29.193800
N -14.852000 -17.302500 -26.373000
C -14.830400 -17.503600 -24.928500
H -14.777100 -18.438600 -24.639800
C -14.127700 -16.534400 -24.053300
C -13.781200 -17.531500 -28.523700
H -13.720000 -15.759600 -24.471000
C -13.708800 -17.589600 -27.125300
H -13.651900 -16.881900 -23.282800
H -12.655500 -17.876200 -30.179900
C -12.638100 -17.897900 -29.250400
C -12.511800 -17.921900 -26.486300
H -12.477100 -17.913200 -25.557000
C -11.513700 -18.282900 -28.610300
C -11.369800 -18.267400 -27.203000
H -10.976000 -19.187500 -24.823400
F -10.491800 -18.757900 -29.359400
H -10.303700 -17.770200 -24.779700
C -10.208600 -18.673400 -25.119700
N -10.183100 -18.640800 -26.578100
H -8.986500 -19.267900 -23.591500
C -8.949700 -19.287700 -24.560600
H -8.945500 -17.077200 -26.857000
C -8.943500 -18.022600 -27.072800
H -8.901600 -18.110600 -28.038000
H -8.894900 -20.215600 -24.838600
N -7.765800 -18.582700 -25.009600
C -7.728200 -18.678000 -26.454100
H -7.697200 -19.612200 -26.714900
H -6.925000 -18.247200 -26.785500
H -6.749500 -19.275900 -23.420600
C -6.564300 -19.145200 -24.363900
H -6.381600 -20.016200 -24.750500
H -5.508800 -17.452200 -24.079300
C -5.354700 -18.301500 -24.498900
H -5.159900 -18.168600 -25.429400
H -4.611500 -18.737700 -24.075600
96
Fragment
H -23.198300 -12.250300 -32.123700
H -22.649900 -12.819400 -30.769800
C -22.455100 -12.686500 -31.700300
H -22.301100 -13.535800 -32.119900
H -21.428300 -10.971800 -31.448700
C -21.245600 -11.842800 -31.835400
H -21.060400 -11.712100 -32.778600
H -20.884800 -12.740800 -29.413700
H -20.112600 -11.375800 -29.484400
C -20.081700 -12.310000 -29.745100
N -20.044100 -12.405300 -31.189600
H -18.915000 -10.772400 -31.360700
H -18.908300 -12.877400 -28.161200
C -18.866400 -12.965400 -29.126400
H -18.864400 -13.910800 -29.342200
C -18.860200 -11.700300 -31.638700
H -18.823400 -11.720100 -32.607700
N -17.626700 -12.347200 -29.621100
C -17.601300 -12.314600 -31.079500
H -17.506200 -13.217800 -31.419500
F -17.318000 -12.230100 -26.839800
H -16.833900 -11.800500 -31.375800
C -16.440100 -12.720600 -28.996200
C -16.296200 -12.705100 -27.588900
H -15.332700 -13.074800 -30.642200
C -15.298100 -13.066100 -29.712900
C -15.171700 -13.090100 -26.948800
H -15.154400 -13.111800 -26.019300
H -14.158000 -14.106100 -32.916400
C -14.101000 -13.398400 -29.073900
H -14.089900 -15.228400 -31.728200
C -14.028600 -13.456500 -27.675500
C -13.682200 -14.453600 -32.146000
H -13.032800 -12.549400 -31.559400
C -12.979500 -13.484400 -31.270700
N -12.957900 -13.685500 -29.826200
C -12.802900 -13.822200 -27.005400
O -12.736200 -13.894200 -25.746400
C -12.185800 -14.366800 -32.149700
C -11.810800 -13.984100 -29.206500
H -11.757700 -13.968400 -32.923600
H -11.689700 -15.090400 -31.735500
C -11.684500 -14.073200 -27.845000
H -11.149800 -14.378400 -25.759800
H -11.057000 -14.139100 -29.728600
C -10.344600 -14.400900 -27.296100
O -10.295400 -14.560500 -25.982800
O -9.354500 -14.514000 -27.973200
O -18.455400 -16.474000 -28.226100
O -17.514500 -16.427500 -30.216400
C -17.465300 -16.587100 -28.903100
H -16.752800 -16.848900 -26.470600
H -16.660100 -16.609600 -30.439400
C -16.125400 -16.914800 -28.354200
H -16.120200 -15.897600 -24.463700
H -16.052200 -17.019600 -23.275700
C -15.999100 -17.003900 -26.992700
C -15.624100 -16.621200 -24.049500
O -15.073700 -17.093800 -30.452900
C -15.007000 -17.165800 -29.193800
N -14.852000 -17.302500 -26.373000
C -14.830400 -17.503600 -24.928500
H -14.777100 -18.438600 -24.639800
C -14.127700 -16.534400 -24.053300
C -13.781200 -17.531500 -28.523700
H -13.720000 -15.759600 -24.471000
C -13.708800 -17.589600 -27.125300
H -13.651900 -16.881900 -23.282800
H -12.655500 -17.876200 -30.179900
C -12.638100 -17.897900 -29.250400
C -12.511800 -17.921900 -26.486300
H -12.477100 -17.913200 -25.557000
C -11.513700 -18.282900 -28.610300
C -11.369800 -18.267400 -27.203000
H -10.976000 -19.187500 -24.823400
F -10.491800 -18.757900 -29.359400
H -10.303700 -17.770200 -24.779700
C -10.208600 -18.673400 -25.119700
N -10.183100 -18.640800 -26.578100
H -8.986500 -19.267900 -23.591500
C -8.949700 -19.287700 -24.560600
H -8.945500 -17.077200 -26.857000
C -8.943500 -18.022600 -27.072800
H -8.901600 -18.110600 -28.038000
H -8.894900 -20.215600 -24.838600
N -7.765800 -18.582700 -25.009600
C -7.728200 -18.678000 -26.454100
H -7.697200 -19.612200 -26.714900
H -6.925000 -18.247200 -26.785500
H -6.749500 -19.275900 -23.420600
C -6.564300 -19.145200 -24.363900
H -6.381600 -20.016200 -24.750500
H -5.508800 -17.452200 -24.079300
C -5.354700 -18.301500 -24.498900
H -5.159900 -18.168600 -25.429400
H -4.611500 -18.737700 -24.075600
