48
Fragment
H -23.198300 -12.250300 -32.123700
H -22.649900 -12.819400 -30.769800
C -22.455100 -12.686500 -31.700300
H -22.301100 -13.535800 -32.119900
H -21.428300 -10.971800 -31.448700
C -21.245600 -11.842800 -31.835400
H -21.060400 -11.712100 -32.778600
H -20.884800 -12.740800 -29.413700
H -20.112600 -11.375800 -29.484400
C -20.081700 -12.310000 -29.745100
N -20.044100 -12.405300 -31.189600
H -18.915000 -10.772400 -31.360700
H -18.908300 -12.877400 -28.161200
C -18.866400 -12.965400 -29.126400
H -18.864400 -13.910800 -29.342200
C -18.860200 -11.700300 -31.638700
H -18.823400 -11.720100 -32.607700
N -17.626700 -12.347200 -29.621100
C -17.601300 -12.314600 -31.079500
H -17.506200 -13.217800 -31.419500
F -17.318000 -12.230100 -26.839800
H -16.833900 -11.800500 -31.375800
C -16.440100 -12.720600 -28.996200
C -16.296200 -12.705100 -27.588900
H -15.332700 -13.074800 -30.642200
C -15.298100 -13.066100 -29.712900
C -15.171700 -13.090100 -26.948800
H -15.154400 -13.111800 -26.019300
H -14.158000 -14.106100 -32.916400
C -14.101000 -13.398400 -29.073900
H -14.089900 -15.228400 -31.728200
C -14.028600 -13.456500 -27.675500
C -13.682200 -14.453600 -32.146000
H -13.032800 -12.549400 -31.559400
C -12.979500 -13.484400 -31.270700
N -12.957900 -13.685500 -29.826200
C -12.802900 -13.822200 -27.005400
O -12.736200 -13.894200 -25.746400
C -12.185800 -14.366800 -32.149700
C -11.810800 -13.984100 -29.206500
H -11.757700 -13.968400 -32.923600
H -11.689700 -15.090400 -31.735500
C -11.684500 -14.073200 -27.845000
H -11.149800 -14.378400 -25.759800
H -11.057000 -14.139100 -29.728600
C -10.344600 -14.400900 -27.296100
O -10.295400 -14.560500 -25.982800
O -9.354500 -14.514000 -27.973200
48
Fragment
O -16.240700 -10.640500 -37.592600
O -15.299800 -10.687000 -39.583000
C -15.250600 -10.527400 -38.269600
H -14.538200 -10.265600 -35.837100
H -14.445400 -10.504900 -39.805900
C -13.910700 -10.199700 -37.720700
H -13.905500 -11.216900 -33.830200
H -13.837500 -10.094900 -32.642200
C -13.784400 -10.110600 -36.359200
C -13.409400 -10.493300 -33.416100
O -12.859000 -10.020700 -39.819400
C -12.792300 -9.948700 -38.560300
N -12.637300 -9.812000 -35.739500
C -12.615700 -9.610900 -34.295000
H -12.562400 -8.675900 -34.006300
C -11.913000 -10.580100 -33.419800
C -11.566600 -9.583000 -37.890300
H -11.505300 -11.354900 -33.837500
C -11.494200 -9.524900 -36.491800
H -11.437200 -10.232600 -32.649300
H -10.440800 -9.238300 -39.546500
C -10.423500 -9.216600 -38.616900
C -10.297100 -9.192600 -35.852900
H -10.262400 -9.201300 -34.923500
C -9.299000 -8.831600 -37.976800
C -9.155100 -8.847100 -36.569600
H -8.761300 -7.927000 -34.189900
F -8.277200 -8.356600 -38.725900
H -8.089000 -9.344300 -34.146300
C -7.993900 -8.441100 -34.486300
N -7.968400 -8.473700 -35.944600
H -6.771800 -7.846600 -32.958000
C -6.735000 -7.826800 -33.927100
H -6.730800 -10.037300 -36.223600
C -6.728800 -9.091900 -36.439400
H -6.686900 -9.003900 -37.404500
H -6.680200 -6.898900 -34.205100
N -5.551100 -8.531800 -34.376100
C -5.513500 -8.436500 -35.820600
H -5.482600 -7.502300 -36.081400
H -4.710300 -8.867300 -36.152000
H -4.534800 -7.838600 -32.787200
C -4.349600 -7.969300 -33.730400
H -4.166900 -7.098300 -34.117000
H -3.294100 -9.662300 -33.445800
C -3.140100 -8.813000 -33.865500
H -2.945300 -8.945900 -34.795900
H -2.396800 -8.376800 -33.442100
96
Fragment
H -23.198300 -12.250300 -32.123700
H -22.649900 -12.819400 -30.769800
C -22.455100 -12.686500 -31.700300
H -22.301100 -13.535800 -32.119900
H -21.428300 -10.971800 -31.448700
C -21.245600 -11.842800 -31.835400
H -21.060400 -11.712100 -32.778600
H -20.884800 -12.740800 -29.413700
H -20.112600 -11.375800 -29.484400
C -20.081700 -12.310000 -29.745100
N -20.044100 -12.405300 -31.189600
H -18.915000 -10.772400 -31.360700
H -18.908300 -12.877400 -28.161200
C -18.866400 -12.965400 -29.126400
H -18.864400 -13.910800 -29.342200
C -18.860200 -11.700300 -31.638700
H -18.823400 -11.720100 -32.607700
N -17.626700 -12.347200 -29.621100
C -17.601300 -12.314600 -31.079500
H -17.506200 -13.217800 -31.419500
F -17.318000 -12.230100 -26.839800
H -16.833900 -11.800500 -31.375800
C -16.440100 -12.720600 -28.996200
C -16.296200 -12.705100 -27.588900
H -15.332700 -13.074800 -30.642200
C -15.298100 -13.066100 -29.712900
C -15.171700 -13.090100 -26.948800
H -15.154400 -13.111800 -26.019300
H -14.158000 -14.106100 -32.916400
C -14.101000 -13.398400 -29.073900
H -14.089900 -15.228400 -31.728200
C -14.028600 -13.456500 -27.675500
C -13.682200 -14.453600 -32.146000
H -13.032800 -12.549400 -31.559400
C -12.979500 -13.484400 -31.270700
N -12.957900 -13.685500 -29.826200
C -12.802900 -13.822200 -27.005400
O -12.736200 -13.894200 -25.746400
C -12.185800 -14.366800 -32.149700
C -11.810800 -13.984100 -29.206500
H -11.757700 -13.968400 -32.923600
H -11.689700 -15.090400 -31.735500
C -11.684500 -14.073200 -27.845000
H -11.149800 -14.378400 -25.759800
H -11.057000 -14.139100 -29.728600
C -10.344600 -14.400900 -27.296100
O -10.295400 -14.560500 -25.982800
O -9.354500 -14.514000 -27.973200
O -16.240700 -10.640500 -37.592600
O -15.299800 -10.687000 -39.583000
C -15.250600 -10.527400 -38.269600
H -14.538200 -10.265600 -35.837100
H -14.445400 -10.504900 -39.805900
C -13.910700 -10.199700 -37.720700
H -13.905500 -11.216900 -33.830200
H -13.837500 -10.094900 -32.642200
C -13.784400 -10.110600 -36.359200
C -13.409400 -10.493300 -33.416100
O -12.859000 -10.020700 -39.819400
C -12.792300 -9.948700 -38.560300
N -12.637300 -9.812000 -35.739500
C -12.615700 -9.610900 -34.295000
H -12.562400 -8.675900 -34.006300
C -11.913000 -10.580100 -33.419800
C -11.566600 -9.583000 -37.890300
H -11.505300 -11.354900 -33.837500
C -11.494200 -9.524900 -36.491800
H -11.437200 -10.232600 -32.649300
H -10.440800 -9.238300 -39.546500
C -10.423500 -9.216600 -38.616900
C -10.297100 -9.192600 -35.852900
H -10.262400 -9.201300 -34.923500
C -9.299000 -8.831600 -37.976800
C -9.155100 -8.847100 -36.569600
H -8.761300 -7.927000 -34.189900
F -8.277200 -8.356600 -38.725900
H -8.089000 -9.344300 -34.146300
C -7.993900 -8.441100 -34.486300
N -7.968400 -8.473700 -35.944600
H -6.771800 -7.846600 -32.958000
C -6.735000 -7.826800 -33.927100
H -6.730800 -10.037300 -36.223600
C -6.728800 -9.091900 -36.439400
H -6.686900 -9.003900 -37.404500
H -6.680200 -6.898900 -34.205100
N -5.551100 -8.531800 -34.376100
C -5.513500 -8.436500 -35.820600
H -5.482600 -7.502300 -36.081400
H -4.710300 -8.867300 -36.152000
H -4.534800 -7.838600 -32.787200
C -4.349600 -7.969300 -33.730400
H -4.166900 -7.098300 -34.117000
H -3.294100 -9.662300 -33.445800
C -3.140100 -8.813000 -33.865500
H -2.945300 -8.945900 -34.795900
H -2.396800 -8.376800 -33.442100
