48
Fragment
H -23.198300 -12.250300 -32.123700
H -22.649900 -12.819400 -30.769800
C -22.455100 -12.686500 -31.700300
H -22.301100 -13.535800 -32.119900
H -21.428300 -10.971800 -31.448700
C -21.245600 -11.842800 -31.835400
H -21.060400 -11.712100 -32.778600
H -20.884800 -12.740800 -29.413700
H -20.112600 -11.375800 -29.484400
C -20.081700 -12.310000 -29.745100
N -20.044100 -12.405300 -31.189600
H -18.915000 -10.772400 -31.360700
H -18.908300 -12.877400 -28.161200
C -18.866400 -12.965400 -29.126400
H -18.864400 -13.910800 -29.342200
C -18.860200 -11.700300 -31.638700
H -18.823400 -11.720100 -32.607700
N -17.626700 -12.347200 -29.621100
C -17.601300 -12.314600 -31.079500
H -17.506200 -13.217800 -31.419500
F -17.318000 -12.230100 -26.839800
H -16.833900 -11.800500 -31.375800
C -16.440100 -12.720600 -28.996200
C -16.296200 -12.705100 -27.588900
H -15.332700 -13.074800 -30.642200
C -15.298100 -13.066100 -29.712900
C -15.171700 -13.090100 -26.948800
H -15.154400 -13.111800 -26.019300
H -14.158000 -14.106100 -32.916400
C -14.101000 -13.398400 -29.073900
H -14.089900 -15.228400 -31.728200
C -14.028600 -13.456500 -27.675500
C -13.682200 -14.453600 -32.146000
H -13.032800 -12.549400 -31.559400
C -12.979500 -13.484400 -31.270700
N -12.957900 -13.685500 -29.826200
C -12.802900 -13.822200 -27.005400
O -12.736200 -13.894200 -25.746400
C -12.185800 -14.366800 -32.149700
C -11.810800 -13.984100 -29.206500
H -11.757700 -13.968400 -32.923600
H -11.689700 -15.090400 -31.735500
C -11.684500 -14.073200 -27.845000
H -11.149800 -14.378400 -25.759800
H -11.057000 -14.139100 -29.728600
C -10.344600 -14.400900 -27.296100
O -10.295400 -14.560500 -25.982800
O -9.354500 -14.514000 -27.973200
48
Fragment
H -20.983700 -14.864200 -41.490200
H -20.435200 -14.295100 -40.136400
C -20.240400 -14.428000 -41.066800
H -20.086400 -13.578700 -41.486400
H -19.213600 -16.142700 -40.815200
C -19.030900 -15.271700 -41.201900
H -18.845700 -15.402400 -42.145100
H -18.670200 -14.373700 -38.780300
H -17.898000 -15.738700 -38.850900
C -17.867000 -14.804500 -39.111700
N -17.829400 -14.709200 -40.556200
H -16.700300 -16.342100 -40.727200
H -16.693600 -14.237100 -37.527800
C -16.651700 -14.149100 -38.492900
H -16.649700 -13.203700 -38.708700
C -16.645500 -15.414200 -41.005200
H -16.608700 -15.394400 -41.974300
N -15.412100 -14.767300 -38.987600
C -15.386600 -14.799900 -40.446000
H -15.291500 -13.896700 -40.786000
F -15.103400 -14.884400 -36.206300
H -14.619200 -15.314000 -40.742400
C -14.225400 -14.393900 -38.362700
C -14.081500 -14.409400 -36.955500
H -13.118100 -14.039700 -40.008800
C -13.083400 -14.048400 -39.079400
C -12.957100 -14.024400 -36.315400
H -12.939700 -14.002700 -35.385800
H -11.943300 -13.008400 -42.283000
C -11.886300 -13.716100 -38.440500
H -11.875200 -11.886100 -41.094700
C -11.814000 -13.658000 -37.042000
C -11.467500 -12.660900 -41.512500
H -10.818100 -14.565100 -40.926000
C -10.764800 -13.630100 -40.637300
N -10.743200 -13.429000 -39.192800
C -10.588200 -13.292300 -36.371900
O -10.521500 -13.220300 -35.112900
C -9.971100 -12.747700 -41.516200
C -9.596100 -13.130400 -38.573100
H -9.543000 -13.146100 -42.290100
H -9.475000 -12.024100 -41.102000
C -9.469800 -13.041300 -37.211600
H -8.935100 -12.736100 -35.126400
H -8.842400 -12.975400 -39.095200
C -8.129900 -12.713600 -36.662700
O -8.080700 -12.554000 -35.349300
O -7.139800 -12.600500 -37.339700
96
Fragment
H -23.198300 -12.250300 -32.123700
H -22.649900 -12.819400 -30.769800
C -22.455100 -12.686500 -31.700300
H -22.301100 -13.535800 -32.119900
H -21.428300 -10.971800 -31.448700
C -21.245600 -11.842800 -31.835400
H -21.060400 -11.712100 -32.778600
H -20.884800 -12.740800 -29.413700
H -20.112600 -11.375800 -29.484400
C -20.081700 -12.310000 -29.745100
N -20.044100 -12.405300 -31.189600
H -18.915000 -10.772400 -31.360700
H -18.908300 -12.877400 -28.161200
C -18.866400 -12.965400 -29.126400
H -18.864400 -13.910800 -29.342200
C -18.860200 -11.700300 -31.638700
H -18.823400 -11.720100 -32.607700
N -17.626700 -12.347200 -29.621100
C -17.601300 -12.314600 -31.079500
H -17.506200 -13.217800 -31.419500
F -17.318000 -12.230100 -26.839800
H -16.833900 -11.800500 -31.375800
C -16.440100 -12.720600 -28.996200
C -16.296200 -12.705100 -27.588900
H -15.332700 -13.074800 -30.642200
C -15.298100 -13.066100 -29.712900
C -15.171700 -13.090100 -26.948800
H -15.154400 -13.111800 -26.019300
H -14.158000 -14.106100 -32.916400
C -14.101000 -13.398400 -29.073900
H -14.089900 -15.228400 -31.728200
C -14.028600 -13.456500 -27.675500
C -13.682200 -14.453600 -32.146000
H -13.032800 -12.549400 -31.559400
C -12.979500 -13.484400 -31.270700
N -12.957900 -13.685500 -29.826200
C -12.802900 -13.822200 -27.005400
O -12.736200 -13.894200 -25.746400
C -12.185800 -14.366800 -32.149700
C -11.810800 -13.984100 -29.206500
H -11.757700 -13.968400 -32.923600
H -11.689700 -15.090400 -31.735500
C -11.684500 -14.073200 -27.845000
H -11.149800 -14.378400 -25.759800
H -11.057000 -14.139100 -29.728600
C -10.344600 -14.400900 -27.296100
O -10.295400 -14.560500 -25.982800
O -9.354500 -14.514000 -27.973200
H -20.983700 -14.864200 -41.490200
H -20.435200 -14.295100 -40.136400
C -20.240400 -14.428000 -41.066800
H -20.086400 -13.578700 -41.486400
H -19.213600 -16.142700 -40.815200
C -19.030900 -15.271700 -41.201900
H -18.845700 -15.402400 -42.145100
H -18.670200 -14.373700 -38.780300
H -17.898000 -15.738700 -38.850900
C -17.867000 -14.804500 -39.111700
N -17.829400 -14.709200 -40.556200
H -16.700300 -16.342100 -40.727200
H -16.693600 -14.237100 -37.527800
C -16.651700 -14.149100 -38.492900
H -16.649700 -13.203700 -38.708700
C -16.645500 -15.414200 -41.005200
H -16.608700 -15.394400 -41.974300
N -15.412100 -14.767300 -38.987600
C -15.386600 -14.799900 -40.446000
H -15.291500 -13.896700 -40.786000
F -15.103400 -14.884400 -36.206300
H -14.619200 -15.314000 -40.742400
C -14.225400 -14.393900 -38.362700
C -14.081500 -14.409400 -36.955500
H -13.118100 -14.039700 -40.008800
C -13.083400 -14.048400 -39.079400
C -12.957100 -14.024400 -36.315400
H -12.939700 -14.002700 -35.385800
H -11.943300 -13.008400 -42.283000
C -11.886300 -13.716100 -38.440500
H -11.875200 -11.886100 -41.094700
C -11.814000 -13.658000 -37.042000
C -11.467500 -12.660900 -41.512500
H -10.818100 -14.565100 -40.926000
C -10.764800 -13.630100 -40.637300
N -10.743200 -13.429000 -39.192800
C -10.588200 -13.292300 -36.371900
O -10.521500 -13.220300 -35.112900
C -9.971100 -12.747700 -41.516200
C -9.596100 -13.130400 -38.573100
H -9.543000 -13.146100 -42.290100
H -9.475000 -12.024100 -41.102000
C -9.469800 -13.041300 -37.211600
H -8.935100 -12.736100 -35.126400
H -8.842400 -12.975400 -39.095200
C -8.129900 -12.713600 -36.662700
O -8.080700 -12.554000 -35.349300
O -7.139800 -12.600500 -37.339700
