27
Fragment
H -17.272300 -8.732400 -27.565300
N -16.500700 -9.066400 -27.880100
H -16.305800 -9.052200 -28.821200
H -15.988800 -9.350600 -23.270700
N -15.774000 -9.332800 -25.725300
C -15.519100 -9.407400 -27.042900
N -15.150500 -9.633400 -23.542400
C -14.835100 -9.720100 -24.841600
H -14.542400 -9.897700 -22.934700
C -14.271700 -9.835200 -27.549200
H -14.109000 -9.861400 -28.464000
C -13.554800 -10.176900 -25.268400
C -13.315600 -10.206800 -26.654200
N -12.672900 -10.617400 -23.212800
N -12.491200 -10.562000 -24.475400
H -12.488700 -11.549000 -20.848500
H -12.485200 -10.487400 -26.966700
C -11.638900 -11.452300 -21.214500
C -11.493500 -10.974100 -22.501900
H -10.624700 -12.114500 -19.602400
C -10.520000 -11.789800 -20.467600
C -10.217100 -10.829900 -23.024700
H -10.103800 -10.504500 -23.888800
C -9.266900 -11.649800 -20.988000
C -9.112900 -11.167400 -22.267500
H -8.521600 -11.879400 -20.481500
H -8.259600 -11.067900 -22.624800
16
Fragment
H -18.364100 -12.121600 -15.612700
O -17.815100 -12.012900 -18.136200
N -17.504800 -11.752900 -15.876500
C -17.104900 -11.706700 -17.197300
O -16.583100 -11.374200 -13.798100
C -16.490100 -11.384100 -15.014600
C -15.695600 -11.232100 -17.185300
C -15.323200 -11.036000 -15.863400
H -15.051200 -11.168800 -19.108100
C -14.808500 -11.023900 -18.222000
C -14.063800 -10.611100 -15.529100
H -13.818700 -10.480300 -14.642200
C -13.533200 -10.588300 -17.878000
C -13.172600 -10.385100 -16.561000
H -12.909800 -10.430600 -18.550300
H -12.313100 -10.089500 -16.364700
43
Fragment
H -17.272300 -8.732400 -27.565300
N -16.500700 -9.066400 -27.880100
H -16.305800 -9.052200 -28.821200
H -15.988800 -9.350600 -23.270700
N -15.774000 -9.332800 -25.725300
C -15.519100 -9.407400 -27.042900
N -15.150500 -9.633400 -23.542400
C -14.835100 -9.720100 -24.841600
H -14.542400 -9.897700 -22.934700
C -14.271700 -9.835200 -27.549200
H -14.109000 -9.861400 -28.464000
C -13.554800 -10.176900 -25.268400
C -13.315600 -10.206800 -26.654200
N -12.672900 -10.617400 -23.212800
N -12.491200 -10.562000 -24.475400
H -12.488700 -11.549000 -20.848500
H -12.485200 -10.487400 -26.966700
C -11.638900 -11.452300 -21.214500
C -11.493500 -10.974100 -22.501900
H -10.624700 -12.114500 -19.602400
C -10.520000 -11.789800 -20.467600
C -10.217100 -10.829900 -23.024700
H -10.103800 -10.504500 -23.888800
C -9.266900 -11.649800 -20.988000
C -9.112900 -11.167400 -22.267500
H -8.521600 -11.879400 -20.481500
H -8.259600 -11.067900 -22.624800
H -18.364100 -12.121600 -15.612700
O -17.815100 -12.012900 -18.136200
N -17.504800 -11.752900 -15.876500
C -17.104900 -11.706700 -17.197300
O -16.583100 -11.374200 -13.798100
C -16.490100 -11.384100 -15.014600
C -15.695600 -11.232100 -17.185300
C -15.323200 -11.036000 -15.863400
H -15.051200 -11.168800 -19.108100
C -14.808500 -11.023900 -18.222000
C -14.063800 -10.611100 -15.529100
H -13.818700 -10.480300 -14.642200
C -13.533200 -10.588300 -17.878000
C -13.172600 -10.385100 -16.561000
H -12.909800 -10.430600 -18.550300
H -12.313100 -10.089500 -16.364700
