27
Fragment
H -10.444200 -16.869100 -17.158100
H -9.955300 -16.276400 -18.574200
H -9.827500 -14.837800 -16.354000
C -9.672700 -16.489000 -17.649500
C -9.135900 -15.236500 -16.939400
H -8.840100 -14.556400 -17.595400
H -8.808000 -18.406600 -17.712900
C -8.494300 -17.469800 -17.653600
H -8.296700 -17.688600 -15.582600
N -7.993700 -15.736600 -16.144600
H -7.878100 -17.286400 -18.406600
C -7.825100 -17.196400 -16.314200
C -6.790800 -15.120900 -16.195600
N -6.608500 -13.831400 -16.218100
C -6.301500 -17.415100 -16.215100
H -6.060100 -17.891400 -15.380300
H -5.959800 -17.925800 -16.991600
N -5.788600 -16.041800 -16.212100
H -5.714300 -11.485100 -16.754500
H -5.303300 -11.628900 -15.214800
C -5.302300 -13.415900 -16.213000
C -5.108300 -11.931400 -16.126200
C -4.448800 -15.689800 -16.245700
C -4.246100 -14.275000 -16.228300
H -4.181500 -11.709200 -16.353000
O -3.579100 -16.555900 -16.283500
H -3.362100 -13.929300 -16.228300
3
Fragment
H -6.599900 -20.692800 -15.369800
O -6.228600 -21.330500 -15.902100
H -5.382800 -21.283800 -15.737600
30
Fragment
H -10.444200 -16.869100 -17.158100
H -9.955300 -16.276400 -18.574200
H -9.827500 -14.837800 -16.354000
C -9.672700 -16.489000 -17.649500
C -9.135900 -15.236500 -16.939400
H -8.840100 -14.556400 -17.595400
H -8.808000 -18.406600 -17.712900
C -8.494300 -17.469800 -17.653600
H -8.296700 -17.688600 -15.582600
N -7.993700 -15.736600 -16.144600
H -7.878100 -17.286400 -18.406600
C -7.825100 -17.196400 -16.314200
C -6.790800 -15.120900 -16.195600
N -6.608500 -13.831400 -16.218100
C -6.301500 -17.415100 -16.215100
H -6.060100 -17.891400 -15.380300
H -5.959800 -17.925800 -16.991600
N -5.788600 -16.041800 -16.212100
H -5.714300 -11.485100 -16.754500
H -5.303300 -11.628900 -15.214800
C -5.302300 -13.415900 -16.213000
C -5.108300 -11.931400 -16.126200
C -4.448800 -15.689800 -16.245700
C -4.246100 -14.275000 -16.228300
H -4.181500 -11.709200 -16.353000
O -3.579100 -16.555900 -16.283500
H -3.362100 -13.929300 -16.228300
H -6.599900 -20.692800 -15.369800
O -6.228600 -21.330500 -15.902100
H -5.382800 -21.283800 -15.737600
