27
Fragment
H -10.444200 -16.869100 -17.158100
H -9.955300 -16.276400 -18.574200
H -9.827500 -14.837800 -16.354000
C -9.672700 -16.489000 -17.649500
C -9.135900 -15.236500 -16.939400
H -8.840100 -14.556400 -17.595400
H -8.808000 -18.406600 -17.712900
C -8.494300 -17.469800 -17.653600
H -8.296700 -17.688600 -15.582600
N -7.993700 -15.736600 -16.144600
H -7.878100 -17.286400 -18.406600
C -7.825100 -17.196400 -16.314200
C -6.790800 -15.120900 -16.195600
N -6.608500 -13.831400 -16.218100
C -6.301500 -17.415100 -16.215100
H -6.060100 -17.891400 -15.380300
H -5.959800 -17.925800 -16.991600
N -5.788600 -16.041800 -16.212100
H -5.714300 -11.485100 -16.754500
H -5.303300 -11.628900 -15.214800
C -5.302300 -13.415900 -16.213000
C -5.108300 -11.931400 -16.126200
C -4.448800 -15.689800 -16.245700
C -4.246100 -14.275000 -16.228300
H -4.181500 -11.709200 -16.353000
O -3.579100 -16.555900 -16.283500
H -3.362100 -13.929300 -16.228300
27
Fragment
H -15.536700 -25.689600 -17.158100
H -15.047800 -25.096900 -18.574200
H -14.920000 -23.658300 -16.354000
C -14.765200 -25.309500 -17.649500
C -14.228400 -24.056900 -16.939400
H -13.932600 -23.376900 -17.595400
H -13.900500 -27.227000 -17.712900
C -13.586800 -26.290300 -17.653600
H -13.389200 -26.509000 -15.582600
N -13.086200 -24.557100 -16.144600
H -12.970600 -26.106800 -18.406600
C -12.917600 -26.016900 -16.314200
C -11.883300 -23.941400 -16.195600
N -11.701000 -22.651800 -16.218100
C -11.394000 -26.235600 -16.215100
H -11.152600 -26.711900 -15.380300
H -11.052300 -26.746300 -16.991600
N -10.881100 -24.862300 -16.212100
H -10.806800 -20.305600 -16.754500
H -10.395800 -20.449400 -15.214800
C -10.394800 -22.236400 -16.213000
C -10.200800 -20.751900 -16.126200
C -9.541300 -24.510300 -16.245700
C -9.338600 -23.095500 -16.228300
H -9.274000 -20.529600 -16.353000
O -8.671600 -25.376400 -16.283500
H -8.454600 -22.749800 -16.228300
54
Fragment
H -10.444200 -16.869100 -17.158100
H -9.955300 -16.276400 -18.574200
H -9.827500 -14.837800 -16.354000
C -9.672700 -16.489000 -17.649500
C -9.135900 -15.236500 -16.939400
H -8.840100 -14.556400 -17.595400
H -8.808000 -18.406600 -17.712900
C -8.494300 -17.469800 -17.653600
H -8.296700 -17.688600 -15.582600
N -7.993700 -15.736600 -16.144600
H -7.878100 -17.286400 -18.406600
C -7.825100 -17.196400 -16.314200
C -6.790800 -15.120900 -16.195600
N -6.608500 -13.831400 -16.218100
C -6.301500 -17.415100 -16.215100
H -6.060100 -17.891400 -15.380300
H -5.959800 -17.925800 -16.991600
N -5.788600 -16.041800 -16.212100
H -5.714300 -11.485100 -16.754500
H -5.303300 -11.628900 -15.214800
C -5.302300 -13.415900 -16.213000
C -5.108300 -11.931400 -16.126200
C -4.448800 -15.689800 -16.245700
C -4.246100 -14.275000 -16.228300
H -4.181500 -11.709200 -16.353000
O -3.579100 -16.555900 -16.283500
H -3.362100 -13.929300 -16.228300
H -15.536700 -25.689600 -17.158100
H -15.047800 -25.096900 -18.574200
H -14.920000 -23.658300 -16.354000
C -14.765200 -25.309500 -17.649500
C -14.228400 -24.056900 -16.939400
H -13.932600 -23.376900 -17.595400
H -13.900500 -27.227000 -17.712900
C -13.586800 -26.290300 -17.653600
H -13.389200 -26.509000 -15.582600
N -13.086200 -24.557100 -16.144600
H -12.970600 -26.106800 -18.406600
C -12.917600 -26.016900 -16.314200
C -11.883300 -23.941400 -16.195600
N -11.701000 -22.651800 -16.218100
C -11.394000 -26.235600 -16.215100
H -11.152600 -26.711900 -15.380300
H -11.052300 -26.746300 -16.991600
N -10.881100 -24.862300 -16.212100
H -10.806800 -20.305600 -16.754500
H -10.395800 -20.449400 -15.214800
C -10.394800 -22.236400 -16.213000
C -10.200800 -20.751900 -16.126200
C -9.541300 -24.510300 -16.245700
C -9.338600 -23.095500 -16.228300
H -9.274000 -20.529600 -16.353000
O -8.671600 -25.376400 -16.283500
H -8.454600 -22.749800 -16.228300
