27
Fragment
H -17.272300 -8.732400 -27.565300
N -16.500700 -9.066400 -27.880100
H -16.305800 -9.052200 -28.821200
H -15.988800 -9.350600 -23.270700
N -15.774000 -9.332800 -25.725300
C -15.519100 -9.407400 -27.042900
N -15.150500 -9.633400 -23.542400
C -14.835100 -9.720100 -24.841600
H -14.542400 -9.897700 -22.934700
C -14.271700 -9.835200 -27.549200
H -14.109000 -9.861400 -28.464000
C -13.554800 -10.176900 -25.268400
C -13.315600 -10.206800 -26.654200
N -12.672900 -10.617400 -23.212800
N -12.491200 -10.562000 -24.475400
H -12.488700 -11.549000 -20.848500
H -12.485200 -10.487400 -26.966700
C -11.638900 -11.452300 -21.214500
C -11.493500 -10.974100 -22.501900
H -10.624700 -12.114500 -19.602400
C -10.520000 -11.789800 -20.467600
C -10.217100 -10.829900 -23.024700
H -10.103800 -10.504500 -23.888800
C -9.266900 -11.649800 -20.988000
C -9.112900 -11.167400 -22.267500
H -8.521600 -11.879400 -20.481500
H -8.259600 -11.067900 -22.624800
27
Fragment
H -12.130400 -14.620600 -18.152300
H -11.868400 -15.432000 -20.295600
C -11.277200 -14.720100 -18.509500
C -11.123200 -15.202500 -19.789100
H -10.286300 -14.057100 -16.888200
C -10.173000 -14.382500 -17.752400
C -9.870100 -15.342500 -20.309400
H -9.765400 -15.667200 -21.174700
C -8.896600 -14.526800 -18.275100
C -8.751100 -15.005000 -19.562600
H -7.904800 -14.040100 -13.810400
H -7.901300 -15.101600 -19.928600
N -7.898900 -14.114700 -16.301700
N -7.717200 -14.170100 -17.564300
C -7.074500 -13.759400 -14.122900
C -6.835300 -13.729600 -15.508700
H -6.281100 -13.414100 -12.313000
C -6.118400 -13.387800 -13.227900
H -5.847700 -13.450300 -17.842400
C -5.555000 -13.272700 -15.935500
N -5.239600 -13.186000 -17.234700
C -4.871000 -12.960100 -13.734200
N -4.616100 -12.885500 -15.051800
H -4.401300 -12.903200 -17.506400
H -4.084300 -12.604800 -11.955800
N -3.889400 -12.619000 -12.897000
H -3.117700 -12.285100 -13.211800
54
Fragment
H -17.272300 -8.732400 -27.565300
N -16.500700 -9.066400 -27.880100
H -16.305800 -9.052200 -28.821200
H -15.988800 -9.350600 -23.270700
N -15.774000 -9.332800 -25.725300
C -15.519100 -9.407400 -27.042900
N -15.150500 -9.633400 -23.542400
C -14.835100 -9.720100 -24.841600
H -14.542400 -9.897700 -22.934700
C -14.271700 -9.835200 -27.549200
H -14.109000 -9.861400 -28.464000
C -13.554800 -10.176900 -25.268400
C -13.315600 -10.206800 -26.654200
N -12.672900 -10.617400 -23.212800
N -12.491200 -10.562000 -24.475400
H -12.488700 -11.549000 -20.848500
H -12.485200 -10.487400 -26.966700
C -11.638900 -11.452300 -21.214500
C -11.493500 -10.974100 -22.501900
H -10.624700 -12.114500 -19.602400
C -10.520000 -11.789800 -20.467600
C -10.217100 -10.829900 -23.024700
H -10.103800 -10.504500 -23.888800
C -9.266900 -11.649800 -20.988000
C -9.112900 -11.167400 -22.267500
H -8.521600 -11.879400 -20.481500
H -8.259600 -11.067900 -22.624800
H -12.130400 -14.620600 -18.152300
H -11.868400 -15.432000 -20.295600
C -11.277200 -14.720100 -18.509500
C -11.123200 -15.202500 -19.789100
H -10.286300 -14.057100 -16.888200
C -10.173000 -14.382500 -17.752400
C -9.870100 -15.342500 -20.309400
H -9.765400 -15.667200 -21.174700
C -8.896600 -14.526800 -18.275100
C -8.751100 -15.005000 -19.562600
H -7.904800 -14.040100 -13.810400
H -7.901300 -15.101600 -19.928600
N -7.898900 -14.114700 -16.301700
N -7.717200 -14.170100 -17.564300
C -7.074500 -13.759400 -14.122900
C -6.835300 -13.729600 -15.508700
H -6.281100 -13.414100 -12.313000
C -6.118400 -13.387800 -13.227900
H -5.847700 -13.450300 -17.842400
C -5.555000 -13.272700 -15.935500
N -5.239600 -13.186000 -17.234700
C -4.871000 -12.960100 -13.734200
N -4.616100 -12.885500 -15.051800
H -4.401300 -12.903200 -17.506400
H -4.084300 -12.604800 -11.955800
N -3.889400 -12.619000 -12.897000
H -3.117700 -12.285100 -13.211800
