27
Fragment
H -17.272300 -8.732400 -27.565300
N -16.500700 -9.066400 -27.880100
H -16.305800 -9.052200 -28.821200
H -15.988800 -9.350600 -23.270700
N -15.774000 -9.332800 -25.725300
C -15.519100 -9.407400 -27.042900
N -15.150500 -9.633400 -23.542400
C -14.835100 -9.720100 -24.841600
H -14.542400 -9.897700 -22.934700
C -14.271700 -9.835200 -27.549200
H -14.109000 -9.861400 -28.464000
C -13.554800 -10.176900 -25.268400
C -13.315600 -10.206800 -26.654200
N -12.672900 -10.617400 -23.212800
N -12.491200 -10.562000 -24.475400
H -12.488700 -11.549000 -20.848500
H -12.485200 -10.487400 -26.966700
C -11.638900 -11.452300 -21.214500
C -11.493500 -10.974100 -22.501900
H -10.624700 -12.114500 -19.602400
C -10.520000 -11.789800 -20.467600
C -10.217100 -10.829900 -23.024700
H -10.103800 -10.504500 -23.888800
C -9.266900 -11.649800 -20.988000
C -9.112900 -11.167400 -22.267500
H -8.521600 -11.879400 -20.481500
H -8.259600 -11.067900 -22.624800
16
Fragment
H -10.143600 -11.226400 -16.257000
H -9.546900 -10.885300 -14.071400
C -9.284200 -10.930800 -16.060600
C -8.923500 -10.727600 -14.743700
H -8.638000 -10.835600 -17.979400
C -8.393000 -10.704800 -17.092600
C -7.648300 -10.292000 -14.399700
H -7.405500 -10.147100 -13.513500
C -7.133500 -10.279900 -16.758200
C -6.761100 -10.083800 -15.436400
C -5.966600 -9.931800 -17.607100
O -5.873600 -9.941700 -18.823500
C -5.351800 -9.609200 -15.424300
N -4.952000 -9.563000 -16.745200
O -4.641600 -9.303000 -14.485500
H -4.092600 -9.194300 -17.008900
43
Fragment
H -17.272300 -8.732400 -27.565300
N -16.500700 -9.066400 -27.880100
H -16.305800 -9.052200 -28.821200
H -15.988800 -9.350600 -23.270700
N -15.774000 -9.332800 -25.725300
C -15.519100 -9.407400 -27.042900
N -15.150500 -9.633400 -23.542400
C -14.835100 -9.720100 -24.841600
H -14.542400 -9.897700 -22.934700
C -14.271700 -9.835200 -27.549200
H -14.109000 -9.861400 -28.464000
C -13.554800 -10.176900 -25.268400
C -13.315600 -10.206800 -26.654200
N -12.672900 -10.617400 -23.212800
N -12.491200 -10.562000 -24.475400
H -12.488700 -11.549000 -20.848500
H -12.485200 -10.487400 -26.966700
C -11.638900 -11.452300 -21.214500
C -11.493500 -10.974100 -22.501900
H -10.624700 -12.114500 -19.602400
C -10.520000 -11.789800 -20.467600
C -10.217100 -10.829900 -23.024700
H -10.103800 -10.504500 -23.888800
C -9.266900 -11.649800 -20.988000
C -9.112900 -11.167400 -22.267500
H -8.521600 -11.879400 -20.481500
H -8.259600 -11.067900 -22.624800
H -10.143600 -11.226400 -16.257000
H -9.546900 -10.885300 -14.071400
C -9.284200 -10.930800 -16.060600
C -8.923500 -10.727600 -14.743700
H -8.638000 -10.835600 -17.979400
C -8.393000 -10.704800 -17.092600
C -7.648300 -10.292000 -14.399700
H -7.405500 -10.147100 -13.513500
C -7.133500 -10.279900 -16.758200
C -6.761100 -10.083800 -15.436400
C -5.966600 -9.931800 -17.607100
O -5.873600 -9.941700 -18.823500
C -5.351800 -9.609200 -15.424300
N -4.952000 -9.563000 -16.745200
O -4.641600 -9.303000 -14.485500
H -4.092600 -9.194300 -17.008900
