27
Fragment
H -17.272300 -8.732400 -27.565300
N -16.500700 -9.066400 -27.880100
H -16.305800 -9.052200 -28.821200
H -15.988800 -9.350600 -23.270700
N -15.774000 -9.332800 -25.725300
C -15.519100 -9.407400 -27.042900
N -15.150500 -9.633400 -23.542400
C -14.835100 -9.720100 -24.841600
H -14.542400 -9.897700 -22.934700
C -14.271700 -9.835200 -27.549200
H -14.109000 -9.861400 -28.464000
C -13.554800 -10.176900 -25.268400
C -13.315600 -10.206800 -26.654200
N -12.672900 -10.617400 -23.212800
N -12.491200 -10.562000 -24.475400
H -12.488700 -11.549000 -20.848500
H -12.485200 -10.487400 -26.966700
C -11.638900 -11.452300 -21.214500
C -11.493500 -10.974100 -22.501900
H -10.624700 -12.114500 -19.602400
C -10.520000 -11.789800 -20.467600
C -10.217100 -10.829900 -23.024700
H -10.103800 -10.504500 -23.888800
C -9.266900 -11.649800 -20.988000
C -9.112900 -11.167400 -22.267500
H -8.521600 -11.879400 -20.481500
H -8.259600 -11.067900 -22.624800
27
Fragment
H -12.130400 -7.515300 -18.152300
H -11.868400 -8.326700 -20.295600
C -11.277200 -7.614800 -18.509500
C -11.123200 -8.097200 -19.789100
H -10.286300 -6.951800 -16.888200
C -10.173000 -7.277200 -17.752400
C -9.870100 -8.237200 -20.309400
H -9.765400 -8.561900 -21.174700
C -8.896600 -7.421500 -18.275100
C -8.751100 -7.899700 -19.562600
H -7.904800 -6.934800 -13.810400
H -7.901300 -7.996300 -19.928600
N -7.898900 -7.009400 -16.301700
N -7.717200 -7.064800 -17.564300
C -7.074500 -6.654100 -14.122900
C -6.835300 -6.624300 -15.508700
H -6.281100 -6.308800 -12.313000
C -6.118400 -6.282500 -13.227900
H -5.847700 -6.345000 -17.842400
C -5.555000 -6.167400 -15.935500
N -5.239600 -6.080700 -17.234700
C -4.871000 -5.854800 -13.734200
N -4.616100 -5.780200 -15.051800
H -4.401300 -5.797900 -17.506400
H -4.084300 -5.499500 -11.955800
N -3.889400 -5.513700 -12.897000
H -3.117700 -5.179800 -13.211800
54
Fragment
H -17.272300 -8.732400 -27.565300
N -16.500700 -9.066400 -27.880100
H -16.305800 -9.052200 -28.821200
H -15.988800 -9.350600 -23.270700
N -15.774000 -9.332800 -25.725300
C -15.519100 -9.407400 -27.042900
N -15.150500 -9.633400 -23.542400
C -14.835100 -9.720100 -24.841600
H -14.542400 -9.897700 -22.934700
C -14.271700 -9.835200 -27.549200
H -14.109000 -9.861400 -28.464000
C -13.554800 -10.176900 -25.268400
C -13.315600 -10.206800 -26.654200
N -12.672900 -10.617400 -23.212800
N -12.491200 -10.562000 -24.475400
H -12.488700 -11.549000 -20.848500
H -12.485200 -10.487400 -26.966700
C -11.638900 -11.452300 -21.214500
C -11.493500 -10.974100 -22.501900
H -10.624700 -12.114500 -19.602400
C -10.520000 -11.789800 -20.467600
C -10.217100 -10.829900 -23.024700
H -10.103800 -10.504500 -23.888800
C -9.266900 -11.649800 -20.988000
C -9.112900 -11.167400 -22.267500
H -8.521600 -11.879400 -20.481500
H -8.259600 -11.067900 -22.624800
H -12.130400 -7.515300 -18.152300
H -11.868400 -8.326700 -20.295600
C -11.277200 -7.614800 -18.509500
C -11.123200 -8.097200 -19.789100
H -10.286300 -6.951800 -16.888200
C -10.173000 -7.277200 -17.752400
C -9.870100 -8.237200 -20.309400
H -9.765400 -8.561900 -21.174700
C -8.896600 -7.421500 -18.275100
C -8.751100 -7.899700 -19.562600
H -7.904800 -6.934800 -13.810400
H -7.901300 -7.996300 -19.928600
N -7.898900 -7.009400 -16.301700
N -7.717200 -7.064800 -17.564300
C -7.074500 -6.654100 -14.122900
C -6.835300 -6.624300 -15.508700
H -6.281100 -6.308800 -12.313000
C -6.118400 -6.282500 -13.227900
H -5.847700 -6.345000 -17.842400
C -5.555000 -6.167400 -15.935500
N -5.239600 -6.080700 -17.234700
C -4.871000 -5.854800 -13.734200
N -4.616100 -5.780200 -15.051800
H -4.401300 -5.797900 -17.506400
H -4.084300 -5.499500 -11.955800
N -3.889400 -5.513700 -12.897000
H -3.117700 -5.179800 -13.211800
