27
Fragment
H -17.272300 -8.732400 -27.565300
N -16.500700 -9.066400 -27.880100
H -16.305800 -9.052200 -28.821200
H -15.988800 -9.350600 -23.270700
N -15.774000 -9.332800 -25.725300
C -15.519100 -9.407400 -27.042900
N -15.150500 -9.633400 -23.542400
C -14.835100 -9.720100 -24.841600
H -14.542400 -9.897700 -22.934700
C -14.271700 -9.835200 -27.549200
H -14.109000 -9.861400 -28.464000
C -13.554800 -10.176900 -25.268400
C -13.315600 -10.206800 -26.654200
N -12.672900 -10.617400 -23.212800
N -12.491200 -10.562000 -24.475400
H -12.488700 -11.549000 -20.848500
H -12.485200 -10.487400 -26.966700
C -11.638900 -11.452300 -21.214500
C -11.493500 -10.974100 -22.501900
H -10.624700 -12.114500 -19.602400
C -10.520000 -11.789800 -20.467600
C -10.217100 -10.829900 -23.024700
H -10.103800 -10.504500 -23.888800
C -9.266900 -11.649800 -20.988000
C -9.112900 -11.167400 -22.267500
H -8.521600 -11.879400 -20.481500
H -8.259600 -11.067900 -22.624800
16
Fragment
H -23.438700 -6.536900 -24.412400
H -22.842000 -6.877900 -22.226800
C -22.579200 -6.832500 -24.216000
C -22.218600 -7.035700 -22.899100
H -21.933000 -6.927700 -26.134800
C -21.688000 -7.058400 -25.248000
C -20.943300 -7.471200 -22.555100
H -20.700600 -7.616200 -21.668900
C -20.428600 -7.483300 -24.913700
C -20.056100 -7.679400 -23.591800
C -19.261700 -7.831500 -25.762500
O -19.168600 -7.821500 -26.978900
C -18.646800 -8.154000 -23.579800
N -18.247000 -8.200200 -24.900600
O -17.936600 -8.460300 -22.640900
H -17.387600 -8.569000 -25.164400
43
Fragment
H -17.272300 -8.732400 -27.565300
N -16.500700 -9.066400 -27.880100
H -16.305800 -9.052200 -28.821200
H -15.988800 -9.350600 -23.270700
N -15.774000 -9.332800 -25.725300
C -15.519100 -9.407400 -27.042900
N -15.150500 -9.633400 -23.542400
C -14.835100 -9.720100 -24.841600
H -14.542400 -9.897700 -22.934700
C -14.271700 -9.835200 -27.549200
H -14.109000 -9.861400 -28.464000
C -13.554800 -10.176900 -25.268400
C -13.315600 -10.206800 -26.654200
N -12.672900 -10.617400 -23.212800
N -12.491200 -10.562000 -24.475400
H -12.488700 -11.549000 -20.848500
H -12.485200 -10.487400 -26.966700
C -11.638900 -11.452300 -21.214500
C -11.493500 -10.974100 -22.501900
H -10.624700 -12.114500 -19.602400
C -10.520000 -11.789800 -20.467600
C -10.217100 -10.829900 -23.024700
H -10.103800 -10.504500 -23.888800
C -9.266900 -11.649800 -20.988000
C -9.112900 -11.167400 -22.267500
H -8.521600 -11.879400 -20.481500
H -8.259600 -11.067900 -22.624800
H -23.438700 -6.536900 -24.412400
H -22.842000 -6.877900 -22.226800
C -22.579200 -6.832500 -24.216000
C -22.218600 -7.035700 -22.899100
H -21.933000 -6.927700 -26.134800
C -21.688000 -7.058400 -25.248000
C -20.943300 -7.471200 -22.555100
H -20.700600 -7.616200 -21.668900
C -20.428600 -7.483300 -24.913700
C -20.056100 -7.679400 -23.591800
C -19.261700 -7.831500 -25.762500
O -19.168600 -7.821500 -26.978900
C -18.646800 -8.154000 -23.579800
N -18.247000 -8.200200 -24.900600
O -17.936600 -8.460300 -22.640900
H -17.387600 -8.569000 -25.164400
