27
Fragment
H -17.272300 -8.732400 -27.565300
N -16.500700 -9.066400 -27.880100
H -16.305800 -9.052200 -28.821200
H -15.988800 -9.350600 -23.270700
N -15.774000 -9.332800 -25.725300
C -15.519100 -9.407400 -27.042900
N -15.150500 -9.633400 -23.542400
C -14.835100 -9.720100 -24.841600
H -14.542400 -9.897700 -22.934700
C -14.271700 -9.835200 -27.549200
H -14.109000 -9.861400 -28.464000
C -13.554800 -10.176900 -25.268400
C -13.315600 -10.206800 -26.654200
N -12.672900 -10.617400 -23.212800
N -12.491200 -10.562000 -24.475400
H -12.488700 -11.549000 -20.848500
H -12.485200 -10.487400 -26.966700
C -11.638900 -11.452300 -21.214500
C -11.493500 -10.974100 -22.501900
H -10.624700 -12.114500 -19.602400
C -10.520000 -11.789800 -20.467600
C -10.217100 -10.829900 -23.024700
H -10.103800 -10.504500 -23.888800
C -9.266900 -11.649800 -20.988000
C -9.112900 -11.167400 -22.267500
H -8.521600 -11.879400 -20.481500
H -8.259600 -11.067900 -22.624800
16
Fragment
H -14.230800 -12.121600 -31.923600
O -13.681800 -12.012900 -34.447000
N -13.371400 -11.752900 -32.187300
C -12.971600 -11.706700 -33.508200
O -12.449800 -11.374200 -30.109000
C -12.356800 -11.384100 -31.325400
C -11.562300 -11.232100 -33.496100
C -11.189900 -11.036000 -32.174300
H -10.917900 -11.168800 -35.419000
C -10.675100 -11.023900 -34.532800
C -9.930400 -10.611100 -31.839900
H -9.685400 -10.480300 -30.953100
C -9.399900 -10.588300 -34.188800
C -9.039200 -10.385100 -32.871900
H -8.776500 -10.430600 -34.861100
H -8.179800 -10.089500 -32.675500
43
Fragment
H -17.272300 -8.732400 -27.565300
N -16.500700 -9.066400 -27.880100
H -16.305800 -9.052200 -28.821200
H -15.988800 -9.350600 -23.270700
N -15.774000 -9.332800 -25.725300
C -15.519100 -9.407400 -27.042900
N -15.150500 -9.633400 -23.542400
C -14.835100 -9.720100 -24.841600
H -14.542400 -9.897700 -22.934700
C -14.271700 -9.835200 -27.549200
H -14.109000 -9.861400 -28.464000
C -13.554800 -10.176900 -25.268400
C -13.315600 -10.206800 -26.654200
N -12.672900 -10.617400 -23.212800
N -12.491200 -10.562000 -24.475400
H -12.488700 -11.549000 -20.848500
H -12.485200 -10.487400 -26.966700
C -11.638900 -11.452300 -21.214500
C -11.493500 -10.974100 -22.501900
H -10.624700 -12.114500 -19.602400
C -10.520000 -11.789800 -20.467600
C -10.217100 -10.829900 -23.024700
H -10.103800 -10.504500 -23.888800
C -9.266900 -11.649800 -20.988000
C -9.112900 -11.167400 -22.267500
H -8.521600 -11.879400 -20.481500
H -8.259600 -11.067900 -22.624800
H -14.230800 -12.121600 -31.923600
O -13.681800 -12.012900 -34.447000
N -13.371400 -11.752900 -32.187300
C -12.971600 -11.706700 -33.508200
O -12.449800 -11.374200 -30.109000
C -12.356800 -11.384100 -31.325400
C -11.562300 -11.232100 -33.496100
C -11.189900 -11.036000 -32.174300
H -10.917900 -11.168800 -35.419000
C -10.675100 -11.023900 -34.532800
C -9.930400 -10.611100 -31.839900
H -9.685400 -10.480300 -30.953100
C -9.399900 -10.588300 -34.188800
C -9.039200 -10.385100 -32.871900
H -8.776500 -10.430600 -34.861100
H -8.179800 -10.089500 -32.675500
