27
Fragment
H -20.020000 -21.312600 -14.026300
N -19.289200 -21.799200 -13.935600
H -19.225900 -24.432200 -10.901700
H -19.178600 -22.386000 -13.236300
H -18.851300 -25.959100 -9.211400
C -18.381000 -24.808000 -10.798800
H -18.337200 -19.092600 -17.615000
N -18.306600 -20.627400 -15.646500
C -18.200100 -21.546100 -14.661200
C -18.162000 -25.720500 -9.788400
N -17.689500 -23.483900 -12.653200
N -17.416300 -19.415400 -17.378500
C -17.366800 -24.445200 -11.657300
C -17.248100 -20.357300 -16.418200
C -16.965700 -22.218500 -14.408600
C -16.906900 -26.276700 -9.643700
H -16.749000 -26.893500 -8.965000
N -16.723600 -23.156400 -13.406500
H -16.723600 -19.176700 -17.882100
C -16.108200 -25.006400 -11.501500
C -16.002100 -20.984000 -16.236800
C -15.897300 -21.910700 -15.239800
C -15.893800 -25.926000 -10.495000
H -15.413200 -24.765000 -12.071200
H -15.274900 -20.775000 -16.777100
H -15.085900 -22.349400 -15.114600
H -15.053600 -26.310200 -10.393700
27
Fragment
H -20.020000 -21.312600 -19.590100
N -19.289200 -21.799200 -19.499400
H -19.225900 -24.432200 -16.465500
H -19.178600 -22.386000 -18.800100
H -18.851300 -25.959100 -14.775200
C -18.381000 -24.808000 -16.362600
H -18.337200 -19.092600 -23.178800
N -18.306600 -20.627400 -21.210300
C -18.200100 -21.546100 -20.225000
C -18.162000 -25.720500 -15.352200
N -17.689500 -23.483900 -18.217000
N -17.416300 -19.415400 -22.942300
C -17.366800 -24.445200 -17.221100
C -17.248100 -20.357300 -21.982000
C -16.965700 -22.218500 -19.972400
C -16.906900 -26.276700 -15.207500
H -16.749000 -26.893500 -14.528800
N -16.723600 -23.156400 -18.970300
H -16.723600 -19.176700 -23.445900
C -16.108200 -25.006400 -17.065300
C -16.002100 -20.984000 -21.800600
C -15.897300 -21.910700 -20.803600
C -15.893800 -25.926000 -16.058800
H -15.413200 -24.765000 -17.635000
H -15.274900 -20.775000 -22.340900
H -15.085900 -22.349400 -20.678400
H -15.053600 -26.310200 -15.957500
54
Fragment
H -20.020000 -21.312600 -14.026300
N -19.289200 -21.799200 -13.935600
H -19.225900 -24.432200 -10.901700
H -19.178600 -22.386000 -13.236300
H -18.851300 -25.959100 -9.211400
C -18.381000 -24.808000 -10.798800
H -18.337200 -19.092600 -17.615000
N -18.306600 -20.627400 -15.646500
C -18.200100 -21.546100 -14.661200
C -18.162000 -25.720500 -9.788400
N -17.689500 -23.483900 -12.653200
N -17.416300 -19.415400 -17.378500
C -17.366800 -24.445200 -11.657300
C -17.248100 -20.357300 -16.418200
C -16.965700 -22.218500 -14.408600
C -16.906900 -26.276700 -9.643700
H -16.749000 -26.893500 -8.965000
N -16.723600 -23.156400 -13.406500
H -16.723600 -19.176700 -17.882100
C -16.108200 -25.006400 -11.501500
C -16.002100 -20.984000 -16.236800
C -15.897300 -21.910700 -15.239800
C -15.893800 -25.926000 -10.495000
H -15.413200 -24.765000 -12.071200
H -15.274900 -20.775000 -16.777100
H -15.085900 -22.349400 -15.114600
H -15.053600 -26.310200 -10.393700
H -20.020000 -21.312600 -19.590100
N -19.289200 -21.799200 -19.499400
H -19.225900 -24.432200 -16.465500
H -19.178600 -22.386000 -18.800100
H -18.851300 -25.959100 -14.775200
C -18.381000 -24.808000 -16.362600
H -18.337200 -19.092600 -23.178800
N -18.306600 -20.627400 -21.210300
C -18.200100 -21.546100 -20.225000
C -18.162000 -25.720500 -15.352200
N -17.689500 -23.483900 -18.217000
N -17.416300 -19.415400 -22.942300
C -17.366800 -24.445200 -17.221100
C -17.248100 -20.357300 -21.982000
C -16.965700 -22.218500 -19.972400
C -16.906900 -26.276700 -15.207500
H -16.749000 -26.893500 -14.528800
N -16.723600 -23.156400 -18.970300
H -16.723600 -19.176700 -23.445900
C -16.108200 -25.006400 -17.065300
C -16.002100 -20.984000 -21.800600
C -15.897300 -21.910700 -20.803600
C -15.893800 -25.926000 -16.058800
H -15.413200 -24.765000 -17.635000
H -15.274900 -20.775000 -22.340900
H -15.085900 -22.349400 -20.678400
H -15.053600 -26.310200 -15.957500
