27
Fragment
H -10.444200 -16.869100 -17.158100
H -9.955300 -16.276400 -18.574200
H -9.827500 -14.837800 -16.354000
C -9.672700 -16.489000 -17.649500
C -9.135900 -15.236500 -16.939400
H -8.840100 -14.556400 -17.595400
H -8.808000 -18.406600 -17.712900
C -8.494300 -17.469800 -17.653600
H -8.296700 -17.688600 -15.582600
N -7.993700 -15.736600 -16.144600
H -7.878100 -17.286400 -18.406600
C -7.825100 -17.196400 -16.314200
C -6.790800 -15.120900 -16.195600
N -6.608500 -13.831400 -16.218100
C -6.301500 -17.415100 -16.215100
H -6.060100 -17.891400 -15.380300
H -5.959800 -17.925800 -16.991600
N -5.788600 -16.041800 -16.212100
H -5.714300 -11.485100 -16.754500
H -5.303300 -11.628900 -15.214800
C -5.302300 -13.415900 -16.213000
C -5.108300 -11.931400 -16.126200
C -4.448800 -15.689800 -16.245700
C -4.246100 -14.275000 -16.228300
H -4.181500 -11.709200 -16.353000
O -3.579100 -16.555900 -16.283500
H -3.362100 -13.929300 -16.228300
27
Fragment
H -8.138800 -15.407600 -12.947300
H -7.647400 -16.419300 -11.809100
H -7.566400 -16.847100 -13.348900
C -7.482900 -16.099100 -12.720500
H -6.625900 -13.587900 -12.822700
C -6.100300 -15.524900 -12.807400
C -5.884400 -14.180700 -12.822700
N -5.087400 -16.448400 -12.812500
C -4.557800 -13.648800 -12.840000
O -4.242600 -12.462500 -12.877800
C -3.879500 -15.961500 -12.790000
N -3.583100 -14.633200 -12.806400
H -3.343700 -18.018500 -14.189700
N -2.744900 -16.695400 -12.738900
C -2.606900 -17.934700 -13.533800
H -2.606300 -18.732900 -12.948300
C -2.137300 -14.390600 -12.809400
H -1.865900 -13.839300 -13.585900
H -1.845500 -13.943400 -11.974700
C -1.564900 -15.819500 -12.908500
H -1.460500 -15.820400 -15.000900
H -1.296600 -18.124300 -15.168500
C -1.253800 -17.773200 -14.243900
C -0.993500 -16.262300 -14.247900
H -0.902900 -15.981800 -12.177000
H -0.538800 -18.251300 -13.752400
H -0.025500 -16.065600 -14.307200
54
Fragment
H -10.444200 -16.869100 -17.158100
H -9.955300 -16.276400 -18.574200
H -9.827500 -14.837800 -16.354000
C -9.672700 -16.489000 -17.649500
C -9.135900 -15.236500 -16.939400
H -8.840100 -14.556400 -17.595400
H -8.808000 -18.406600 -17.712900
C -8.494300 -17.469800 -17.653600
H -8.296700 -17.688600 -15.582600
N -7.993700 -15.736600 -16.144600
H -7.878100 -17.286400 -18.406600
C -7.825100 -17.196400 -16.314200
C -6.790800 -15.120900 -16.195600
N -6.608500 -13.831400 -16.218100
C -6.301500 -17.415100 -16.215100
H -6.060100 -17.891400 -15.380300
H -5.959800 -17.925800 -16.991600
N -5.788600 -16.041800 -16.212100
H -5.714300 -11.485100 -16.754500
H -5.303300 -11.628900 -15.214800
C -5.302300 -13.415900 -16.213000
C -5.108300 -11.931400 -16.126200
C -4.448800 -15.689800 -16.245700
C -4.246100 -14.275000 -16.228300
H -4.181500 -11.709200 -16.353000
O -3.579100 -16.555900 -16.283500
H -3.362100 -13.929300 -16.228300
H -8.138800 -15.407600 -12.947300
H -7.647400 -16.419300 -11.809100
H -7.566400 -16.847100 -13.348900
C -7.482900 -16.099100 -12.720500
H -6.625900 -13.587900 -12.822700
C -6.100300 -15.524900 -12.807400
C -5.884400 -14.180700 -12.822700
N -5.087400 -16.448400 -12.812500
C -4.557800 -13.648800 -12.840000
O -4.242600 -12.462500 -12.877800
C -3.879500 -15.961500 -12.790000
N -3.583100 -14.633200 -12.806400
H -3.343700 -18.018500 -14.189700
N -2.744900 -16.695400 -12.738900
C -2.606900 -17.934700 -13.533800
H -2.606300 -18.732900 -12.948300
C -2.137300 -14.390600 -12.809400
H -1.865900 -13.839300 -13.585900
H -1.845500 -13.943400 -11.974700
C -1.564900 -15.819500 -12.908500
H -1.460500 -15.820400 -15.000900
H -1.296600 -18.124300 -15.168500
C -1.253800 -17.773200 -14.243900
C -0.993500 -16.262300 -14.247900
H -0.902900 -15.981800 -12.177000
H -0.538800 -18.251300 -13.752400
H -0.025500 -16.065600 -14.307200
