17
Fragment
H -26.087900 -23.013900 -17.888500
N -25.380500 -23.573800 -17.760500
H -25.270100 -24.058000 -18.517200
O -24.478800 -21.788200 -19.641600
N -24.245400 -22.735900 -17.604800
C -23.881200 -21.875400 -18.577800
H -23.683700 -22.977900 -16.973600
H -22.931700 -20.850000 -16.228600
C -22.727400 -20.970500 -18.261000
C -22.440400 -20.525900 -16.974400
H -22.144700 -20.750500 -20.207000
C -21.971400 -20.471900 -19.315500
C -21.423300 -19.600700 -16.802600
H -21.237300 -19.294600 -15.922800
C -20.962000 -19.563000 -19.046900
N -20.688500 -19.115100 -17.812100
H -20.438300 -19.241400 -19.771300
17
Fragment
H -26.058800 -18.994200 -16.435200
N -25.808600 -19.120400 -18.394500
C -25.535000 -18.672500 -17.159600
H -25.259800 -18.940900 -20.283800
C -25.073700 -18.634800 -19.403900
C -24.525600 -17.763600 -16.891100
H -24.352300 -17.485000 -15.999600
C -24.056700 -17.709600 -19.232200
C -23.769600 -17.265000 -17.945500
H -23.565400 -17.385600 -19.977900
H -22.813400 -15.257700 -19.232900
C -22.615800 -16.360100 -17.628700
N -22.251700 -15.499700 -18.601700
O -22.018300 -16.447300 -16.565000
H -21.226900 -14.177600 -17.689300
N -21.116600 -14.661700 -18.446000
H -20.409200 -15.221600 -18.318100
34
Fragment
H -26.087900 -23.013900 -17.888500
N -25.380500 -23.573800 -17.760500
H -25.270100 -24.058000 -18.517200
O -24.478800 -21.788200 -19.641600
N -24.245400 -22.735900 -17.604800
C -23.881200 -21.875400 -18.577800
H -23.683700 -22.977900 -16.973600
H -22.931700 -20.850000 -16.228600
C -22.727400 -20.970500 -18.261000
C -22.440400 -20.525900 -16.974400
H -22.144700 -20.750500 -20.207000
C -21.971400 -20.471900 -19.315500
C -21.423300 -19.600700 -16.802600
H -21.237300 -19.294600 -15.922800
C -20.962000 -19.563000 -19.046900
N -20.688500 -19.115100 -17.812100
H -20.438300 -19.241400 -19.771300
H -26.058800 -18.994200 -16.435200
N -25.808600 -19.120400 -18.394500
C -25.535000 -18.672500 -17.159600
H -25.259800 -18.940900 -20.283800
C -25.073700 -18.634800 -19.403900
C -24.525600 -17.763600 -16.891100
H -24.352300 -17.485000 -15.999600
C -24.056700 -17.709600 -19.232200
C -23.769600 -17.265000 -17.945500
H -23.565400 -17.385600 -19.977900
H -22.813400 -15.257700 -19.232900
C -22.615800 -16.360100 -17.628700
N -22.251700 -15.499700 -18.601700
O -22.018300 -16.447300 -16.565000
H -21.226900 -14.177600 -17.689300
N -21.116600 -14.661700 -18.446000
H -20.409200 -15.221600 -18.318100
