17
Fragment
H -26.087900 -23.013900 -17.888500
N -25.380500 -23.573800 -17.760500
H -25.270100 -24.058000 -18.517200
O -24.478800 -21.788200 -19.641600
N -24.245400 -22.735900 -17.604800
C -23.881200 -21.875400 -18.577800
H -23.683700 -22.977900 -16.973600
H -22.931700 -20.850000 -16.228600
C -22.727400 -20.970500 -18.261000
C -22.440400 -20.525900 -16.974400
H -22.144700 -20.750500 -20.207000
C -21.971400 -20.471900 -19.315500
C -21.423300 -19.600700 -16.802600
H -21.237300 -19.294600 -15.922800
C -20.962000 -19.563000 -19.046900
N -20.688500 -19.115100 -17.812100
H -20.438300 -19.241400 -19.771300
20
Fragment
H -26.917000 -18.463700 -23.365400
O -26.235500 -20.891400 -23.264300
C -25.986500 -18.548300 -23.193900
H -25.842200 -21.615300 -22.946500
H -25.620500 -16.574400 -23.112600
C -25.398300 -19.834200 -23.096000
C -25.216900 -17.431500 -23.041700
C -24.051000 -19.970100 -22.850000
C -23.826500 -17.525500 -22.779800
H -23.665300 -20.836100 -22.790900
H -23.394900 -15.520900 -22.631600
C -23.236900 -18.820000 -22.684500
C -23.006100 -16.386300 -22.581100
C -21.845500 -18.917100 -22.435400
C -21.668800 -16.501700 -22.318200
H -21.437300 -19.773600 -22.386900
H -21.140400 -15.725700 -22.173700
C -21.077400 -17.790200 -22.263100
O -19.747400 -17.952900 -22.052500
H -19.332400 -17.187600 -21.976200
37
Fragment
H -26.087900 -23.013900 -17.888500
N -25.380500 -23.573800 -17.760500
H -25.270100 -24.058000 -18.517200
O -24.478800 -21.788200 -19.641600
N -24.245400 -22.735900 -17.604800
C -23.881200 -21.875400 -18.577800
H -23.683700 -22.977900 -16.973600
H -22.931700 -20.850000 -16.228600
C -22.727400 -20.970500 -18.261000
C -22.440400 -20.525900 -16.974400
H -22.144700 -20.750500 -20.207000
C -21.971400 -20.471900 -19.315500
C -21.423300 -19.600700 -16.802600
H -21.237300 -19.294600 -15.922800
C -20.962000 -19.563000 -19.046900
N -20.688500 -19.115100 -17.812100
H -20.438300 -19.241400 -19.771300
H -26.917000 -18.463700 -23.365400
O -26.235500 -20.891400 -23.264300
C -25.986500 -18.548300 -23.193900
H -25.842200 -21.615300 -22.946500
H -25.620500 -16.574400 -23.112600
C -25.398300 -19.834200 -23.096000
C -25.216900 -17.431500 -23.041700
C -24.051000 -19.970100 -22.850000
C -23.826500 -17.525500 -22.779800
H -23.665300 -20.836100 -22.790900
H -23.394900 -15.520900 -22.631600
C -23.236900 -18.820000 -22.684500
C -23.006100 -16.386300 -22.581100
C -21.845500 -18.917100 -22.435400
C -21.668800 -16.501700 -22.318200
H -21.437300 -19.773600 -22.386900
H -21.140400 -15.725700 -22.173700
C -21.077400 -17.790200 -22.263100
O -19.747400 -17.952900 -22.052500
H -19.332400 -17.187600 -21.976200
