17
Fragment
H -26.087900 -23.013900 -17.888500
N -25.380500 -23.573800 -17.760500
H -25.270100 -24.058000 -18.517200
O -24.478800 -21.788200 -19.641600
N -24.245400 -22.735900 -17.604800
C -23.881200 -21.875400 -18.577800
H -23.683700 -22.977900 -16.973600
H -22.931700 -20.850000 -16.228600
C -22.727400 -20.970500 -18.261000
C -22.440400 -20.525900 -16.974400
H -22.144700 -20.750500 -20.207000
C -21.971400 -20.471900 -19.315500
C -21.423300 -19.600700 -16.802600
H -21.237300 -19.294600 -15.922800
C -20.962000 -19.563000 -19.046900
N -20.688500 -19.115100 -17.812100
H -20.438300 -19.241400 -19.771300
17
Fragment
H -28.424500 -30.557200 -16.435200
N -28.174400 -30.683500 -18.394500
C -27.900800 -30.235600 -17.159600
H -27.625600 -30.504000 -20.283800
C -27.439500 -30.197900 -19.403900
C -26.891400 -29.326700 -16.891100
H -26.718100 -29.048100 -15.999600
C -26.422400 -29.272700 -19.232200
C -26.135400 -28.828000 -17.945500
H -25.931100 -28.948600 -19.977900
H -25.179200 -26.820700 -19.232900
C -24.981600 -27.923200 -17.628700
N -24.617400 -27.062700 -18.601700
O -24.384000 -28.010400 -16.565000
H -23.592700 -25.740600 -17.689300
N -23.482300 -26.224800 -18.446000
H -22.774900 -26.784700 -18.318100
34
Fragment
H -26.087900 -23.013900 -17.888500
N -25.380500 -23.573800 -17.760500
H -25.270100 -24.058000 -18.517200
O -24.478800 -21.788200 -19.641600
N -24.245400 -22.735900 -17.604800
C -23.881200 -21.875400 -18.577800
H -23.683700 -22.977900 -16.973600
H -22.931700 -20.850000 -16.228600
C -22.727400 -20.970500 -18.261000
C -22.440400 -20.525900 -16.974400
H -22.144700 -20.750500 -20.207000
C -21.971400 -20.471900 -19.315500
C -21.423300 -19.600700 -16.802600
H -21.237300 -19.294600 -15.922800
C -20.962000 -19.563000 -19.046900
N -20.688500 -19.115100 -17.812100
H -20.438300 -19.241400 -19.771300
H -28.424500 -30.557200 -16.435200
N -28.174400 -30.683500 -18.394500
C -27.900800 -30.235600 -17.159600
H -27.625600 -30.504000 -20.283800
C -27.439500 -30.197900 -19.403900
C -26.891400 -29.326700 -16.891100
H -26.718100 -29.048100 -15.999600
C -26.422400 -29.272700 -19.232200
C -26.135400 -28.828000 -17.945500
H -25.931100 -28.948600 -19.977900
H -25.179200 -26.820700 -19.232900
C -24.981600 -27.923200 -17.628700
N -24.617400 -27.062700 -18.601700
O -24.384000 -28.010400 -16.565000
H -23.592700 -25.740600 -17.689300
N -23.482300 -26.224800 -18.446000
H -22.774900 -26.784700 -18.318100
