29
Fragment
H -9.404900 -42.965600 -15.737000
H -9.279000 -40.693600 -15.657700
C -8.896600 -42.528600 -16.381000
C -8.827000 -41.166600 -16.319100
N -8.280900 -43.283100 -17.309100
C -8.071500 -40.517700 -17.258400
H -8.003000 -39.590200 -17.250100
C -7.538800 -42.635400 -18.222200
H -7.467300 -45.285400 -18.567900
C -7.414500 -41.258700 -18.218100
C -6.944300 -44.860300 -19.208500
H -6.891000 -40.834600 -18.858900
C -6.854700 -43.477500 -19.242500
H -6.274000 -46.521700 -20.123600
C -6.244500 -45.592400 -20.139200
N -6.154300 -42.826400 -20.183400
C -5.504100 -43.542700 -21.103700
C -5.500600 -44.935800 -21.095700
H -5.196800 -40.913800 -21.503000
H -5.005700 -45.413000 -21.722900
C -4.759200 -42.779100 -22.144600
C -4.735600 -41.394100 -22.152300
N -4.105600 -43.507400 -23.060900
C -4.020000 -40.731200 -23.135400
H -3.988400 -39.801900 -23.154700
C -3.428200 -42.837700 -24.005100
C -3.360900 -41.469900 -24.076600
H -2.976300 -43.331200 -24.651400
H -2.876200 -41.053500 -24.752500
16
Fragment
N -2.788200 -51.428300 -22.382800
N -2.773000 -47.412900 -21.939600
C -2.234800 -47.895100 -22.818800
C -2.207300 -50.733300 -23.083600
C -1.528900 -48.513000 -23.910600
C -1.484400 -49.907600 -24.007800
H -0.930900 -46.796900 -24.812000
C -0.884700 -47.724600 -24.861300
C -0.752600 -50.514500 -25.015800
H -0.711100 -51.442000 -25.068800
C -0.173800 -48.337300 -25.881600
C -0.082900 -49.734300 -25.944700
C 0.475900 -47.558400 -26.902000
C 0.701300 -50.361700 -26.968000
N 0.992100 -46.984400 -27.740700
N 1.335700 -50.875100 -27.761700
45
Fragment
H -9.404900 -42.965600 -15.737000
H -9.279000 -40.693600 -15.657700
C -8.896600 -42.528600 -16.381000
C -8.827000 -41.166600 -16.319100
N -8.280900 -43.283100 -17.309100
C -8.071500 -40.517700 -17.258400
H -8.003000 -39.590200 -17.250100
C -7.538800 -42.635400 -18.222200
H -7.467300 -45.285400 -18.567900
C -7.414500 -41.258700 -18.218100
C -6.944300 -44.860300 -19.208500
H -6.891000 -40.834600 -18.858900
C -6.854700 -43.477500 -19.242500
H -6.274000 -46.521700 -20.123600
C -6.244500 -45.592400 -20.139200
N -6.154300 -42.826400 -20.183400
C -5.504100 -43.542700 -21.103700
C -5.500600 -44.935800 -21.095700
H -5.196800 -40.913800 -21.503000
H -5.005700 -45.413000 -21.722900
C -4.759200 -42.779100 -22.144600
C -4.735600 -41.394100 -22.152300
N -4.105600 -43.507400 -23.060900
C -4.020000 -40.731200 -23.135400
H -3.988400 -39.801900 -23.154700
C -3.428200 -42.837700 -24.005100
C -3.360900 -41.469900 -24.076600
H -2.976300 -43.331200 -24.651400
H -2.876200 -41.053500 -24.752500
N -2.788200 -51.428300 -22.382800
N -2.773000 -47.412900 -21.939600
C -2.234800 -47.895100 -22.818800
C -2.207300 -50.733300 -23.083600
C -1.528900 -48.513000 -23.910600
C -1.484400 -49.907600 -24.007800
H -0.930900 -46.796900 -24.812000
C -0.884700 -47.724600 -24.861300
C -0.752600 -50.514500 -25.015800
H -0.711100 -51.442000 -25.068800
C -0.173800 -48.337300 -25.881600
C -0.082900 -49.734300 -25.944700
C 0.475900 -47.558400 -26.902000
C 0.701300 -50.361700 -26.968000
N 0.992100 -46.984400 -27.740700
N 1.335700 -50.875100 -27.761700
