29
Fragment
H -9.404900 -42.965600 -15.737000
H -9.279000 -40.693600 -15.657700
C -8.896600 -42.528600 -16.381000
C -8.827000 -41.166600 -16.319100
N -8.280900 -43.283100 -17.309100
C -8.071500 -40.517700 -17.258400
H -8.003000 -39.590200 -17.250100
C -7.538800 -42.635400 -18.222200
H -7.467300 -45.285400 -18.567900
C -7.414500 -41.258700 -18.218100
C -6.944300 -44.860300 -19.208500
H -6.891000 -40.834600 -18.858900
C -6.854700 -43.477500 -19.242500
H -6.274000 -46.521700 -20.123600
C -6.244500 -45.592400 -20.139200
N -6.154300 -42.826400 -20.183400
C -5.504100 -43.542700 -21.103700
C -5.500600 -44.935800 -21.095700
H -5.196800 -40.913800 -21.503000
H -5.005700 -45.413000 -21.722900
C -4.759200 -42.779100 -22.144600
C -4.735600 -41.394100 -22.152300
N -4.105600 -43.507400 -23.060900
C -4.020000 -40.731200 -23.135400
H -3.988400 -39.801900 -23.154700
C -3.428200 -42.837700 -24.005100
C -3.360900 -41.469900 -24.076600
H -2.976300 -43.331200 -24.651400
H -2.876200 -41.053500 -24.752500
16
Fragment
N -13.544300 -51.428300 -12.846800
N -13.529100 -47.412900 -12.403500
C -12.990900 -47.895100 -13.282800
C -12.963400 -50.733300 -13.547500
C -12.285100 -48.513000 -14.374600
C -12.240500 -49.907600 -14.471700
H -11.687100 -46.796900 -15.275900
C -11.640800 -47.724600 -15.325200
C -11.508700 -50.514500 -15.479800
H -11.467200 -51.442000 -15.532700
C -10.930000 -48.337300 -16.345600
C -10.839000 -49.734300 -16.408600
C -10.280300 -47.558400 -17.365900
C -10.054900 -50.361700 -17.431900
N -9.764000 -46.984400 -18.204600
N -9.420500 -50.875100 -18.225600
45
Fragment
H -9.404900 -42.965600 -15.737000
H -9.279000 -40.693600 -15.657700
C -8.896600 -42.528600 -16.381000
C -8.827000 -41.166600 -16.319100
N -8.280900 -43.283100 -17.309100
C -8.071500 -40.517700 -17.258400
H -8.003000 -39.590200 -17.250100
C -7.538800 -42.635400 -18.222200
H -7.467300 -45.285400 -18.567900
C -7.414500 -41.258700 -18.218100
C -6.944300 -44.860300 -19.208500
H -6.891000 -40.834600 -18.858900
C -6.854700 -43.477500 -19.242500
H -6.274000 -46.521700 -20.123600
C -6.244500 -45.592400 -20.139200
N -6.154300 -42.826400 -20.183400
C -5.504100 -43.542700 -21.103700
C -5.500600 -44.935800 -21.095700
H -5.196800 -40.913800 -21.503000
H -5.005700 -45.413000 -21.722900
C -4.759200 -42.779100 -22.144600
C -4.735600 -41.394100 -22.152300
N -4.105600 -43.507400 -23.060900
C -4.020000 -40.731200 -23.135400
H -3.988400 -39.801900 -23.154700
C -3.428200 -42.837700 -24.005100
C -3.360900 -41.469900 -24.076600
H -2.976300 -43.331200 -24.651400
H -2.876200 -41.053500 -24.752500
N -13.544300 -51.428300 -12.846800
N -13.529100 -47.412900 -12.403500
C -12.990900 -47.895100 -13.282800
C -12.963400 -50.733300 -13.547500
C -12.285100 -48.513000 -14.374600
C -12.240500 -49.907600 -14.471700
H -11.687100 -46.796900 -15.275900
C -11.640800 -47.724600 -15.325200
C -11.508700 -50.514500 -15.479800
H -11.467200 -51.442000 -15.532700
C -10.930000 -48.337300 -16.345600
C -10.839000 -49.734300 -16.408600
C -10.280300 -47.558400 -17.365900
C -10.054900 -50.361700 -17.431900
N -9.764000 -46.984400 -18.204600
N -9.420500 -50.875100 -18.225600
