14
Fragment
O -9.849100 -12.082900 -15.738300
H -9.840100 -12.413000 -17.684500
H -9.503200 -10.133500 -17.467400
H -9.379900 -11.531900 -13.899800
H -9.221900 -9.597100 -15.159500
C -9.214400 -12.093100 -17.015600
C -8.940000 -11.569500 -14.764000
C -8.741300 -10.729500 -17.391100
C -8.466900 -10.205800 -15.139400
H -8.459400 -12.701900 -16.995500
H -8.301400 -10.767100 -18.255200
H -8.178100 -12.165400 -14.687600
H -7.841200 -9.885900 -14.470600
O -7.832200 -10.216000 -16.416800
21
Fragment
H -10.245900 -15.766900 -26.102700
H -9.827100 -15.238600 -27.519100
H -9.735300 -15.453200 -23.658100
C -9.490300 -15.496300 -26.646900
H -9.218900 -14.533100 -21.588100
C -9.207600 -14.690400 -23.588100
C -8.903600 -14.136300 -22.367900
N -8.840400 -14.351900 -26.027900
C -8.686400 -14.057000 -24.716000
O -8.623500 -16.566600 -26.789200
O -8.392000 -12.949500 -19.990000
H -8.354500 -16.599300 -27.563300
N -8.126400 -13.465900 -26.802800
C -8.119100 -12.975100 -22.293100
C -7.882800 -12.909600 -24.634800
N -7.869200 -12.406000 -20.961900
C -7.604900 -12.332400 -23.388800
C -7.571200 -12.610900 -25.983700
O -7.174200 -11.414000 -20.884700
H -7.098800 -11.556500 -23.310000
H -7.039600 -11.897900 -26.252200
35
Fragment
O -9.849100 -12.082900 -15.738300
H -9.840100 -12.413000 -17.684500
H -9.503200 -10.133500 -17.467400
H -9.379900 -11.531900 -13.899800
H -9.221900 -9.597100 -15.159500
C -9.214400 -12.093100 -17.015600
C -8.940000 -11.569500 -14.764000
C -8.741300 -10.729500 -17.391100
C -8.466900 -10.205800 -15.139400
H -8.459400 -12.701900 -16.995500
H -8.301400 -10.767100 -18.255200
H -8.178100 -12.165400 -14.687600
H -7.841200 -9.885900 -14.470600
O -7.832200 -10.216000 -16.416800
H -10.245900 -15.766900 -26.102700
H -9.827100 -15.238600 -27.519100
H -9.735300 -15.453200 -23.658100
C -9.490300 -15.496300 -26.646900
H -9.218900 -14.533100 -21.588100
C -9.207600 -14.690400 -23.588100
C -8.903600 -14.136300 -22.367900
N -8.840400 -14.351900 -26.027900
C -8.686400 -14.057000 -24.716000
O -8.623500 -16.566600 -26.789200
O -8.392000 -12.949500 -19.990000
H -8.354500 -16.599300 -27.563300
N -8.126400 -13.465900 -26.802800
C -8.119100 -12.975100 -22.293100
C -7.882800 -12.909600 -24.634800
N -7.869200 -12.406000 -20.961900
C -7.604900 -12.332400 -23.388800
C -7.571200 -12.610900 -25.983700
O -7.174200 -11.414000 -20.884700
H -7.098800 -11.556500 -23.310000
H -7.039600 -11.897900 -26.252200
