14
Fragment
O -9.849100 -12.082900 -15.738300
H -9.840100 -12.413000 -17.684500
H -9.503200 -10.133500 -17.467400
H -9.379900 -11.531900 -13.899800
H -9.221900 -9.597100 -15.159500
C -9.214400 -12.093100 -17.015600
C -8.940000 -11.569500 -14.764000
C -8.741300 -10.729500 -17.391100
C -8.466900 -10.205800 -15.139400
H -8.459400 -12.701900 -16.995500
H -8.301400 -10.767100 -18.255200
H -8.178100 -12.165400 -14.687600
H -7.841200 -9.885900 -14.470600
O -7.832200 -10.216000 -16.416800
21
Fragment
H -5.825600 -10.192200 -18.063900
H -5.406700 -9.663900 -19.480300
H -5.315000 -9.878400 -15.619300
C -5.069900 -9.921600 -18.608100
H -4.798600 -8.958400 -13.549300
C -4.787200 -9.115600 -15.549400
C -4.483300 -8.561600 -14.329100
N -4.420000 -8.777200 -17.989100
C -4.266100 -8.482200 -16.677200
O -4.203100 -10.991900 -18.750400
O -3.971700 -7.374800 -11.951200
H -3.934200 -11.024600 -19.524500
N -3.706000 -7.891200 -18.764100
C -3.698800 -7.400300 -14.254300
C -3.462500 -7.334900 -16.596000
N -3.448900 -6.831200 -12.923100
C -3.184600 -6.757700 -15.350000
C -3.150900 -7.036200 -17.944900
O -2.753800 -5.839300 -12.845900
H -2.678500 -5.981800 -15.271200
H -2.619300 -6.323200 -18.213400
35
Fragment
O -9.849100 -12.082900 -15.738300
H -9.840100 -12.413000 -17.684500
H -9.503200 -10.133500 -17.467400
H -9.379900 -11.531900 -13.899800
H -9.221900 -9.597100 -15.159500
C -9.214400 -12.093100 -17.015600
C -8.940000 -11.569500 -14.764000
C -8.741300 -10.729500 -17.391100
C -8.466900 -10.205800 -15.139400
H -8.459400 -12.701900 -16.995500
H -8.301400 -10.767100 -18.255200
H -8.178100 -12.165400 -14.687600
H -7.841200 -9.885900 -14.470600
O -7.832200 -10.216000 -16.416800
H -5.825600 -10.192200 -18.063900
H -5.406700 -9.663900 -19.480300
H -5.315000 -9.878400 -15.619300
C -5.069900 -9.921600 -18.608100
H -4.798600 -8.958400 -13.549300
C -4.787200 -9.115600 -15.549400
C -4.483300 -8.561600 -14.329100
N -4.420000 -8.777200 -17.989100
C -4.266100 -8.482200 -16.677200
O -4.203100 -10.991900 -18.750400
O -3.971700 -7.374800 -11.951200
H -3.934200 -11.024600 -19.524500
N -3.706000 -7.891200 -18.764100
C -3.698800 -7.400300 -14.254300
C -3.462500 -7.334900 -16.596000
N -3.448900 -6.831200 -12.923100
C -3.184600 -6.757700 -15.350000
C -3.150900 -7.036200 -17.944900
O -2.753800 -5.839300 -12.845900
H -2.678500 -5.981800 -15.271200
H -2.619300 -6.323200 -18.213400
