29
Fragment
O -14.097000 -11.646100 -34.663500
H -14.079200 -12.626700 -32.448300
H -14.027300 -11.046000 -32.354600
C -13.595300 -11.870500 -32.081100
H -13.592500 -11.928600 -31.112700
H -12.993900 -11.317900 -36.994600
C -12.915200 -11.610100 -34.977000
C -12.396200 -11.443700 -36.279100
C -12.190400 -11.885700 -32.584500
N -11.887100 -11.752800 -33.953800
N -11.265900 -12.021100 -31.696000
H -11.237900 -11.225900 -38.550900
C -11.059500 -11.459900 -36.534400
C -10.519500 -11.761400 -34.316700
C -10.507000 -11.302300 -37.918100
H -10.313000 -12.424400 -29.652300
N -10.118900 -11.621500 -35.563100
H -9.966900 -12.076800 -38.140600
H -9.959700 -10.502800 -37.957800
C -9.955500 -12.027400 -32.119200
N -9.566600 -11.906200 -33.384300
C -9.359600 -12.277000 -29.751300
H -9.109900 -11.457900 -29.295500
N -9.029600 -12.162800 -31.172000
H -8.874800 -13.023000 -29.364700
C -7.609600 -12.114600 -31.513800
H -7.510000 -12.097100 -32.477300
H -7.212400 -11.315800 -31.132800
H -7.163800 -12.898600 -31.157300
29
Fragment
H -13.978100 -9.516700 -46.880900
H -13.929500 -7.933900 -46.905400
H -13.631900 -8.715200 -45.560900
C -13.532200 -8.732700 -46.524400
H -12.267100 -9.641100 -48.673600
N -12.112300 -8.780900 -46.866200
H -12.031900 -8.076000 -48.742700
C -11.782300 -8.895100 -48.286900
N -11.575300 -8.524300 -44.653900
C -11.186400 -8.645500 -45.919000
H -11.182200 -7.120900 -40.080400
H -11.175000 -8.694900 -39.897600
N -11.023000 -8.239600 -42.475100
H -10.828900 -9.042500 -48.385900
C -10.634900 -7.920400 -40.120100
C -10.622400 -8.379500 -43.721500
C -10.082300 -8.078000 -41.503800
H -9.904000 -7.844000 -39.487300
N -9.876000 -8.639200 -46.342200
N -9.254800 -8.370900 -44.084500
C -8.951500 -8.503800 -45.453700
C -8.745600 -8.061800 -41.759100
C -8.226700 -8.228200 -43.061300
H -8.148000 -7.936000 -41.043600
H -7.549400 -8.546700 -46.925500
C -7.546600 -8.488600 -45.957200
H -7.114500 -7.664100 -45.683600
H -7.062700 -9.244800 -45.589900
O -7.044800 -8.264200 -43.374800
58
Fragment
O -14.097000 -11.646100 -34.663500
H -14.079200 -12.626700 -32.448300
H -14.027300 -11.046000 -32.354600
C -13.595300 -11.870500 -32.081100
H -13.592500 -11.928600 -31.112700
H -12.993900 -11.317900 -36.994600
C -12.915200 -11.610100 -34.977000
C -12.396200 -11.443700 -36.279100
C -12.190400 -11.885700 -32.584500
N -11.887100 -11.752800 -33.953800
N -11.265900 -12.021100 -31.696000
H -11.237900 -11.225900 -38.550900
C -11.059500 -11.459900 -36.534400
C -10.519500 -11.761400 -34.316700
C -10.507000 -11.302300 -37.918100
H -10.313000 -12.424400 -29.652300
N -10.118900 -11.621500 -35.563100
H -9.966900 -12.076800 -38.140600
H -9.959700 -10.502800 -37.957800
C -9.955500 -12.027400 -32.119200
N -9.566600 -11.906200 -33.384300
C -9.359600 -12.277000 -29.751300
H -9.109900 -11.457900 -29.295500
N -9.029600 -12.162800 -31.172000
H -8.874800 -13.023000 -29.364700
C -7.609600 -12.114600 -31.513800
H -7.510000 -12.097100 -32.477300
H -7.212400 -11.315800 -31.132800
H -7.163800 -12.898600 -31.157300
H -13.978100 -9.516700 -46.880900
H -13.929500 -7.933900 -46.905400
H -13.631900 -8.715200 -45.560900
C -13.532200 -8.732700 -46.524400
H -12.267100 -9.641100 -48.673600
N -12.112300 -8.780900 -46.866200
H -12.031900 -8.076000 -48.742700
C -11.782300 -8.895100 -48.286900
N -11.575300 -8.524300 -44.653900
C -11.186400 -8.645500 -45.919000
H -11.182200 -7.120900 -40.080400
H -11.175000 -8.694900 -39.897600
N -11.023000 -8.239600 -42.475100
H -10.828900 -9.042500 -48.385900
C -10.634900 -7.920400 -40.120100
C -10.622400 -8.379500 -43.721500
C -10.082300 -8.078000 -41.503800
H -9.904000 -7.844000 -39.487300
N -9.876000 -8.639200 -46.342200
N -9.254800 -8.370900 -44.084500
C -8.951500 -8.503800 -45.453700
C -8.745600 -8.061800 -41.759100
C -8.226700 -8.228200 -43.061300
H -8.148000 -7.936000 -41.043600
H -7.549400 -8.546700 -46.925500
C -7.546600 -8.488600 -45.957200
H -7.114500 -7.664100 -45.683600
H -7.062700 -9.244800 -45.589900
O -7.044800 -8.264200 -43.374800
