29
Fragment
O -14.097000 -11.646100 -34.663500
H -14.079200 -12.626700 -32.448300
H -14.027300 -11.046000 -32.354600
C -13.595300 -11.870500 -32.081100
H -13.592500 -11.928600 -31.112700
H -12.993900 -11.317900 -36.994600
C -12.915200 -11.610100 -34.977000
C -12.396200 -11.443700 -36.279100
C -12.190400 -11.885700 -32.584500
N -11.887100 -11.752800 -33.953800
N -11.265900 -12.021100 -31.696000
H -11.237900 -11.225900 -38.550900
C -11.059500 -11.459900 -36.534400
C -10.519500 -11.761400 -34.316700
C -10.507000 -11.302300 -37.918100
H -10.313000 -12.424400 -29.652300
N -10.118900 -11.621500 -35.563100
H -9.966900 -12.076800 -38.140600
H -9.959700 -10.502800 -37.957800
C -9.955500 -12.027400 -32.119200
N -9.566600 -11.906200 -33.384300
C -9.359600 -12.277000 -29.751300
H -9.109900 -11.457900 -29.295500
N -9.029600 -12.162800 -31.172000
H -8.874800 -13.023000 -29.364700
C -7.609600 -12.114600 -31.513800
H -7.510000 -12.097100 -32.477300
H -7.212400 -11.315800 -31.132800
H -7.163800 -12.898600 -31.157300
29
Fragment
O -13.198100 -12.027200 -45.811800
H -13.180300 -11.046600 -43.596600
H -13.128400 -12.627300 -43.503000
C -12.696300 -11.802800 -43.229400
H -12.693600 -11.744700 -42.261000
H -12.094900 -12.355400 -48.142900
C -12.016300 -12.063200 -46.125300
C -11.497300 -12.229600 -47.427400
C -11.291400 -11.787600 -43.732800
N -10.988200 -11.920500 -45.102100
N -10.366900 -11.652200 -42.844300
H -10.338900 -12.447400 -49.699200
C -10.160600 -12.213400 -47.682700
C -9.620600 -11.911900 -45.465100
C -9.608100 -12.371000 -49.066400
H -9.414000 -11.248900 -40.800600
N -9.219900 -12.051800 -46.711400
H -9.068000 -11.596500 -49.288900
H -9.060800 -13.170500 -49.106100
C -9.056600 -11.645900 -43.267500
N -8.667700 -11.767100 -44.532600
C -8.460700 -11.396300 -40.899600
H -8.211000 -12.215400 -40.443900
N -8.130700 -11.510500 -42.320300
H -7.975900 -10.650300 -40.513000
C -6.710700 -11.558700 -42.662200
H -6.611100 -11.576200 -43.625600
H -6.313500 -12.357500 -42.281100
H -6.264900 -10.774700 -42.305600
58
Fragment
O -14.097000 -11.646100 -34.663500
H -14.079200 -12.626700 -32.448300
H -14.027300 -11.046000 -32.354600
C -13.595300 -11.870500 -32.081100
H -13.592500 -11.928600 -31.112700
H -12.993900 -11.317900 -36.994600
C -12.915200 -11.610100 -34.977000
C -12.396200 -11.443700 -36.279100
C -12.190400 -11.885700 -32.584500
N -11.887100 -11.752800 -33.953800
N -11.265900 -12.021100 -31.696000
H -11.237900 -11.225900 -38.550900
C -11.059500 -11.459900 -36.534400
C -10.519500 -11.761400 -34.316700
C -10.507000 -11.302300 -37.918100
H -10.313000 -12.424400 -29.652300
N -10.118900 -11.621500 -35.563100
H -9.966900 -12.076800 -38.140600
H -9.959700 -10.502800 -37.957800
C -9.955500 -12.027400 -32.119200
N -9.566600 -11.906200 -33.384300
C -9.359600 -12.277000 -29.751300
H -9.109900 -11.457900 -29.295500
N -9.029600 -12.162800 -31.172000
H -8.874800 -13.023000 -29.364700
C -7.609600 -12.114600 -31.513800
H -7.510000 -12.097100 -32.477300
H -7.212400 -11.315800 -31.132800
H -7.163800 -12.898600 -31.157300
O -13.198100 -12.027200 -45.811800
H -13.180300 -11.046600 -43.596600
H -13.128400 -12.627300 -43.503000
C -12.696300 -11.802800 -43.229400
H -12.693600 -11.744700 -42.261000
H -12.094900 -12.355400 -48.142900
C -12.016300 -12.063200 -46.125300
C -11.497300 -12.229600 -47.427400
C -11.291400 -11.787600 -43.732800
N -10.988200 -11.920500 -45.102100
N -10.366900 -11.652200 -42.844300
H -10.338900 -12.447400 -49.699200
C -10.160600 -12.213400 -47.682700
C -9.620600 -11.911900 -45.465100
C -9.608100 -12.371000 -49.066400
H -9.414000 -11.248900 -40.800600
N -9.219900 -12.051800 -46.711400
H -9.068000 -11.596500 -49.288900
H -9.060800 -13.170500 -49.106100
C -9.056600 -11.645900 -43.267500
N -8.667700 -11.767100 -44.532600
C -8.460700 -11.396300 -40.899600
H -8.211000 -12.215400 -40.443900
N -8.130700 -11.510500 -42.320300
H -7.975900 -10.650300 -40.513000
C -6.710700 -11.558700 -42.662200
H -6.611100 -11.576200 -43.625600
H -6.313500 -12.357500 -42.281100
H -6.264900 -10.774700 -42.305600
