29
Fragment
O -14.097000 -11.646100 -34.663500
H -14.079200 -12.626700 -32.448300
H -14.027300 -11.046000 -32.354600
C -13.595300 -11.870500 -32.081100
H -13.592500 -11.928600 -31.112700
H -12.993900 -11.317900 -36.994600
C -12.915200 -11.610100 -34.977000
C -12.396200 -11.443700 -36.279100
C -12.190400 -11.885700 -32.584500
N -11.887100 -11.752800 -33.953800
N -11.265900 -12.021100 -31.696000
H -11.237900 -11.225900 -38.550900
C -11.059500 -11.459900 -36.534400
C -10.519500 -11.761400 -34.316700
C -10.507000 -11.302300 -37.918100
H -10.313000 -12.424400 -29.652300
N -10.118900 -11.621500 -35.563100
H -9.966900 -12.076800 -38.140600
H -9.959700 -10.502800 -37.957800
C -9.955500 -12.027400 -32.119200
N -9.566600 -11.906200 -33.384300
C -9.359600 -12.277000 -29.751300
H -9.109900 -11.457900 -29.295500
N -9.029600 -12.162800 -31.172000
H -8.874800 -13.023000 -29.364700
C -7.609600 -12.114600 -31.513800
H -7.510000 -12.097100 -32.477300
H -7.212400 -11.315800 -31.132800
H -7.163800 -12.898600 -31.157300
29
Fragment
H -13.978100 -16.280500 -46.880900
H -13.929500 -14.697700 -46.905400
H -13.631900 -15.479000 -45.560900
C -13.532200 -15.496500 -46.524400
H -12.267100 -16.404900 -48.673600
N -12.112300 -15.544700 -46.866200
H -12.031900 -14.839800 -48.742700
C -11.782300 -15.658900 -48.286900
N -11.575300 -15.288100 -44.653900
C -11.186400 -15.409300 -45.919000
H -11.182200 -13.884700 -40.080400
H -11.175000 -15.458700 -39.897600
N -11.023000 -15.003400 -42.475100
H -10.828900 -15.806300 -48.385900
C -10.634900 -14.684200 -40.120100
C -10.622400 -15.143300 -43.721500
C -10.082300 -14.841800 -41.503800
H -9.904000 -14.607800 -39.487300
N -9.876000 -15.403000 -46.342200
N -9.254800 -15.134700 -44.084500
C -8.951500 -15.267600 -45.453700
C -8.745600 -14.825600 -41.759100
C -8.226700 -14.992000 -43.061300
H -8.148000 -14.699800 -41.043600
H -7.549400 -15.310500 -46.925500
C -7.546600 -15.252400 -45.957200
H -7.114500 -14.427900 -45.683600
H -7.062700 -16.008600 -45.589900
O -7.044800 -15.028000 -43.374800
58
Fragment
O -14.097000 -11.646100 -34.663500
H -14.079200 -12.626700 -32.448300
H -14.027300 -11.046000 -32.354600
C -13.595300 -11.870500 -32.081100
H -13.592500 -11.928600 -31.112700
H -12.993900 -11.317900 -36.994600
C -12.915200 -11.610100 -34.977000
C -12.396200 -11.443700 -36.279100
C -12.190400 -11.885700 -32.584500
N -11.887100 -11.752800 -33.953800
N -11.265900 -12.021100 -31.696000
H -11.237900 -11.225900 -38.550900
C -11.059500 -11.459900 -36.534400
C -10.519500 -11.761400 -34.316700
C -10.507000 -11.302300 -37.918100
H -10.313000 -12.424400 -29.652300
N -10.118900 -11.621500 -35.563100
H -9.966900 -12.076800 -38.140600
H -9.959700 -10.502800 -37.957800
C -9.955500 -12.027400 -32.119200
N -9.566600 -11.906200 -33.384300
C -9.359600 -12.277000 -29.751300
H -9.109900 -11.457900 -29.295500
N -9.029600 -12.162800 -31.172000
H -8.874800 -13.023000 -29.364700
C -7.609600 -12.114600 -31.513800
H -7.510000 -12.097100 -32.477300
H -7.212400 -11.315800 -31.132800
H -7.163800 -12.898600 -31.157300
H -13.978100 -16.280500 -46.880900
H -13.929500 -14.697700 -46.905400
H -13.631900 -15.479000 -45.560900
C -13.532200 -15.496500 -46.524400
H -12.267100 -16.404900 -48.673600
N -12.112300 -15.544700 -46.866200
H -12.031900 -14.839800 -48.742700
C -11.782300 -15.658900 -48.286900
N -11.575300 -15.288100 -44.653900
C -11.186400 -15.409300 -45.919000
H -11.182200 -13.884700 -40.080400
H -11.175000 -15.458700 -39.897600
N -11.023000 -15.003400 -42.475100
H -10.828900 -15.806300 -48.385900
C -10.634900 -14.684200 -40.120100
C -10.622400 -15.143300 -43.721500
C -10.082300 -14.841800 -41.503800
H -9.904000 -14.607800 -39.487300
N -9.876000 -15.403000 -46.342200
N -9.254800 -15.134700 -44.084500
C -8.951500 -15.267600 -45.453700
C -8.745600 -14.825600 -41.759100
C -8.226700 -14.992000 -43.061300
H -8.148000 -14.699800 -41.043600
H -7.549400 -15.310500 -46.925500
C -7.546600 -15.252400 -45.957200
H -7.114500 -14.427900 -45.683600
H -7.062700 -16.008600 -45.589900
O -7.044800 -15.028000 -43.374800
