29
Fragment
O -14.097000 -11.646100 -34.663500
H -14.079200 -12.626700 -32.448300
H -14.027300 -11.046000 -32.354600
C -13.595300 -11.870500 -32.081100
H -13.592500 -11.928600 -31.112700
H -12.993900 -11.317900 -36.994600
C -12.915200 -11.610100 -34.977000
C -12.396200 -11.443700 -36.279100
C -12.190400 -11.885700 -32.584500
N -11.887100 -11.752800 -33.953800
N -11.265900 -12.021100 -31.696000
H -11.237900 -11.225900 -38.550900
C -11.059500 -11.459900 -36.534400
C -10.519500 -11.761400 -34.316700
C -10.507000 -11.302300 -37.918100
H -10.313000 -12.424400 -29.652300
N -10.118900 -11.621500 -35.563100
H -9.966900 -12.076800 -38.140600
H -9.959700 -10.502800 -37.957800
C -9.955500 -12.027400 -32.119200
N -9.566600 -11.906200 -33.384300
C -9.359600 -12.277000 -29.751300
H -9.109900 -11.457900 -29.295500
N -9.029600 -12.162800 -31.172000
H -8.874800 -13.023000 -29.364700
C -7.609600 -12.114600 -31.513800
H -7.510000 -12.097100 -32.477300
H -7.212400 -11.315800 -31.132800
H -7.163800 -12.898600 -31.157300
3
Fragment
H -7.311000 -13.175900 -37.712500
O -7.299800 -13.659500 -38.452300
H -7.236500 -14.420400 -38.183000
32
Fragment
O -14.097000 -11.646100 -34.663500
H -14.079200 -12.626700 -32.448300
H -14.027300 -11.046000 -32.354600
C -13.595300 -11.870500 -32.081100
H -13.592500 -11.928600 -31.112700
H -12.993900 -11.317900 -36.994600
C -12.915200 -11.610100 -34.977000
C -12.396200 -11.443700 -36.279100
C -12.190400 -11.885700 -32.584500
N -11.887100 -11.752800 -33.953800
N -11.265900 -12.021100 -31.696000
H -11.237900 -11.225900 -38.550900
C -11.059500 -11.459900 -36.534400
C -10.519500 -11.761400 -34.316700
C -10.507000 -11.302300 -37.918100
H -10.313000 -12.424400 -29.652300
N -10.118900 -11.621500 -35.563100
H -9.966900 -12.076800 -38.140600
H -9.959700 -10.502800 -37.957800
C -9.955500 -12.027400 -32.119200
N -9.566600 -11.906200 -33.384300
C -9.359600 -12.277000 -29.751300
H -9.109900 -11.457900 -29.295500
N -9.029600 -12.162800 -31.172000
H -8.874800 -13.023000 -29.364700
C -7.609600 -12.114600 -31.513800
H -7.510000 -12.097100 -32.477300
H -7.212400 -11.315800 -31.132800
H -7.163800 -12.898600 -31.157300
H -7.311000 -13.175900 -37.712500
O -7.299800 -13.659500 -38.452300
H -7.236500 -14.420400 -38.183000
