23
Fragment
O -16.324500 -9.860200 -11.340400
O -16.270500 -8.322300 -12.879200
N -15.866000 -9.403300 -12.391100
O -15.369200 -14.534700 -10.632400
N -15.095900 -12.190300 -11.953200
N -14.875900 -9.990400 -13.077600
C -14.544800 -11.230000 -12.699100
H -14.475300 -9.591900 -13.725300
N -14.377800 -14.462100 -11.355700
C -14.169400 -13.186900 -12.035100
O -14.156800 -11.129000 -15.654900
O -13.563000 -15.350600 -11.558300
N -13.346700 -11.722400 -13.204500
N -13.096400 -12.990500 -12.744100
N -13.064700 -10.681600 -15.425700
C -12.464400 -10.999600 -14.026100
O -12.354400 -10.044100 -16.153200
N -12.022800 -9.696900 -13.300700
O -11.900200 -8.676600 -13.928900
O -11.816800 -9.874400 -12.110800
O -11.414800 -12.832600 -14.953000
N -11.202200 -11.821800 -14.336100
O -10.144900 -11.350800 -13.962600
23
Fragment
O -18.675000 -15.296100 -6.499900
N -17.617700 -15.767200 -6.126500
O -17.405100 -16.778000 -5.509600
O -17.003100 -13.819800 -8.351800
O -16.919700 -12.622000 -6.533700
N -16.797100 -13.642200 -7.161900
O -16.465500 -13.989400 -4.309400
C -16.355500 -14.945000 -6.436500
N -15.755300 -14.627000 -5.036900
N -15.723500 -16.935800 -7.718500
N -15.473200 -15.667800 -7.258100
O -15.256900 -19.295900 -8.904300
O -14.663100 -15.074400 -4.807700
C -14.650500 -17.132300 -8.427500
N -14.442100 -18.407400 -9.106900
H -14.344600 -13.537300 -6.737300
C -14.275100 -15.175400 -7.763500
N -13.944000 -13.935800 -7.384900
N -13.724000 -16.135700 -8.509400
O -13.450700 -18.480000 -9.830200
N -12.953900 -13.348700 -8.071500
O -12.549400 -12.267700 -7.583400
O -12.495400 -13.805600 -9.122200
46
Fragment
O -16.324500 -9.860200 -11.340400
O -16.270500 -8.322300 -12.879200
N -15.866000 -9.403300 -12.391100
O -15.369200 -14.534700 -10.632400
N -15.095900 -12.190300 -11.953200
N -14.875900 -9.990400 -13.077600
C -14.544800 -11.230000 -12.699100
H -14.475300 -9.591900 -13.725300
N -14.377800 -14.462100 -11.355700
C -14.169400 -13.186900 -12.035100
O -14.156800 -11.129000 -15.654900
O -13.563000 -15.350600 -11.558300
N -13.346700 -11.722400 -13.204500
N -13.096400 -12.990500 -12.744100
N -13.064700 -10.681600 -15.425700
C -12.464400 -10.999600 -14.026100
O -12.354400 -10.044100 -16.153200
N -12.022800 -9.696900 -13.300700
O -11.900200 -8.676600 -13.928900
O -11.816800 -9.874400 -12.110800
O -11.414800 -12.832600 -14.953000
N -11.202200 -11.821800 -14.336100
O -10.144900 -11.350800 -13.962600
O -18.675000 -15.296100 -6.499900
N -17.617700 -15.767200 -6.126500
O -17.405100 -16.778000 -5.509600
O -17.003100 -13.819800 -8.351800
O -16.919700 -12.622000 -6.533700
N -16.797100 -13.642200 -7.161900
O -16.465500 -13.989400 -4.309400
C -16.355500 -14.945000 -6.436500
N -15.755300 -14.627000 -5.036900
N -15.723500 -16.935800 -7.718500
N -15.473200 -15.667800 -7.258100
O -15.256900 -19.295900 -8.904300
O -14.663100 -15.074400 -4.807700
C -14.650500 -17.132300 -8.427500
N -14.442100 -18.407400 -9.106900
H -14.344600 -13.537300 -6.737300
C -14.275100 -15.175400 -7.763500
N -13.944000 -13.935800 -7.384900
N -13.724000 -16.135700 -8.509400
O -13.450700 -18.480000 -9.830200
N -12.953900 -13.348700 -8.071500
O -12.549400 -12.267700 -7.583400
O -12.495400 -13.805600 -9.122200
