23
Fragment
O -16.324500 -9.860200 -11.340400
O -16.270500 -8.322300 -12.879200
N -15.866000 -9.403300 -12.391100
O -15.369200 -14.534700 -10.632400
N -15.095900 -12.190300 -11.953200
N -14.875900 -9.990400 -13.077600
C -14.544800 -11.230000 -12.699100
H -14.475300 -9.591900 -13.725300
N -14.377800 -14.462100 -11.355700
C -14.169400 -13.186900 -12.035100
O -14.156800 -11.129000 -15.654900
O -13.563000 -15.350600 -11.558300
N -13.346700 -11.722400 -13.204500
N -13.096400 -12.990500 -12.744100
N -13.064700 -10.681600 -15.425700
C -12.464400 -10.999600 -14.026100
O -12.354400 -10.044100 -16.153200
N -12.022800 -9.696900 -13.300700
O -11.900200 -8.676600 -13.928900
O -11.816800 -9.874400 -12.110800
O -11.414800 -12.832600 -14.953000
N -11.202200 -11.821800 -14.336100
O -10.144900 -11.350800 -13.962600
23
Fragment
O -18.675000 -7.405400 -6.499900
N -17.617700 -7.876500 -6.126500
O -17.405100 -8.887300 -5.509600
O -17.003100 -5.929100 -8.351800
O -16.919700 -4.731300 -6.533700
N -16.797100 -5.751500 -7.161900
O -16.465500 -6.098700 -4.309400
C -16.355500 -7.054300 -6.436500
N -15.755300 -6.736300 -5.036900
N -15.723500 -9.045100 -7.718500
N -15.473200 -7.777100 -7.258100
O -15.256900 -11.405200 -8.904300
O -14.663100 -7.183700 -4.807700
C -14.650500 -9.241600 -8.427500
N -14.442100 -10.516700 -9.106900
H -14.344600 -5.646600 -6.737300
C -14.275100 -7.284700 -7.763500
N -13.944000 -6.045100 -7.384900
N -13.724000 -8.245000 -8.509400
O -13.450700 -10.589300 -9.830200
N -12.953900 -5.458000 -8.071500
O -12.549400 -4.377000 -7.583400
O -12.495400 -5.914900 -9.122200
46
Fragment
O -16.324500 -9.860200 -11.340400
O -16.270500 -8.322300 -12.879200
N -15.866000 -9.403300 -12.391100
O -15.369200 -14.534700 -10.632400
N -15.095900 -12.190300 -11.953200
N -14.875900 -9.990400 -13.077600
C -14.544800 -11.230000 -12.699100
H -14.475300 -9.591900 -13.725300
N -14.377800 -14.462100 -11.355700
C -14.169400 -13.186900 -12.035100
O -14.156800 -11.129000 -15.654900
O -13.563000 -15.350600 -11.558300
N -13.346700 -11.722400 -13.204500
N -13.096400 -12.990500 -12.744100
N -13.064700 -10.681600 -15.425700
C -12.464400 -10.999600 -14.026100
O -12.354400 -10.044100 -16.153200
N -12.022800 -9.696900 -13.300700
O -11.900200 -8.676600 -13.928900
O -11.816800 -9.874400 -12.110800
O -11.414800 -12.832600 -14.953000
N -11.202200 -11.821800 -14.336100
O -10.144900 -11.350800 -13.962600
O -18.675000 -7.405400 -6.499900
N -17.617700 -7.876500 -6.126500
O -17.405100 -8.887300 -5.509600
O -17.003100 -5.929100 -8.351800
O -16.919700 -4.731300 -6.533700
N -16.797100 -5.751500 -7.161900
O -16.465500 -6.098700 -4.309400
C -16.355500 -7.054300 -6.436500
N -15.755300 -6.736300 -5.036900
N -15.723500 -9.045100 -7.718500
N -15.473200 -7.777100 -7.258100
O -15.256900 -11.405200 -8.904300
O -14.663100 -7.183700 -4.807700
C -14.650500 -9.241600 -8.427500
N -14.442100 -10.516700 -9.106900
H -14.344600 -5.646600 -6.737300
C -14.275100 -7.284700 -7.763500
N -13.944000 -6.045100 -7.384900
N -13.724000 -8.245000 -8.509400
O -13.450700 -10.589300 -9.830200
N -12.953900 -5.458000 -8.071500
O -12.549400 -4.377000 -7.583400
O -12.495400 -5.914900 -9.122200
