51
Fragment
O -27.879200 -35.178900 -10.365100
H -27.857200 -34.266100 -9.980400
H -27.114100 -37.084000 -11.843600
H -26.985000 -43.168500 -12.012100
C -26.912600 -36.096900 -10.199000
C -26.645000 -37.053200 -11.119200
H -26.369500 -35.425100 -8.479100
H -26.193200 -44.104400 -9.144100
O -26.188400 -43.655700 -12.348300
C -26.161700 -36.094300 -9.077700
H -26.048300 -42.189100 -10.169800
H -25.785400 -46.158200 -7.813600
C -25.673700 -37.971200 -10.935100
C -25.566600 -44.809500 -9.432600
H -25.563500 -38.586600 -11.605900
H -25.417000 -41.471100 -11.403000
C -25.344600 -45.989000 -8.647600
C -25.283200 -42.130100 -10.753200
H -25.256500 -40.445500 -8.831700
C -25.127400 -37.048100 -8.870800
C -25.073800 -43.422400 -11.466600
C -24.891200 -44.655700 -10.646600
C -24.886500 -38.009600 -9.833600
H -24.581100 -37.027600 -8.049600
C -24.466200 -46.942800 -9.118500
C -24.308700 -40.484000 -9.177300
H -24.300900 -43.342900 -12.070900
F -24.239500 -48.037700 -8.380600
C -24.091500 -41.776200 -9.949500
C -24.030100 -45.660800 -11.049300
H -23.935600 -42.481400 -9.307300
C -23.841200 -39.063500 -9.711800
C -23.816000 -46.799200 -10.292800
H -23.578300 -45.604400 -11.836600
H -23.346800 -39.173700 -10.537000
H -23.323200 -41.678800 -10.482800
H -23.241400 -47.437700 -10.598200
C -23.184700 -40.219900 -8.139400
N -22.956400 -38.958300 -8.545000
O -22.690400 -40.850600 -7.216200
H -22.392800 -36.884000 -9.826000
C -21.963000 -38.035300 -8.305500
C -21.837100 -36.958400 -9.138900
H -21.204200 -38.958300 -6.652700
C -21.095600 -38.168600 -7.217400
C -20.826400 -36.002000 -8.859100
H -20.697300 -35.227600 -9.402900
C -20.095900 -37.181400 -6.987200
C -20.012500 -36.158400 -7.809500
H -19.486700 -37.196800 -6.308800
F -19.075800 -35.227600 -7.581000
51
Fragment
O -27.879200 -35.178900 -4.537100
H -27.857200 -34.266100 -4.152400
H -27.114100 -37.084000 -6.015700
H -26.985000 -43.168500 -6.184100
C -26.912600 -36.096900 -4.371000
C -26.645000 -37.053200 -5.291200
H -26.369500 -35.425100 -2.651200
H -26.193200 -44.104400 -3.316100
O -26.188400 -43.655700 -6.520400
C -26.161700 -36.094300 -3.249700
H -26.048300 -42.189100 -4.341900
H -25.785400 -46.158200 -1.985600
C -25.673700 -37.971200 -5.107100
C -25.566600 -44.809500 -3.604600
H -25.563500 -38.586600 -5.777900
H -25.417000 -41.471100 -5.575100
C -25.344600 -45.989000 -2.819600
C -25.283200 -42.130100 -4.925200
H -25.256500 -40.445500 -3.003700
C -25.127400 -37.048100 -3.042800
C -25.073800 -43.422400 -5.638600
C -24.891200 -44.655700 -4.818600
C -24.886500 -38.009600 -4.005600
H -24.581100 -37.027600 -2.221600
C -24.466200 -46.942800 -3.290500
C -24.308700 -40.484000 -3.349300
H -24.300900 -43.342900 -6.242900
F -24.239500 -48.037700 -2.552700
C -24.091500 -41.776200 -4.121600
C -24.030100 -45.660800 -5.221300
H -23.935600 -42.481400 -3.479300
C -23.841200 -39.063500 -3.883800
C -23.816000 -46.799200 -4.464800
H -23.578300 -45.604400 -6.008700
H -23.346800 -39.173700 -4.709000
H -23.323200 -41.678800 -4.654800
H -23.241400 -47.437700 -4.770200
C -23.184700 -40.219900 -2.311400
N -22.956400 -38.958300 -2.717000
O -22.690400 -40.850600 -1.388200
H -22.392800 -36.884000 -3.998000
C -21.963000 -38.035300 -2.477500
C -21.837100 -36.958400 -3.310900
H -21.204200 -38.958300 -0.824700
C -21.095600 -38.168600 -1.389400
C -20.826400 -36.002000 -3.031100
H -20.697300 -35.227600 -3.574900
C -20.095900 -37.181400 -1.159200
C -20.012500 -36.158400 -1.981500
H -19.486700 -37.196800 -0.480800
F -19.075800 -35.227600 -1.753100
102
Fragment
O -27.879200 -35.178900 -10.365100
H -27.857200 -34.266100 -9.980400
H -27.114100 -37.084000 -11.843600
H -26.985000 -43.168500 -12.012100
C -26.912600 -36.096900 -10.199000
C -26.645000 -37.053200 -11.119200
H -26.369500 -35.425100 -8.479100
H -26.193200 -44.104400 -9.144100
O -26.188400 -43.655700 -12.348300
C -26.161700 -36.094300 -9.077700
H -26.048300 -42.189100 -10.169800
H -25.785400 -46.158200 -7.813600
C -25.673700 -37.971200 -10.935100
C -25.566600 -44.809500 -9.432600
H -25.563500 -38.586600 -11.605900
H -25.417000 -41.471100 -11.403000
C -25.344600 -45.989000 -8.647600
C -25.283200 -42.130100 -10.753200
H -25.256500 -40.445500 -8.831700
C -25.127400 -37.048100 -8.870800
C -25.073800 -43.422400 -11.466600
C -24.891200 -44.655700 -10.646600
C -24.886500 -38.009600 -9.833600
H -24.581100 -37.027600 -8.049600
C -24.466200 -46.942800 -9.118500
C -24.308700 -40.484000 -9.177300
H -24.300900 -43.342900 -12.070900
F -24.239500 -48.037700 -8.380600
C -24.091500 -41.776200 -9.949500
C -24.030100 -45.660800 -11.049300
H -23.935600 -42.481400 -9.307300
C -23.841200 -39.063500 -9.711800
C -23.816000 -46.799200 -10.292800
H -23.578300 -45.604400 -11.836600
H -23.346800 -39.173700 -10.537000
H -23.323200 -41.678800 -10.482800
H -23.241400 -47.437700 -10.598200
C -23.184700 -40.219900 -8.139400
N -22.956400 -38.958300 -8.545000
O -22.690400 -40.850600 -7.216200
H -22.392800 -36.884000 -9.826000
C -21.963000 -38.035300 -8.305500
C -21.837100 -36.958400 -9.138900
H -21.204200 -38.958300 -6.652700
C -21.095600 -38.168600 -7.217400
C -20.826400 -36.002000 -8.859100
H -20.697300 -35.227600 -9.402900
C -20.095900 -37.181400 -6.987200
C -20.012500 -36.158400 -7.809500
H -19.486700 -37.196800 -6.308800
F -19.075800 -35.227600 -7.581000
O -27.879200 -35.178900 -4.537100
H -27.857200 -34.266100 -4.152400
H -27.114100 -37.084000 -6.015700
H -26.985000 -43.168500 -6.184100
C -26.912600 -36.096900 -4.371000
C -26.645000 -37.053200 -5.291200
H -26.369500 -35.425100 -2.651200
H -26.193200 -44.104400 -3.316100
O -26.188400 -43.655700 -6.520400
C -26.161700 -36.094300 -3.249700
H -26.048300 -42.189100 -4.341900
H -25.785400 -46.158200 -1.985600
C -25.673700 -37.971200 -5.107100
C -25.566600 -44.809500 -3.604600
H -25.563500 -38.586600 -5.777900
H -25.417000 -41.471100 -5.575100
C -25.344600 -45.989000 -2.819600
C -25.283200 -42.130100 -4.925200
H -25.256500 -40.445500 -3.003700
C -25.127400 -37.048100 -3.042800
C -25.073800 -43.422400 -5.638600
C -24.891200 -44.655700 -4.818600
C -24.886500 -38.009600 -4.005600
H -24.581100 -37.027600 -2.221600
C -24.466200 -46.942800 -3.290500
C -24.308700 -40.484000 -3.349300
H -24.300900 -43.342900 -6.242900
F -24.239500 -48.037700 -2.552700
C -24.091500 -41.776200 -4.121600
C -24.030100 -45.660800 -5.221300
H -23.935600 -42.481400 -3.479300
C -23.841200 -39.063500 -3.883800
C -23.816000 -46.799200 -4.464800
H -23.578300 -45.604400 -6.008700
H -23.346800 -39.173700 -4.709000
H -23.323200 -41.678800 -4.654800
H -23.241400 -47.437700 -4.770200
C -23.184700 -40.219900 -2.311400
N -22.956400 -38.958300 -2.717000
O -22.690400 -40.850600 -1.388200
H -22.392800 -36.884000 -3.998000
C -21.963000 -38.035300 -2.477500
C -21.837100 -36.958400 -3.310900
H -21.204200 -38.958300 -0.824700
C -21.095600 -38.168600 -1.389400
C -20.826400 -36.002000 -3.031100
H -20.697300 -35.227600 -3.574900
C -20.095900 -37.181400 -1.159200
C -20.012500 -36.158400 -1.981500
H -19.486700 -37.196800 -0.480800
F -19.075800 -35.227600 -1.753100
