51
Fragment
O -27.879200 -35.178900 -10.365100
H -27.857200 -34.266100 -9.980400
H -27.114100 -37.084000 -11.843600
H -26.985000 -43.168500 -12.012100
C -26.912600 -36.096900 -10.199000
C -26.645000 -37.053200 -11.119200
H -26.369500 -35.425100 -8.479100
H -26.193200 -44.104400 -9.144100
O -26.188400 -43.655700 -12.348300
C -26.161700 -36.094300 -9.077700
H -26.048300 -42.189100 -10.169800
H -25.785400 -46.158200 -7.813600
C -25.673700 -37.971200 -10.935100
C -25.566600 -44.809500 -9.432600
H -25.563500 -38.586600 -11.605900
H -25.417000 -41.471100 -11.403000
C -25.344600 -45.989000 -8.647600
C -25.283200 -42.130100 -10.753200
H -25.256500 -40.445500 -8.831700
C -25.127400 -37.048100 -8.870800
C -25.073800 -43.422400 -11.466600
C -24.891200 -44.655700 -10.646600
C -24.886500 -38.009600 -9.833600
H -24.581100 -37.027600 -8.049600
C -24.466200 -46.942800 -9.118500
C -24.308700 -40.484000 -9.177300
H -24.300900 -43.342900 -12.070900
F -24.239500 -48.037700 -8.380600
C -24.091500 -41.776200 -9.949500
C -24.030100 -45.660800 -11.049300
H -23.935600 -42.481400 -9.307300
C -23.841200 -39.063500 -9.711800
C -23.816000 -46.799200 -10.292800
H -23.578300 -45.604400 -11.836600
H -23.346800 -39.173700 -10.537000
H -23.323200 -41.678800 -10.482800
H -23.241400 -47.437700 -10.598200
C -23.184700 -40.219900 -8.139400
N -22.956400 -38.958300 -8.545000
O -22.690400 -40.850600 -7.216200
H -22.392800 -36.884000 -9.826000
C -21.963000 -38.035300 -8.305500
C -21.837100 -36.958400 -9.138900
H -21.204200 -38.958300 -6.652700
C -21.095600 -38.168600 -7.217400
C -20.826400 -36.002000 -8.859100
H -20.697300 -35.227600 -9.402900
C -20.095900 -37.181400 -6.987200
C -20.012500 -36.158400 -7.809500
H -19.486700 -37.196800 -6.308800
F -19.075800 -35.227600 -7.581000
9
Fragment
H -22.199200 -44.450600 -9.236200
H -22.085800 -42.530100 -7.628800
C -21.783600 -44.499300 -8.405100
N -21.657600 -43.501900 -7.477300
C -21.183800 -45.542900 -7.870700
H -21.103500 -46.509500 -8.340400
C -20.987000 -43.968500 -6.389800
H -20.719300 -43.486500 -5.471300
N -20.694100 -45.271100 -6.656700
60
Fragment
O -27.879200 -35.178900 -10.365100
H -27.857200 -34.266100 -9.980400
H -27.114100 -37.084000 -11.843600
H -26.985000 -43.168500 -12.012100
C -26.912600 -36.096900 -10.199000
C -26.645000 -37.053200 -11.119200
H -26.369500 -35.425100 -8.479100
H -26.193200 -44.104400 -9.144100
O -26.188400 -43.655700 -12.348300
C -26.161700 -36.094300 -9.077700
H -26.048300 -42.189100 -10.169800
H -25.785400 -46.158200 -7.813600
C -25.673700 -37.971200 -10.935100
C -25.566600 -44.809500 -9.432600
H -25.563500 -38.586600 -11.605900
H -25.417000 -41.471100 -11.403000
C -25.344600 -45.989000 -8.647600
C -25.283200 -42.130100 -10.753200
H -25.256500 -40.445500 -8.831700
C -25.127400 -37.048100 -8.870800
C -25.073800 -43.422400 -11.466600
C -24.891200 -44.655700 -10.646600
C -24.886500 -38.009600 -9.833600
H -24.581100 -37.027600 -8.049600
C -24.466200 -46.942800 -9.118500
C -24.308700 -40.484000 -9.177300
H -24.300900 -43.342900 -12.070900
F -24.239500 -48.037700 -8.380600
C -24.091500 -41.776200 -9.949500
C -24.030100 -45.660800 -11.049300
H -23.935600 -42.481400 -9.307300
C -23.841200 -39.063500 -9.711800
C -23.816000 -46.799200 -10.292800
H -23.578300 -45.604400 -11.836600
H -23.346800 -39.173700 -10.537000
H -23.323200 -41.678800 -10.482800
H -23.241400 -47.437700 -10.598200
C -23.184700 -40.219900 -8.139400
N -22.956400 -38.958300 -8.545000
O -22.690400 -40.850600 -7.216200
H -22.392800 -36.884000 -9.826000
C -21.963000 -38.035300 -8.305500
C -21.837100 -36.958400 -9.138900
H -21.204200 -38.958300 -6.652700
C -21.095600 -38.168600 -7.217400
C -20.826400 -36.002000 -8.859100
H -20.697300 -35.227600 -9.402900
C -20.095900 -37.181400 -6.987200
C -20.012500 -36.158400 -7.809500
H -19.486700 -37.196800 -6.308800
F -19.075800 -35.227600 -7.581000
H -22.199200 -44.450600 -9.236200
H -22.085800 -42.530100 -7.628800
C -21.783600 -44.499300 -8.405100
N -21.657600 -43.501900 -7.477300
C -21.183800 -45.542900 -7.870700
H -21.103500 -46.509500 -8.340400
C -20.987000 -43.968500 -6.389800
H -20.719300 -43.486500 -5.471300
N -20.694100 -45.271100 -6.656700
