51
Fragment
O -27.879200 -35.178900 -10.365100
H -27.857200 -34.266100 -9.980400
H -27.114100 -37.084000 -11.843600
H -26.985000 -43.168500 -12.012100
C -26.912600 -36.096900 -10.199000
C -26.645000 -37.053200 -11.119200
H -26.369500 -35.425100 -8.479100
H -26.193200 -44.104400 -9.144100
O -26.188400 -43.655700 -12.348300
C -26.161700 -36.094300 -9.077700
H -26.048300 -42.189100 -10.169800
H -25.785400 -46.158200 -7.813600
C -25.673700 -37.971200 -10.935100
C -25.566600 -44.809500 -9.432600
H -25.563500 -38.586600 -11.605900
H -25.417000 -41.471100 -11.403000
C -25.344600 -45.989000 -8.647600
C -25.283200 -42.130100 -10.753200
H -25.256500 -40.445500 -8.831700
C -25.127400 -37.048100 -8.870800
C -25.073800 -43.422400 -11.466600
C -24.891200 -44.655700 -10.646600
C -24.886500 -38.009600 -9.833600
H -24.581100 -37.027600 -8.049600
C -24.466200 -46.942800 -9.118500
C -24.308700 -40.484000 -9.177300
H -24.300900 -43.342900 -12.070900
F -24.239500 -48.037700 -8.380600
C -24.091500 -41.776200 -9.949500
C -24.030100 -45.660800 -11.049300
H -23.935600 -42.481400 -9.307300
C -23.841200 -39.063500 -9.711800
C -23.816000 -46.799200 -10.292800
H -23.578300 -45.604400 -11.836600
H -23.346800 -39.173700 -10.537000
H -23.323200 -41.678800 -10.482800
H -23.241400 -47.437700 -10.598200
C -23.184700 -40.219900 -8.139400
N -22.956400 -38.958300 -8.545000
O -22.690400 -40.850600 -7.216200
H -22.392800 -36.884000 -9.826000
C -21.963000 -38.035300 -8.305500
C -21.837100 -36.958400 -9.138900
H -21.204200 -38.958300 -6.652700
C -21.095600 -38.168600 -7.217400
C -20.826400 -36.002000 -8.859100
H -20.697300 -35.227600 -9.402900
C -20.095900 -37.181400 -6.987200
C -20.012500 -36.158400 -7.809500
H -19.486700 -37.196800 -6.308800
F -19.075800 -35.227600 -7.581000
51
Fragment
F -36.024700 -41.694200 -4.667100
H -35.613800 -39.725000 -3.394800
C -35.088000 -40.763400 -4.895500
C -35.004500 -39.740400 -4.073200
H -34.403100 -41.694200 -6.488900
C -34.274000 -40.919800 -5.945100
C -34.004800 -38.753200 -4.303400
H -33.896200 -37.963500 -3.738700
C -33.263300 -39.963500 -6.224900
C -33.137400 -38.886500 -5.391500
H -32.707600 -40.037800 -6.912000
O -32.410100 -36.071200 -4.302200
N -32.144000 -37.963500 -5.631000
C -31.915700 -36.702000 -5.225400
H -31.859100 -29.484100 -7.684200
H -31.777200 -35.243000 -7.568800
H -31.753600 -37.748100 -7.623000
H -31.522200 -31.317400 -8.922700
C -31.284400 -30.122600 -7.378800
C -31.259300 -37.858400 -6.797800
H -31.164800 -34.440500 -6.393300
C -31.070300 -31.261000 -8.135300
C -31.008900 -35.145600 -7.035500
F -30.861000 -28.884100 -5.466700
H -30.799600 -33.578900 -9.156900
C -30.791700 -36.437900 -6.263300
C -30.634300 -29.979000 -6.204500
H -30.519300 -39.894200 -5.135600
C -30.213900 -38.912200 -6.919600
C -30.209200 -32.266100 -7.732600
C -30.026600 -33.499500 -8.552600
C -29.973100 -39.873700 -5.956800
H -29.844000 -36.476300 -5.917700
C -29.817200 -34.791700 -7.839200
C -29.755800 -30.932800 -5.733600
H -29.683400 -35.450700 -8.489100
H -29.537000 -38.335300 -8.691900
C -29.533800 -32.112300 -6.518600
C -29.426800 -38.950700 -8.021100
H -29.315000 -30.763600 -4.899600
H -29.052100 -34.732800 -7.255800
C -28.938700 -40.827500 -6.163700
O -28.912000 -33.266100 -9.434400
H -28.907300 -32.817400 -6.230100
H -28.730900 -41.496800 -5.565100
C -28.455400 -39.868600 -8.205200
C -28.187800 -40.825000 -7.285000
H -28.115400 -33.753300 -9.098100
H -27.986300 -39.837800 -8.929600
H -27.243200 -42.655700 -7.066400
O -27.221200 -41.742900 -7.451100
102
Fragment
O -27.879200 -35.178900 -10.365100
H -27.857200 -34.266100 -9.980400
H -27.114100 -37.084000 -11.843600
H -26.985000 -43.168500 -12.012100
C -26.912600 -36.096900 -10.199000
C -26.645000 -37.053200 -11.119200
H -26.369500 -35.425100 -8.479100
H -26.193200 -44.104400 -9.144100
O -26.188400 -43.655700 -12.348300
C -26.161700 -36.094300 -9.077700
H -26.048300 -42.189100 -10.169800
H -25.785400 -46.158200 -7.813600
C -25.673700 -37.971200 -10.935100
C -25.566600 -44.809500 -9.432600
H -25.563500 -38.586600 -11.605900
H -25.417000 -41.471100 -11.403000
C -25.344600 -45.989000 -8.647600
C -25.283200 -42.130100 -10.753200
H -25.256500 -40.445500 -8.831700
C -25.127400 -37.048100 -8.870800
C -25.073800 -43.422400 -11.466600
C -24.891200 -44.655700 -10.646600
C -24.886500 -38.009600 -9.833600
H -24.581100 -37.027600 -8.049600
C -24.466200 -46.942800 -9.118500
C -24.308700 -40.484000 -9.177300
H -24.300900 -43.342900 -12.070900
F -24.239500 -48.037700 -8.380600
C -24.091500 -41.776200 -9.949500
C -24.030100 -45.660800 -11.049300
H -23.935600 -42.481400 -9.307300
C -23.841200 -39.063500 -9.711800
C -23.816000 -46.799200 -10.292800
H -23.578300 -45.604400 -11.836600
H -23.346800 -39.173700 -10.537000
H -23.323200 -41.678800 -10.482800
H -23.241400 -47.437700 -10.598200
C -23.184700 -40.219900 -8.139400
N -22.956400 -38.958300 -8.545000
O -22.690400 -40.850600 -7.216200
H -22.392800 -36.884000 -9.826000
C -21.963000 -38.035300 -8.305500
C -21.837100 -36.958400 -9.138900
H -21.204200 -38.958300 -6.652700
C -21.095600 -38.168600 -7.217400
C -20.826400 -36.002000 -8.859100
H -20.697300 -35.227600 -9.402900
C -20.095900 -37.181400 -6.987200
C -20.012500 -36.158400 -7.809500
H -19.486700 -37.196800 -6.308800
F -19.075800 -35.227600 -7.581000
F -36.024700 -41.694200 -4.667100
H -35.613800 -39.725000 -3.394800
C -35.088000 -40.763400 -4.895500
C -35.004500 -39.740400 -4.073200
H -34.403100 -41.694200 -6.488900
C -34.274000 -40.919800 -5.945100
C -34.004800 -38.753200 -4.303400
H -33.896200 -37.963500 -3.738700
C -33.263300 -39.963500 -6.224900
C -33.137400 -38.886500 -5.391500
H -32.707600 -40.037800 -6.912000
O -32.410100 -36.071200 -4.302200
N -32.144000 -37.963500 -5.631000
C -31.915700 -36.702000 -5.225400
H -31.859100 -29.484100 -7.684200
H -31.777200 -35.243000 -7.568800
H -31.753600 -37.748100 -7.623000
H -31.522200 -31.317400 -8.922700
C -31.284400 -30.122600 -7.378800
C -31.259300 -37.858400 -6.797800
H -31.164800 -34.440500 -6.393300
C -31.070300 -31.261000 -8.135300
C -31.008900 -35.145600 -7.035500
F -30.861000 -28.884100 -5.466700
H -30.799600 -33.578900 -9.156900
C -30.791700 -36.437900 -6.263300
C -30.634300 -29.979000 -6.204500
H -30.519300 -39.894200 -5.135600
C -30.213900 -38.912200 -6.919600
C -30.209200 -32.266100 -7.732600
C -30.026600 -33.499500 -8.552600
C -29.973100 -39.873700 -5.956800
H -29.844000 -36.476300 -5.917700
C -29.817200 -34.791700 -7.839200
C -29.755800 -30.932800 -5.733600
H -29.683400 -35.450700 -8.489100
H -29.537000 -38.335300 -8.691900
C -29.533800 -32.112300 -6.518600
C -29.426800 -38.950700 -8.021100
H -29.315000 -30.763600 -4.899600
H -29.052100 -34.732800 -7.255800
C -28.938700 -40.827500 -6.163700
O -28.912000 -33.266100 -9.434400
H -28.907300 -32.817400 -6.230100
H -28.730900 -41.496800 -5.565100
C -28.455400 -39.868600 -8.205200
C -28.187800 -40.825000 -7.285000
H -28.115400 -33.753300 -9.098100
H -27.986300 -39.837800 -8.929600
H -27.243200 -42.655700 -7.066400
O -27.221200 -41.742900 -7.451100
