51
Fragment
O -27.879200 -35.178900 -10.365100
H -27.857200 -34.266100 -9.980400
H -27.114100 -37.084000 -11.843600
H -26.985000 -43.168500 -12.012100
C -26.912600 -36.096900 -10.199000
C -26.645000 -37.053200 -11.119200
H -26.369500 -35.425100 -8.479100
H -26.193200 -44.104400 -9.144100
O -26.188400 -43.655700 -12.348300
C -26.161700 -36.094300 -9.077700
H -26.048300 -42.189100 -10.169800
H -25.785400 -46.158200 -7.813600
C -25.673700 -37.971200 -10.935100
C -25.566600 -44.809500 -9.432600
H -25.563500 -38.586600 -11.605900
H -25.417000 -41.471100 -11.403000
C -25.344600 -45.989000 -8.647600
C -25.283200 -42.130100 -10.753200
H -25.256500 -40.445500 -8.831700
C -25.127400 -37.048100 -8.870800
C -25.073800 -43.422400 -11.466600
C -24.891200 -44.655700 -10.646600
C -24.886500 -38.009600 -9.833600
H -24.581100 -37.027600 -8.049600
C -24.466200 -46.942800 -9.118500
C -24.308700 -40.484000 -9.177300
H -24.300900 -43.342900 -12.070900
F -24.239500 -48.037700 -8.380600
C -24.091500 -41.776200 -9.949500
C -24.030100 -45.660800 -11.049300
H -23.935600 -42.481400 -9.307300
C -23.841200 -39.063500 -9.711800
C -23.816000 -46.799200 -10.292800
H -23.578300 -45.604400 -11.836600
H -23.346800 -39.173700 -10.537000
H -23.323200 -41.678800 -10.482800
H -23.241400 -47.437700 -10.598200
C -23.184700 -40.219900 -8.139400
N -22.956400 -38.958300 -8.545000
O -22.690400 -40.850600 -7.216200
H -22.392800 -36.884000 -9.826000
C -21.963000 -38.035300 -8.305500
C -21.837100 -36.958400 -9.138900
H -21.204200 -38.958300 -6.652700
C -21.095600 -38.168600 -7.217400
C -20.826400 -36.002000 -8.859100
H -20.697300 -35.227600 -9.402900
C -20.095900 -37.181400 -6.987200
C -20.012500 -36.158400 -7.809500
H -19.486700 -37.196800 -6.308800
F -19.075800 -35.227600 -7.581000
51
Fragment
F -20.281700 -41.694200 -10.495000
H -19.870800 -39.725000 -9.222800
C -19.345000 -40.763400 -10.723500
C -19.261500 -39.740400 -9.901200
H -18.660200 -41.694200 -12.316900
C -18.531100 -40.919800 -11.773100
C -18.261900 -38.753200 -10.131400
H -18.153200 -37.963500 -9.566600
C -17.520400 -39.963500 -12.052900
C -17.394400 -38.886500 -11.219500
H -16.964600 -40.037800 -12.740000
O -16.667100 -36.071200 -10.130200
N -16.401000 -37.963500 -11.459000
C -16.172800 -36.702000 -11.053400
H -16.116100 -29.484100 -13.512200
H -16.034200 -35.243000 -13.396800
H -16.010600 -37.748100 -13.451000
H -15.779200 -31.317400 -14.750600
C -15.541500 -30.122600 -13.206800
C -15.516300 -37.858400 -12.625800
H -15.421800 -34.440500 -12.221300
C -15.327400 -31.261000 -13.963300
C -15.266000 -35.145600 -12.863500
F -15.118000 -28.884100 -11.294600
H -15.056600 -33.578900 -14.984900
C -15.048700 -36.437900 -12.091300
C -14.891300 -29.979000 -12.032500
H -14.776400 -39.894200 -10.963600
C -14.470900 -38.912200 -12.747600
C -14.466200 -32.266100 -13.560600
C -14.283600 -33.499500 -14.380600
C -14.230100 -39.873700 -11.784800
H -14.101000 -36.476300 -11.745700
C -14.074200 -34.791700 -13.667200
C -14.012800 -30.932800 -11.561600
H -13.940400 -35.450700 -14.317000
H -13.794000 -38.335300 -14.519900
C -13.790900 -32.112300 -12.346600
C -13.683800 -38.950700 -13.849100
H -13.572000 -30.763600 -10.727600
H -13.309100 -34.732800 -13.083800
C -13.195800 -40.827500 -11.991700
O -13.169000 -33.266100 -15.262300
H -13.164300 -32.817400 -12.058100
H -12.988000 -41.496800 -11.393100
C -12.712500 -39.868600 -14.033200
C -12.444800 -40.825000 -13.113000
H -12.372400 -33.753300 -14.926100
H -12.243300 -39.837800 -14.757600
H -11.500200 -42.655700 -12.894400
O -11.478200 -41.742900 -13.279100
102
Fragment
O -27.879200 -35.178900 -10.365100
H -27.857200 -34.266100 -9.980400
H -27.114100 -37.084000 -11.843600
H -26.985000 -43.168500 -12.012100
C -26.912600 -36.096900 -10.199000
C -26.645000 -37.053200 -11.119200
H -26.369500 -35.425100 -8.479100
H -26.193200 -44.104400 -9.144100
O -26.188400 -43.655700 -12.348300
C -26.161700 -36.094300 -9.077700
H -26.048300 -42.189100 -10.169800
H -25.785400 -46.158200 -7.813600
C -25.673700 -37.971200 -10.935100
C -25.566600 -44.809500 -9.432600
H -25.563500 -38.586600 -11.605900
H -25.417000 -41.471100 -11.403000
C -25.344600 -45.989000 -8.647600
C -25.283200 -42.130100 -10.753200
H -25.256500 -40.445500 -8.831700
C -25.127400 -37.048100 -8.870800
C -25.073800 -43.422400 -11.466600
C -24.891200 -44.655700 -10.646600
C -24.886500 -38.009600 -9.833600
H -24.581100 -37.027600 -8.049600
C -24.466200 -46.942800 -9.118500
C -24.308700 -40.484000 -9.177300
H -24.300900 -43.342900 -12.070900
F -24.239500 -48.037700 -8.380600
C -24.091500 -41.776200 -9.949500
C -24.030100 -45.660800 -11.049300
H -23.935600 -42.481400 -9.307300
C -23.841200 -39.063500 -9.711800
C -23.816000 -46.799200 -10.292800
H -23.578300 -45.604400 -11.836600
H -23.346800 -39.173700 -10.537000
H -23.323200 -41.678800 -10.482800
H -23.241400 -47.437700 -10.598200
C -23.184700 -40.219900 -8.139400
N -22.956400 -38.958300 -8.545000
O -22.690400 -40.850600 -7.216200
H -22.392800 -36.884000 -9.826000
C -21.963000 -38.035300 -8.305500
C -21.837100 -36.958400 -9.138900
H -21.204200 -38.958300 -6.652700
C -21.095600 -38.168600 -7.217400
C -20.826400 -36.002000 -8.859100
H -20.697300 -35.227600 -9.402900
C -20.095900 -37.181400 -6.987200
C -20.012500 -36.158400 -7.809500
H -19.486700 -37.196800 -6.308800
F -19.075800 -35.227600 -7.581000
F -20.281700 -41.694200 -10.495000
H -19.870800 -39.725000 -9.222800
C -19.345000 -40.763400 -10.723500
C -19.261500 -39.740400 -9.901200
H -18.660200 -41.694200 -12.316900
C -18.531100 -40.919800 -11.773100
C -18.261900 -38.753200 -10.131400
H -18.153200 -37.963500 -9.566600
C -17.520400 -39.963500 -12.052900
C -17.394400 -38.886500 -11.219500
H -16.964600 -40.037800 -12.740000
O -16.667100 -36.071200 -10.130200
N -16.401000 -37.963500 -11.459000
C -16.172800 -36.702000 -11.053400
H -16.116100 -29.484100 -13.512200
H -16.034200 -35.243000 -13.396800
H -16.010600 -37.748100 -13.451000
H -15.779200 -31.317400 -14.750600
C -15.541500 -30.122600 -13.206800
C -15.516300 -37.858400 -12.625800
H -15.421800 -34.440500 -12.221300
C -15.327400 -31.261000 -13.963300
C -15.266000 -35.145600 -12.863500
F -15.118000 -28.884100 -11.294600
H -15.056600 -33.578900 -14.984900
C -15.048700 -36.437900 -12.091300
C -14.891300 -29.979000 -12.032500
H -14.776400 -39.894200 -10.963600
C -14.470900 -38.912200 -12.747600
C -14.466200 -32.266100 -13.560600
C -14.283600 -33.499500 -14.380600
C -14.230100 -39.873700 -11.784800
H -14.101000 -36.476300 -11.745700
C -14.074200 -34.791700 -13.667200
C -14.012800 -30.932800 -11.561600
H -13.940400 -35.450700 -14.317000
H -13.794000 -38.335300 -14.519900
C -13.790900 -32.112300 -12.346600
C -13.683800 -38.950700 -13.849100
H -13.572000 -30.763600 -10.727600
H -13.309100 -34.732800 -13.083800
C -13.195800 -40.827500 -11.991700
O -13.169000 -33.266100 -15.262300
H -13.164300 -32.817400 -12.058100
H -12.988000 -41.496800 -11.393100
C -12.712500 -39.868600 -14.033200
C -12.444800 -40.825000 -13.113000
H -12.372400 -33.753300 -14.926100
H -12.243300 -39.837800 -14.757600
H -11.500200 -42.655700 -12.894400
O -11.478200 -41.742900 -13.279100
