51
Fragment
O -27.879200 -35.178900 -10.365100
H -27.857200 -34.266100 -9.980400
H -27.114100 -37.084000 -11.843600
H -26.985000 -43.168500 -12.012100
C -26.912600 -36.096900 -10.199000
C -26.645000 -37.053200 -11.119200
H -26.369500 -35.425100 -8.479100
H -26.193200 -44.104400 -9.144100
O -26.188400 -43.655700 -12.348300
C -26.161700 -36.094300 -9.077700
H -26.048300 -42.189100 -10.169800
H -25.785400 -46.158200 -7.813600
C -25.673700 -37.971200 -10.935100
C -25.566600 -44.809500 -9.432600
H -25.563500 -38.586600 -11.605900
H -25.417000 -41.471100 -11.403000
C -25.344600 -45.989000 -8.647600
C -25.283200 -42.130100 -10.753200
H -25.256500 -40.445500 -8.831700
C -25.127400 -37.048100 -8.870800
C -25.073800 -43.422400 -11.466600
C -24.891200 -44.655700 -10.646600
C -24.886500 -38.009600 -9.833600
H -24.581100 -37.027600 -8.049600
C -24.466200 -46.942800 -9.118500
C -24.308700 -40.484000 -9.177300
H -24.300900 -43.342900 -12.070900
F -24.239500 -48.037700 -8.380600
C -24.091500 -41.776200 -9.949500
C -24.030100 -45.660800 -11.049300
H -23.935600 -42.481400 -9.307300
C -23.841200 -39.063500 -9.711800
C -23.816000 -46.799200 -10.292800
H -23.578300 -45.604400 -11.836600
H -23.346800 -39.173700 -10.537000
H -23.323200 -41.678800 -10.482800
H -23.241400 -47.437700 -10.598200
C -23.184700 -40.219900 -8.139400
N -22.956400 -38.958300 -8.545000
O -22.690400 -40.850600 -7.216200
H -22.392800 -36.884000 -9.826000
C -21.963000 -38.035300 -8.305500
C -21.837100 -36.958400 -9.138900
H -21.204200 -38.958300 -6.652700
C -21.095600 -38.168600 -7.217400
C -20.826400 -36.002000 -8.859100
H -20.697300 -35.227600 -9.402900
C -20.095900 -37.181400 -6.987200
C -20.012500 -36.158400 -7.809500
H -19.486700 -37.196800 -6.308800
F -19.075800 -35.227600 -7.581000
51
Fragment
F -28.153200 -22.407300 -6.988900
H -27.742300 -24.376500 -8.261200
C -27.216500 -23.338100 -6.760500
C -27.133000 -24.361100 -7.582800
H -26.531600 -22.407300 -5.167100
C -26.402600 -23.181700 -5.710800
C -26.133300 -25.348300 -7.352600
H -26.024700 -26.138000 -7.917300
C -25.391900 -24.138100 -5.431100
C -25.265900 -25.215000 -6.264500
H -24.836100 -24.063700 -4.744000
O -24.538600 -28.030300 -7.353800
N -24.272500 -26.138000 -6.025000
C -24.044300 -27.399600 -6.430600
H -23.987600 -34.617400 -3.971800
H -23.905700 -28.858500 -4.087200
H -23.882100 -26.353400 -4.033000
H -23.650700 -32.784100 -2.733300
C -23.413000 -33.978900 -4.277200
C -23.387800 -26.243200 -4.858200
H -23.293300 -29.661100 -5.262700
C -23.198900 -32.840500 -3.520700
C -23.137500 -28.955900 -4.620400
F -22.989500 -35.217400 -6.189300
H -22.928100 -30.522600 -2.499000
C -22.920200 -27.663700 -5.392600
C -22.762800 -34.122500 -5.451500
H -22.647900 -24.207300 -6.520400
C -22.342400 -25.189300 -4.736400
C -22.337700 -31.835400 -3.923400
C -22.155100 -30.602100 -3.103400
C -22.101600 -24.227800 -5.699200
H -21.972500 -27.625200 -5.738200
C -21.945700 -29.309800 -3.816800
C -21.884300 -33.168700 -5.922400
H -21.811900 -28.650800 -3.166900
H -21.665500 -25.766200 -2.964100
C -21.662300 -31.989200 -5.137400
C -21.555300 -25.150900 -3.634900
H -21.443500 -33.337900 -6.756400
H -21.180600 -29.368800 -4.400100
C -21.067300 -23.274000 -5.492300
O -21.040500 -30.835400 -2.221600
H -21.035800 -31.284100 -5.425900
H -20.859400 -22.604800 -6.090800
C -20.583900 -24.232900 -3.450800
C -20.316300 -23.276500 -4.371000
H -20.243900 -30.348200 -2.557900
H -20.114800 -24.263700 -2.726300
H -19.371700 -21.445800 -4.589500
O -19.349700 -22.358600 -4.204900
102
Fragment
O -27.879200 -35.178900 -10.365100
H -27.857200 -34.266100 -9.980400
H -27.114100 -37.084000 -11.843600
H -26.985000 -43.168500 -12.012100
C -26.912600 -36.096900 -10.199000
C -26.645000 -37.053200 -11.119200
H -26.369500 -35.425100 -8.479100
H -26.193200 -44.104400 -9.144100
O -26.188400 -43.655700 -12.348300
C -26.161700 -36.094300 -9.077700
H -26.048300 -42.189100 -10.169800
H -25.785400 -46.158200 -7.813600
C -25.673700 -37.971200 -10.935100
C -25.566600 -44.809500 -9.432600
H -25.563500 -38.586600 -11.605900
H -25.417000 -41.471100 -11.403000
C -25.344600 -45.989000 -8.647600
C -25.283200 -42.130100 -10.753200
H -25.256500 -40.445500 -8.831700
C -25.127400 -37.048100 -8.870800
C -25.073800 -43.422400 -11.466600
C -24.891200 -44.655700 -10.646600
C -24.886500 -38.009600 -9.833600
H -24.581100 -37.027600 -8.049600
C -24.466200 -46.942800 -9.118500
C -24.308700 -40.484000 -9.177300
H -24.300900 -43.342900 -12.070900
F -24.239500 -48.037700 -8.380600
C -24.091500 -41.776200 -9.949500
C -24.030100 -45.660800 -11.049300
H -23.935600 -42.481400 -9.307300
C -23.841200 -39.063500 -9.711800
C -23.816000 -46.799200 -10.292800
H -23.578300 -45.604400 -11.836600
H -23.346800 -39.173700 -10.537000
H -23.323200 -41.678800 -10.482800
H -23.241400 -47.437700 -10.598200
C -23.184700 -40.219900 -8.139400
N -22.956400 -38.958300 -8.545000
O -22.690400 -40.850600 -7.216200
H -22.392800 -36.884000 -9.826000
C -21.963000 -38.035300 -8.305500
C -21.837100 -36.958400 -9.138900
H -21.204200 -38.958300 -6.652700
C -21.095600 -38.168600 -7.217400
C -20.826400 -36.002000 -8.859100
H -20.697300 -35.227600 -9.402900
C -20.095900 -37.181400 -6.987200
C -20.012500 -36.158400 -7.809500
H -19.486700 -37.196800 -6.308800
F -19.075800 -35.227600 -7.581000
F -28.153200 -22.407300 -6.988900
H -27.742300 -24.376500 -8.261200
C -27.216500 -23.338100 -6.760500
C -27.133000 -24.361100 -7.582800
H -26.531600 -22.407300 -5.167100
C -26.402600 -23.181700 -5.710800
C -26.133300 -25.348300 -7.352600
H -26.024700 -26.138000 -7.917300
C -25.391900 -24.138100 -5.431100
C -25.265900 -25.215000 -6.264500
H -24.836100 -24.063700 -4.744000
O -24.538600 -28.030300 -7.353800
N -24.272500 -26.138000 -6.025000
C -24.044300 -27.399600 -6.430600
H -23.987600 -34.617400 -3.971800
H -23.905700 -28.858500 -4.087200
H -23.882100 -26.353400 -4.033000
H -23.650700 -32.784100 -2.733300
C -23.413000 -33.978900 -4.277200
C -23.387800 -26.243200 -4.858200
H -23.293300 -29.661100 -5.262700
C -23.198900 -32.840500 -3.520700
C -23.137500 -28.955900 -4.620400
F -22.989500 -35.217400 -6.189300
H -22.928100 -30.522600 -2.499000
C -22.920200 -27.663700 -5.392600
C -22.762800 -34.122500 -5.451500
H -22.647900 -24.207300 -6.520400
C -22.342400 -25.189300 -4.736400
C -22.337700 -31.835400 -3.923400
C -22.155100 -30.602100 -3.103400
C -22.101600 -24.227800 -5.699200
H -21.972500 -27.625200 -5.738200
C -21.945700 -29.309800 -3.816800
C -21.884300 -33.168700 -5.922400
H -21.811900 -28.650800 -3.166900
H -21.665500 -25.766200 -2.964100
C -21.662300 -31.989200 -5.137400
C -21.555300 -25.150900 -3.634900
H -21.443500 -33.337900 -6.756400
H -21.180600 -29.368800 -4.400100
C -21.067300 -23.274000 -5.492300
O -21.040500 -30.835400 -2.221600
H -21.035800 -31.284100 -5.425900
H -20.859400 -22.604800 -6.090800
C -20.583900 -24.232900 -3.450800
C -20.316300 -23.276500 -4.371000
H -20.243900 -30.348200 -2.557900
H -20.114800 -24.263700 -2.726300
H -19.371700 -21.445800 -4.589500
O -19.349700 -22.358600 -4.204900
