23
Fragment
H -6.577700 -24.640100 -22.315600
O -6.441600 -24.073900 -19.591900
C -6.321100 -25.504500 -22.070600
H -6.251900 -26.673500 -23.800800
C -6.127200 -26.626600 -22.889800
N -6.067900 -25.233000 -19.581400
C -6.036900 -25.916100 -20.823400
H -5.953300 -31.729900 -23.278500
O -5.750500 -25.827400 -18.572800
C -5.730900 -27.642900 -22.081900
O -5.662300 -27.216600 -20.778000
H -5.482600 -29.319200 -23.275600
C -5.427500 -29.019200 -22.357100
N -5.140100 -29.807200 -21.388200
C -5.031200 -31.796100 -22.953500
N -4.891200 -31.112400 -21.681100
C -4.702700 -33.219700 -22.563900
O -4.696400 -34.193900 -23.292000
C -4.540500 -31.970200 -20.667500
N -4.417800 -33.223100 -21.239900
H -4.397200 -31.442300 -23.589100
O -4.366600 -31.702300 -19.504500
H -4.139700 -34.050900 -20.742800
12
Fragment
H -9.421900 -33.508100 -29.225200
H -9.294900 -35.082200 -25.153400
N -9.252100 -34.117500 -26.848600
N -9.117900 -32.805800 -28.737800
C -9.107700 -34.203000 -25.528500
H -9.074500 -31.958700 -29.102300
C -9.015300 -32.917100 -27.404200
C -8.730000 -33.143000 -24.749200
N -8.669900 -31.814900 -26.718400
H -8.605900 -33.256100 -23.810700
C -8.529700 -31.960300 -25.400500
H -8.237000 -31.188700 -24.914800
35
Fragment
H -6.577700 -24.640100 -22.315600
O -6.441600 -24.073900 -19.591900
C -6.321100 -25.504500 -22.070600
H -6.251900 -26.673500 -23.800800
C -6.127200 -26.626600 -22.889800
N -6.067900 -25.233000 -19.581400
C -6.036900 -25.916100 -20.823400
H -5.953300 -31.729900 -23.278500
O -5.750500 -25.827400 -18.572800
C -5.730900 -27.642900 -22.081900
O -5.662300 -27.216600 -20.778000
H -5.482600 -29.319200 -23.275600
C -5.427500 -29.019200 -22.357100
N -5.140100 -29.807200 -21.388200
C -5.031200 -31.796100 -22.953500
N -4.891200 -31.112400 -21.681100
C -4.702700 -33.219700 -22.563900
O -4.696400 -34.193900 -23.292000
C -4.540500 -31.970200 -20.667500
N -4.417800 -33.223100 -21.239900
H -4.397200 -31.442300 -23.589100
O -4.366600 -31.702300 -19.504500
H -4.139700 -34.050900 -20.742800
H -9.421900 -33.508100 -29.225200
H -9.294900 -35.082200 -25.153400
N -9.252100 -34.117500 -26.848600
N -9.117900 -32.805800 -28.737800
C -9.107700 -34.203000 -25.528500
H -9.074500 -31.958700 -29.102300
C -9.015300 -32.917100 -27.404200
C -8.730000 -33.143000 -24.749200
N -8.669900 -31.814900 -26.718400
H -8.605900 -33.256100 -23.810700
C -8.529700 -31.960300 -25.400500
H -8.237000 -31.188700 -24.914800
