23
Fragment
O -18.759200 -5.642800 -29.868000
O -18.383600 -9.134800 -25.079800
H -18.139600 -4.552300 -32.105000
C -17.717900 -5.600800 -30.479600
N -17.499300 -4.990100 -31.686600
N -17.278100 -9.608300 -24.888400
O -17.014900 -10.458500 -24.045400
N -16.518500 -6.154400 -30.093700
O -16.503600 -8.354000 -26.719600
N -16.474300 -6.852600 -28.939200
C -16.217700 -5.128100 -32.119300
C -16.192900 -9.178400 -25.695500
O -15.785600 -4.695900 -33.162000
C -15.465500 -5.918000 -31.070000
C -15.353100 -7.350400 -28.567600
C -15.313200 -8.141900 -27.373600
H -15.121300 -6.773000 -31.428400
C -14.886000 -9.488500 -25.660400
H -14.731600 -5.408900 -30.738200
H -14.540300 -7.272600 -29.009700
H -14.525600 -10.064300 -25.017500
C -14.316100 -8.817600 -26.748600
H -13.454100 -8.811200 -27.030300
23
Fragment
H -13.607400 -4.845800 -33.780300
C -12.745500 -4.852100 -34.062000
H -12.536000 -6.098900 -35.793100
H -12.521200 -3.307200 -31.800900
H -12.330000 -1.443400 -30.072400
C -12.175600 -5.523100 -35.150200
H -11.940200 -2.807500 -29.382200
C -11.748400 -4.176400 -33.437000
C -11.708500 -3.384900 -32.243000
C -11.596000 -1.952600 -29.740600
O -11.276000 -0.730400 -27.648600
C -10.868700 -5.213000 -35.115100
C -10.843900 -1.162700 -28.691400
N -10.587300 -2.887200 -31.871400
O -10.557900 -4.388600 -34.091000
N -10.543100 -2.188900 -30.717000
O -10.046700 -6.493000 -36.765200
N -9.783500 -5.642800 -35.922200
N -9.562300 -1.024700 -29.124000
C -9.343600 -1.635400 -30.331000
H -8.922000 -0.586900 -28.705600
O -8.678000 -5.169400 -35.730800
O -8.302400 -1.677400 -30.942600
46
Fragment
O -18.759200 -5.642800 -29.868000
O -18.383600 -9.134800 -25.079800
H -18.139600 -4.552300 -32.105000
C -17.717900 -5.600800 -30.479600
N -17.499300 -4.990100 -31.686600
N -17.278100 -9.608300 -24.888400
O -17.014900 -10.458500 -24.045400
N -16.518500 -6.154400 -30.093700
O -16.503600 -8.354000 -26.719600
N -16.474300 -6.852600 -28.939200
C -16.217700 -5.128100 -32.119300
C -16.192900 -9.178400 -25.695500
O -15.785600 -4.695900 -33.162000
C -15.465500 -5.918000 -31.070000
C -15.353100 -7.350400 -28.567600
C -15.313200 -8.141900 -27.373600
H -15.121300 -6.773000 -31.428400
C -14.886000 -9.488500 -25.660400
H -14.731600 -5.408900 -30.738200
H -14.540300 -7.272600 -29.009700
H -14.525600 -10.064300 -25.017500
C -14.316100 -8.817600 -26.748600
H -13.454100 -8.811200 -27.030300
H -13.607400 -4.845800 -33.780300
C -12.745500 -4.852100 -34.062000
H -12.536000 -6.098900 -35.793100
H -12.521200 -3.307200 -31.800900
H -12.330000 -1.443400 -30.072400
C -12.175600 -5.523100 -35.150200
H -11.940200 -2.807500 -29.382200
C -11.748400 -4.176400 -33.437000
C -11.708500 -3.384900 -32.243000
C -11.596000 -1.952600 -29.740600
O -11.276000 -0.730400 -27.648600
C -10.868700 -5.213000 -35.115100
C -10.843900 -1.162700 -28.691400
N -10.587300 -2.887200 -31.871400
O -10.557900 -4.388600 -34.091000
N -10.543100 -2.188900 -30.717000
O -10.046700 -6.493000 -36.765200
N -9.783500 -5.642800 -35.922200
N -9.562300 -1.024700 -29.124000
C -9.343600 -1.635400 -30.331000
H -8.922000 -0.586900 -28.705600
O -8.678000 -5.169400 -35.730800
O -8.302400 -1.677400 -30.942600
