23
Fragment
O -18.759200 -5.642800 -29.868000
O -18.383600 -9.134800 -25.079800
H -18.139600 -4.552300 -32.105000
C -17.717900 -5.600800 -30.479600
N -17.499300 -4.990100 -31.686600
N -17.278100 -9.608300 -24.888400
O -17.014900 -10.458500 -24.045400
N -16.518500 -6.154400 -30.093700
O -16.503600 -8.354000 -26.719600
N -16.474300 -6.852600 -28.939200
C -16.217700 -5.128100 -32.119300
C -16.192900 -9.178400 -25.695500
O -15.785600 -4.695900 -33.162000
C -15.465500 -5.918000 -31.070000
C -15.353100 -7.350400 -28.567600
C -15.313200 -8.141900 -27.373600
H -15.121300 -6.773000 -31.428400
C -14.886000 -9.488500 -25.660400
H -14.731600 -5.408900 -30.738200
H -14.540300 -7.272600 -29.009700
H -14.525600 -10.064300 -25.017500
C -14.316100 -8.817600 -26.748600
H -13.454100 -8.811200 -27.030300
23
Fragment
O -12.230200 -6.253500 -29.868000
O -11.854600 -2.761500 -25.079800
H -11.610600 -7.344000 -32.105000
C -11.188900 -6.295500 -30.479600
N -10.970300 -6.906200 -31.686600
N -10.749100 -2.288100 -24.888400
O -10.485900 -1.437900 -24.045400
N -9.989500 -5.742000 -30.093700
O -9.974600 -3.542300 -26.719600
N -9.945300 -5.043700 -28.939200
C -9.688700 -6.768200 -32.119300
C -9.663900 -2.717900 -25.695500
O -9.256600 -7.200500 -33.162000
C -8.936500 -5.978300 -31.070000
C -8.824100 -4.546000 -28.567600
C -8.784200 -3.754500 -27.373600
H -8.592300 -5.123400 -31.428400
C -8.357000 -2.407800 -25.660400
H -8.202600 -6.487500 -30.738200
H -8.011300 -4.623700 -29.009700
H -7.996600 -1.832000 -25.017500
C -7.787100 -3.078800 -26.748600
H -6.925100 -3.085100 -27.030300
46
Fragment
O -18.759200 -5.642800 -29.868000
O -18.383600 -9.134800 -25.079800
H -18.139600 -4.552300 -32.105000
C -17.717900 -5.600800 -30.479600
N -17.499300 -4.990100 -31.686600
N -17.278100 -9.608300 -24.888400
O -17.014900 -10.458500 -24.045400
N -16.518500 -6.154400 -30.093700
O -16.503600 -8.354000 -26.719600
N -16.474300 -6.852600 -28.939200
C -16.217700 -5.128100 -32.119300
C -16.192900 -9.178400 -25.695500
O -15.785600 -4.695900 -33.162000
C -15.465500 -5.918000 -31.070000
C -15.353100 -7.350400 -28.567600
C -15.313200 -8.141900 -27.373600
H -15.121300 -6.773000 -31.428400
C -14.886000 -9.488500 -25.660400
H -14.731600 -5.408900 -30.738200
H -14.540300 -7.272600 -29.009700
H -14.525600 -10.064300 -25.017500
C -14.316100 -8.817600 -26.748600
H -13.454100 -8.811200 -27.030300
O -12.230200 -6.253500 -29.868000
O -11.854600 -2.761500 -25.079800
H -11.610600 -7.344000 -32.105000
C -11.188900 -6.295500 -30.479600
N -10.970300 -6.906200 -31.686600
N -10.749100 -2.288100 -24.888400
O -10.485900 -1.437900 -24.045400
N -9.989500 -5.742000 -30.093700
O -9.974600 -3.542300 -26.719600
N -9.945300 -5.043700 -28.939200
C -9.688700 -6.768200 -32.119300
C -9.663900 -2.717900 -25.695500
O -9.256600 -7.200500 -33.162000
C -8.936500 -5.978300 -31.070000
C -8.824100 -4.546000 -28.567600
C -8.784200 -3.754500 -27.373600
H -8.592300 -5.123400 -31.428400
C -8.357000 -2.407800 -25.660400
H -8.202600 -6.487500 -30.738200
H -8.011300 -4.623700 -29.009700
H -7.996600 -1.832000 -25.017500
C -7.787100 -3.078800 -26.748600
H -6.925100 -3.085100 -27.030300
