23
Fragment
O -18.759200 -5.642800 -29.868000
O -18.383600 -9.134800 -25.079800
H -18.139600 -4.552300 -32.105000
C -17.717900 -5.600800 -30.479600
N -17.499300 -4.990100 -31.686600
N -17.278100 -9.608300 -24.888400
O -17.014900 -10.458500 -24.045400
N -16.518500 -6.154400 -30.093700
O -16.503600 -8.354000 -26.719600
N -16.474300 -6.852600 -28.939200
C -16.217700 -5.128100 -32.119300
C -16.192900 -9.178400 -25.695500
O -15.785600 -4.695900 -33.162000
C -15.465500 -5.918000 -31.070000
C -15.353100 -7.350400 -28.567600
C -15.313200 -8.141900 -27.373600
H -15.121300 -6.773000 -31.428400
C -14.886000 -9.488500 -25.660400
H -14.731600 -5.408900 -30.738200
H -14.540300 -7.272600 -29.009700
H -14.525600 -10.064300 -25.017500
C -14.316100 -8.817600 -26.748600
H -13.454100 -8.811200 -27.030300
15
Fragment
H -17.211500 -10.508400 -19.614500
H -16.454400 -9.318800 -17.876800
C -16.325900 -10.100000 -19.708100
N -15.919400 -9.425900 -18.613500
H -15.794300 -10.627400 -21.539100
C -15.540000 -10.179300 -20.789200
C -14.723900 -8.776300 -18.521100
O -14.465100 -8.147400 -17.479300
C -14.266400 -9.575800 -20.768000
C -13.885100 -8.903200 -19.658200
H -13.738000 -9.234000 -22.707400
C -13.349200 -9.692400 -21.958600
H -13.227600 -10.618800 -22.178800
H -13.041900 -8.406800 -19.573400
H -12.499900 -9.298800 -21.747900
38
Fragment
O -18.759200 -5.642800 -29.868000
O -18.383600 -9.134800 -25.079800
H -18.139600 -4.552300 -32.105000
C -17.717900 -5.600800 -30.479600
N -17.499300 -4.990100 -31.686600
N -17.278100 -9.608300 -24.888400
O -17.014900 -10.458500 -24.045400
N -16.518500 -6.154400 -30.093700
O -16.503600 -8.354000 -26.719600
N -16.474300 -6.852600 -28.939200
C -16.217700 -5.128100 -32.119300
C -16.192900 -9.178400 -25.695500
O -15.785600 -4.695900 -33.162000
C -15.465500 -5.918000 -31.070000
C -15.353100 -7.350400 -28.567600
C -15.313200 -8.141900 -27.373600
H -15.121300 -6.773000 -31.428400
C -14.886000 -9.488500 -25.660400
H -14.731600 -5.408900 -30.738200
H -14.540300 -7.272600 -29.009700
H -14.525600 -10.064300 -25.017500
C -14.316100 -8.817600 -26.748600
H -13.454100 -8.811200 -27.030300
H -17.211500 -10.508400 -19.614500
H -16.454400 -9.318800 -17.876800
C -16.325900 -10.100000 -19.708100
N -15.919400 -9.425900 -18.613500
H -15.794300 -10.627400 -21.539100
C -15.540000 -10.179300 -20.789200
C -14.723900 -8.776300 -18.521100
O -14.465100 -8.147400 -17.479300
C -14.266400 -9.575800 -20.768000
C -13.885100 -8.903200 -19.658200
H -13.738000 -9.234000 -22.707400
C -13.349200 -9.692400 -21.958600
H -13.227600 -10.618800 -22.178800
H -13.041900 -8.406800 -19.573400
H -12.499900 -9.298800 -21.747900
