23
Fragment
O -18.759200 -5.642800 -29.868000
O -18.383600 -9.134800 -25.079800
H -18.139600 -4.552300 -32.105000
C -17.717900 -5.600800 -30.479600
N -17.499300 -4.990100 -31.686600
N -17.278100 -9.608300 -24.888400
O -17.014900 -10.458500 -24.045400
N -16.518500 -6.154400 -30.093700
O -16.503600 -8.354000 -26.719600
N -16.474300 -6.852600 -28.939200
C -16.217700 -5.128100 -32.119300
C -16.192900 -9.178400 -25.695500
O -15.785600 -4.695900 -33.162000
C -15.465500 -5.918000 -31.070000
C -15.353100 -7.350400 -28.567600
C -15.313200 -8.141900 -27.373600
H -15.121300 -6.773000 -31.428400
C -14.886000 -9.488500 -25.660400
H -14.731600 -5.408900 -30.738200
H -14.540300 -7.272600 -29.009700
H -14.525600 -10.064300 -25.017500
C -14.316100 -8.817600 -26.748600
H -13.454100 -8.811200 -27.030300
23
Fragment
H -20.136400 -7.050600 -33.780300
C -19.274500 -7.044200 -34.062000
H -19.065000 -5.797500 -35.793100
H -19.050200 -8.589200 -31.800900
H -18.859000 -10.452900 -30.072400
C -18.704600 -6.373300 -35.150200
H -18.469200 -9.088800 -29.382200
C -18.277400 -7.719900 -33.437000
C -18.237500 -8.511400 -32.243000
C -18.125000 -9.943800 -29.740600
O -17.805000 -11.165900 -27.648600
C -17.397700 -6.683400 -35.115100
C -17.372900 -10.733700 -28.691400
N -17.116300 -9.009200 -31.871400
O -17.086900 -7.507800 -34.091000
N -17.072100 -9.707400 -30.717000
O -16.575700 -5.403300 -36.765200
N -16.312500 -6.253500 -35.922200
N -16.091300 -10.871700 -29.124000
C -15.872600 -10.261000 -30.331000
H -15.451000 -11.309500 -28.705600
O -15.207000 -6.727000 -35.730800
O -14.831400 -10.219000 -30.942600
46
Fragment
O -18.759200 -5.642800 -29.868000
O -18.383600 -9.134800 -25.079800
H -18.139600 -4.552300 -32.105000
C -17.717900 -5.600800 -30.479600
N -17.499300 -4.990100 -31.686600
N -17.278100 -9.608300 -24.888400
O -17.014900 -10.458500 -24.045400
N -16.518500 -6.154400 -30.093700
O -16.503600 -8.354000 -26.719600
N -16.474300 -6.852600 -28.939200
C -16.217700 -5.128100 -32.119300
C -16.192900 -9.178400 -25.695500
O -15.785600 -4.695900 -33.162000
C -15.465500 -5.918000 -31.070000
C -15.353100 -7.350400 -28.567600
C -15.313200 -8.141900 -27.373600
H -15.121300 -6.773000 -31.428400
C -14.886000 -9.488500 -25.660400
H -14.731600 -5.408900 -30.738200
H -14.540300 -7.272600 -29.009700
H -14.525600 -10.064300 -25.017500
C -14.316100 -8.817600 -26.748600
H -13.454100 -8.811200 -27.030300
H -20.136400 -7.050600 -33.780300
C -19.274500 -7.044200 -34.062000
H -19.065000 -5.797500 -35.793100
H -19.050200 -8.589200 -31.800900
H -18.859000 -10.452900 -30.072400
C -18.704600 -6.373300 -35.150200
H -18.469200 -9.088800 -29.382200
C -18.277400 -7.719900 -33.437000
C -18.237500 -8.511400 -32.243000
C -18.125000 -9.943800 -29.740600
O -17.805000 -11.165900 -27.648600
C -17.397700 -6.683400 -35.115100
C -17.372900 -10.733700 -28.691400
N -17.116300 -9.009200 -31.871400
O -17.086900 -7.507800 -34.091000
N -17.072100 -9.707400 -30.717000
O -16.575700 -5.403300 -36.765200
N -16.312500 -6.253500 -35.922200
N -16.091300 -10.871700 -29.124000
C -15.872600 -10.261000 -30.331000
H -15.451000 -11.309500 -28.705600
O -15.207000 -6.727000 -35.730800
O -14.831400 -10.219000 -30.942600
