23
Fragment
H -6.577700 -24.640100 -22.315600
O -6.441600 -24.073900 -19.591900
C -6.321100 -25.504500 -22.070600
H -6.251900 -26.673500 -23.800800
C -6.127200 -26.626600 -22.889800
N -6.067900 -25.233000 -19.581400
C -6.036900 -25.916100 -20.823400
H -5.953300 -31.729900 -23.278500
O -5.750500 -25.827400 -18.572800
C -5.730900 -27.642900 -22.081900
O -5.662300 -27.216600 -20.778000
H -5.482600 -29.319200 -23.275600
C -5.427500 -29.019200 -22.357100
N -5.140100 -29.807200 -21.388200
C -5.031200 -31.796100 -22.953500
N -4.891200 -31.112400 -21.681100
C -4.702700 -33.219700 -22.563900
O -4.696400 -34.193900 -23.292000
C -4.540500 -31.970200 -20.667500
N -4.417800 -33.223100 -21.239900
H -4.397200 -31.442300 -23.589100
O -4.366600 -31.702300 -19.504500
H -4.139700 -34.050900 -20.742800
12
Fragment
H -10.507600 -23.457200 -24.499700
C -10.214900 -24.228800 -24.014000
H -10.138600 -25.524600 -25.603800
N -10.074700 -24.083500 -22.696100
C -10.014600 -25.411600 -24.665300
C -9.729300 -25.185700 -22.010400
H -9.670000 -24.227300 -20.312200
C -9.636900 -26.471600 -23.886000
N -9.626600 -25.074300 -20.676700
N -9.492400 -26.386000 -22.565900
H -9.449600 -27.350800 -24.261100
H -9.322600 -25.776700 -20.189400
35
Fragment
H -6.577700 -24.640100 -22.315600
O -6.441600 -24.073900 -19.591900
C -6.321100 -25.504500 -22.070600
H -6.251900 -26.673500 -23.800800
C -6.127200 -26.626600 -22.889800
N -6.067900 -25.233000 -19.581400
C -6.036900 -25.916100 -20.823400
H -5.953300 -31.729900 -23.278500
O -5.750500 -25.827400 -18.572800
C -5.730900 -27.642900 -22.081900
O -5.662300 -27.216600 -20.778000
H -5.482600 -29.319200 -23.275600
C -5.427500 -29.019200 -22.357100
N -5.140100 -29.807200 -21.388200
C -5.031200 -31.796100 -22.953500
N -4.891200 -31.112400 -21.681100
C -4.702700 -33.219700 -22.563900
O -4.696400 -34.193900 -23.292000
C -4.540500 -31.970200 -20.667500
N -4.417800 -33.223100 -21.239900
H -4.397200 -31.442300 -23.589100
O -4.366600 -31.702300 -19.504500
H -4.139700 -34.050900 -20.742800
H -10.507600 -23.457200 -24.499700
C -10.214900 -24.228800 -24.014000
H -10.138600 -25.524600 -25.603800
N -10.074700 -24.083500 -22.696100
C -10.014600 -25.411600 -24.665300
C -9.729300 -25.185700 -22.010400
H -9.670000 -24.227300 -20.312200
C -9.636900 -26.471600 -23.886000
N -9.626600 -25.074300 -20.676700
N -9.492400 -26.386000 -22.565900
H -9.449600 -27.350800 -24.261100
H -9.322600 -25.776700 -20.189400
