23
Fragment
H -6.577700 -24.640100 -22.315600
O -6.441600 -24.073900 -19.591900
C -6.321100 -25.504500 -22.070600
H -6.251900 -26.673500 -23.800800
C -6.127200 -26.626600 -22.889800
N -6.067900 -25.233000 -19.581400
C -6.036900 -25.916100 -20.823400
H -5.953300 -31.729900 -23.278500
O -5.750500 -25.827400 -18.572800
C -5.730900 -27.642900 -22.081900
O -5.662300 -27.216600 -20.778000
H -5.482600 -29.319200 -23.275600
C -5.427500 -29.019200 -22.357100
N -5.140100 -29.807200 -21.388200
C -5.031200 -31.796100 -22.953500
N -4.891200 -31.112400 -21.681100
C -4.702700 -33.219700 -22.563900
O -4.696400 -34.193900 -23.292000
C -4.540500 -31.970200 -20.667500
N -4.417800 -33.223100 -21.239900
H -4.397200 -31.442300 -23.589100
O -4.366600 -31.702300 -19.504500
H -4.139700 -34.050900 -20.742800
12
Fragment
H -3.817800 -36.074900 -22.165900
H -3.690800 -34.500800 -18.094200
N -3.648000 -35.465600 -19.789400
N -3.513800 -36.777300 -21.678600
C -3.503500 -35.380000 -18.469300
H -3.470400 -37.624300 -22.043100
C -3.411100 -36.665900 -20.344900
C -3.125800 -36.440000 -17.690000
N -3.065700 -37.768100 -19.659200
H -3.001800 -36.327000 -16.751500
C -2.925500 -37.622800 -18.341300
H -2.632800 -38.394400 -17.855600
35
Fragment
H -6.577700 -24.640100 -22.315600
O -6.441600 -24.073900 -19.591900
C -6.321100 -25.504500 -22.070600
H -6.251900 -26.673500 -23.800800
C -6.127200 -26.626600 -22.889800
N -6.067900 -25.233000 -19.581400
C -6.036900 -25.916100 -20.823400
H -5.953300 -31.729900 -23.278500
O -5.750500 -25.827400 -18.572800
C -5.730900 -27.642900 -22.081900
O -5.662300 -27.216600 -20.778000
H -5.482600 -29.319200 -23.275600
C -5.427500 -29.019200 -22.357100
N -5.140100 -29.807200 -21.388200
C -5.031200 -31.796100 -22.953500
N -4.891200 -31.112400 -21.681100
C -4.702700 -33.219700 -22.563900
O -4.696400 -34.193900 -23.292000
C -4.540500 -31.970200 -20.667500
N -4.417800 -33.223100 -21.239900
H -4.397200 -31.442300 -23.589100
O -4.366600 -31.702300 -19.504500
H -4.139700 -34.050900 -20.742800
H -3.817800 -36.074900 -22.165900
H -3.690800 -34.500800 -18.094200
N -3.648000 -35.465600 -19.789400
N -3.513800 -36.777300 -21.678600
C -3.503500 -35.380000 -18.469300
H -3.470400 -37.624300 -22.043100
C -3.411100 -36.665900 -20.344900
C -3.125800 -36.440000 -17.690000
N -3.065700 -37.768100 -19.659200
H -3.001800 -36.327000 -16.751500
C -2.925500 -37.622800 -18.341300
H -2.632800 -38.394400 -17.855600
