23
Fragment
O -18.759200 -5.642800 -29.868000
O -18.383600 -9.134800 -25.079800
H -18.139600 -4.552300 -32.105000
C -17.717900 -5.600800 -30.479600
N -17.499300 -4.990100 -31.686600
N -17.278100 -9.608300 -24.888400
O -17.014900 -10.458500 -24.045400
N -16.518500 -6.154400 -30.093700
O -16.503600 -8.354000 -26.719600
N -16.474300 -6.852600 -28.939200
C -16.217700 -5.128100 -32.119300
C -16.192900 -9.178400 -25.695500
O -15.785600 -4.695900 -33.162000
C -15.465500 -5.918000 -31.070000
C -15.353100 -7.350400 -28.567600
C -15.313200 -8.141900 -27.373600
H -15.121300 -6.773000 -31.428400
C -14.886000 -9.488500 -25.660400
H -14.731600 -5.408900 -30.738200
H -14.540300 -7.272600 -29.009700
H -14.525600 -10.064300 -25.017500
C -14.316100 -8.817600 -26.748600
H -13.454100 -8.811200 -27.030300
23
Fragment
O -12.230200 -14.184400 -29.868000
O -11.854600 -10.692400 -25.079800
H -11.610600 -15.274900 -32.105000
C -11.188900 -14.226400 -30.479600
N -10.970300 -14.837100 -31.686600
N -10.749100 -10.219000 -24.888400
O -10.485900 -9.368800 -24.045400
N -9.989500 -13.672900 -30.093700
O -9.974600 -11.473200 -26.719600
N -9.945300 -12.974600 -28.939200
C -9.688700 -14.699100 -32.119300
C -9.663900 -10.648800 -25.695500
O -9.256600 -15.131400 -33.162000
C -8.936500 -13.909200 -31.070000
C -8.824100 -12.476900 -28.567600
C -8.784200 -11.685400 -27.373600
H -8.592300 -13.054300 -31.428400
C -8.357000 -10.338700 -25.660400
H -8.202600 -14.418400 -30.738200
H -8.011300 -12.554600 -29.009700
H -7.996600 -9.762900 -25.017500
C -7.787100 -11.009700 -26.748600
H -6.925100 -11.016000 -27.030300
46
Fragment
O -18.759200 -5.642800 -29.868000
O -18.383600 -9.134800 -25.079800
H -18.139600 -4.552300 -32.105000
C -17.717900 -5.600800 -30.479600
N -17.499300 -4.990100 -31.686600
N -17.278100 -9.608300 -24.888400
O -17.014900 -10.458500 -24.045400
N -16.518500 -6.154400 -30.093700
O -16.503600 -8.354000 -26.719600
N -16.474300 -6.852600 -28.939200
C -16.217700 -5.128100 -32.119300
C -16.192900 -9.178400 -25.695500
O -15.785600 -4.695900 -33.162000
C -15.465500 -5.918000 -31.070000
C -15.353100 -7.350400 -28.567600
C -15.313200 -8.141900 -27.373600
H -15.121300 -6.773000 -31.428400
C -14.886000 -9.488500 -25.660400
H -14.731600 -5.408900 -30.738200
H -14.540300 -7.272600 -29.009700
H -14.525600 -10.064300 -25.017500
C -14.316100 -8.817600 -26.748600
H -13.454100 -8.811200 -27.030300
O -12.230200 -14.184400 -29.868000
O -11.854600 -10.692400 -25.079800
H -11.610600 -15.274900 -32.105000
C -11.188900 -14.226400 -30.479600
N -10.970300 -14.837100 -31.686600
N -10.749100 -10.219000 -24.888400
O -10.485900 -9.368800 -24.045400
N -9.989500 -13.672900 -30.093700
O -9.974600 -11.473200 -26.719600
N -9.945300 -12.974600 -28.939200
C -9.688700 -14.699100 -32.119300
C -9.663900 -10.648800 -25.695500
O -9.256600 -15.131400 -33.162000
C -8.936500 -13.909200 -31.070000
C -8.824100 -12.476900 -28.567600
C -8.784200 -11.685400 -27.373600
H -8.592300 -13.054300 -31.428400
C -8.357000 -10.338700 -25.660400
H -8.202600 -14.418400 -30.738200
H -8.011300 -12.554600 -29.009700
H -7.996600 -9.762900 -25.017500
C -7.787100 -11.009700 -26.748600
H -6.925100 -11.016000 -27.030300
