6
Fragment
H -6.997500 -30.321100 -26.112500
H -6.981000 -30.256800 -24.513500
C -6.434500 -30.401000 -25.314400
C -5.844400 -31.733100 -25.267400
H -5.722000 -29.729100 -25.348500
N -5.365800 -32.769100 -25.234400
23
Fragment
H -8.223100 -34.528500 -25.716100
N -7.917000 -35.342400 -25.580400
H -7.905300 -36.091200 -27.486300
H -7.899500 -44.356600 -22.611400
C -7.727700 -36.218600 -26.561700
N -7.595800 -35.816600 -24.349900
N -7.452200 -44.140300 -21.884900
N -7.266900 -41.856600 -22.479100
H -7.261500 -44.756200 -21.286100
O -7.254500 -38.748300 -27.757600
C -7.220700 -37.349600 -25.960700
C -7.163700 -37.039500 -24.596200
N -7.145600 -39.153300 -23.443200
C -7.067400 -42.891700 -21.693700
N -6.810500 -38.544400 -26.643300
N -6.787400 -37.871700 -23.514000
C -6.684400 -40.858400 -21.761500
C -6.612100 -39.499400 -22.285700
O -6.428500 -42.581900 -20.547000
N -6.166500 -41.176300 -20.605000
N -6.087400 -37.442200 -22.464300
O -6.026700 -39.279200 -26.059000
N -5.972200 -38.476100 -21.665100
29
Fragment
H -6.997500 -30.321100 -26.112500
H -6.981000 -30.256800 -24.513500
C -6.434500 -30.401000 -25.314400
C -5.844400 -31.733100 -25.267400
H -5.722000 -29.729100 -25.348500
N -5.365800 -32.769100 -25.234400
H -8.223100 -34.528500 -25.716100
N -7.917000 -35.342400 -25.580400
H -7.905300 -36.091200 -27.486300
H -7.899500 -44.356600 -22.611400
C -7.727700 -36.218600 -26.561700
N -7.595800 -35.816600 -24.349900
N -7.452200 -44.140300 -21.884900
N -7.266900 -41.856600 -22.479100
H -7.261500 -44.756200 -21.286100
O -7.254500 -38.748300 -27.757600
C -7.220700 -37.349600 -25.960700
C -7.163700 -37.039500 -24.596200
N -7.145600 -39.153300 -23.443200
C -7.067400 -42.891700 -21.693700
N -6.810500 -38.544400 -26.643300
N -6.787400 -37.871700 -23.514000
C -6.684400 -40.858400 -21.761500
C -6.612100 -39.499400 -22.285700
O -6.428500 -42.581900 -20.547000
N -6.166500 -41.176300 -20.605000
N -6.087400 -37.442200 -22.464300
O -6.026700 -39.279200 -26.059000
N -5.972200 -38.476100 -21.665100
