24
Fragment
H -18.058500 -13.743600 -15.457000
O -17.649600 -13.267600 -13.045700
N -17.282200 -13.475200 -15.307100
H -16.979900 -12.611400 -17.816100
C -16.900400 -13.271500 -14.021700
O -16.883500 -10.258700 -17.594800
N -16.340200 -12.451700 -17.287300
H -16.241000 -15.534200 -16.393300
C -16.205600 -11.122600 -16.991500
C -16.180600 -13.457100 -16.235400
H -16.055800 -14.834000 -17.794200
C -15.800200 -14.805700 -16.859000
N -15.563100 -13.062600 -14.002100
N -15.289900 -10.836300 -16.073600
H -15.233500 -10.046800 -15.803100
H -15.184600 -12.875500 -13.289200
C -14.966200 -13.131000 -15.305300
N -14.340200 -14.910400 -16.718300
C -14.290900 -11.828700 -15.716600
H -14.242200 -14.839500 -14.828500
N -14.025800 -14.264800 -15.463600
H -13.948400 -14.443400 -17.351600
H -13.749500 -11.497200 -14.983400
H -13.706700 -11.990000 -16.474400
24
Fragment
H -18.185800 -21.927900 -15.457000
O -17.776900 -21.451900 -13.045700
N -17.409500 -21.659500 -15.307100
H -17.107200 -20.795700 -17.816100
C -17.027700 -21.455800 -14.021700
O -17.010800 -18.443000 -17.594800
N -16.467500 -20.636000 -17.287300
H -16.368300 -23.718500 -16.393300
C -16.332900 -19.306900 -16.991500
C -16.307900 -21.641400 -16.235400
H -16.183100 -23.018300 -17.794200
C -15.927500 -22.990000 -16.859000
N -15.690400 -21.246900 -14.002100
N -15.417200 -19.020600 -16.073600
H -15.360700 -18.231100 -15.803100
H -15.311800 -21.059800 -13.289200
C -15.093500 -21.315300 -15.305300
N -14.467400 -23.094800 -16.718300
C -14.418200 -20.013000 -15.716600
H -14.369500 -23.023800 -14.828500
N -14.153000 -22.449100 -15.463600
H -14.075700 -22.627700 -17.351600
H -13.876800 -19.681500 -14.983400
H -13.834000 -20.174300 -16.474400
48
Fragment
H -18.058500 -13.743600 -15.457000
O -17.649600 -13.267600 -13.045700
N -17.282200 -13.475200 -15.307100
H -16.979900 -12.611400 -17.816100
C -16.900400 -13.271500 -14.021700
O -16.883500 -10.258700 -17.594800
N -16.340200 -12.451700 -17.287300
H -16.241000 -15.534200 -16.393300
C -16.205600 -11.122600 -16.991500
C -16.180600 -13.457100 -16.235400
H -16.055800 -14.834000 -17.794200
C -15.800200 -14.805700 -16.859000
N -15.563100 -13.062600 -14.002100
N -15.289900 -10.836300 -16.073600
H -15.233500 -10.046800 -15.803100
H -15.184600 -12.875500 -13.289200
C -14.966200 -13.131000 -15.305300
N -14.340200 -14.910400 -16.718300
C -14.290900 -11.828700 -15.716600
H -14.242200 -14.839500 -14.828500
N -14.025800 -14.264800 -15.463600
H -13.948400 -14.443400 -17.351600
H -13.749500 -11.497200 -14.983400
H -13.706700 -11.990000 -16.474400
H -18.185800 -21.927900 -15.457000
O -17.776900 -21.451900 -13.045700
N -17.409500 -21.659500 -15.307100
H -17.107200 -20.795700 -17.816100
C -17.027700 -21.455800 -14.021700
O -17.010800 -18.443000 -17.594800
N -16.467500 -20.636000 -17.287300
H -16.368300 -23.718500 -16.393300
C -16.332900 -19.306900 -16.991500
C -16.307900 -21.641400 -16.235400
H -16.183100 -23.018300 -17.794200
C -15.927500 -22.990000 -16.859000
N -15.690400 -21.246900 -14.002100
N -15.417200 -19.020600 -16.073600
H -15.360700 -18.231100 -15.803100
H -15.311800 -21.059800 -13.289200
C -15.093500 -21.315300 -15.305300
N -14.467400 -23.094800 -16.718300
C -14.418200 -20.013000 -15.716600
H -14.369500 -23.023800 -14.828500
N -14.153000 -22.449100 -15.463600
H -14.075700 -22.627700 -17.351600
H -13.876800 -19.681500 -14.983400
H -13.834000 -20.174300 -16.474400
