24
Fragment
H -18.058500 -13.743600 -15.457000
O -17.649600 -13.267600 -13.045700
N -17.282200 -13.475200 -15.307100
H -16.979900 -12.611400 -17.816100
C -16.900400 -13.271500 -14.021700
O -16.883500 -10.258700 -17.594800
N -16.340200 -12.451700 -17.287300
H -16.241000 -15.534200 -16.393300
C -16.205600 -11.122600 -16.991500
C -16.180600 -13.457100 -16.235400
H -16.055800 -14.834000 -17.794200
C -15.800200 -14.805700 -16.859000
N -15.563100 -13.062600 -14.002100
N -15.289900 -10.836300 -16.073600
H -15.233500 -10.046800 -15.803100
H -15.184600 -12.875500 -13.289200
C -14.966200 -13.131000 -15.305300
N -14.340200 -14.910400 -16.718300
C -14.290900 -11.828700 -15.716600
H -14.242200 -14.839500 -14.828500
N -14.025800 -14.264800 -15.463600
H -13.948400 -14.443400 -17.351600
H -13.749500 -11.497200 -14.983400
H -13.706700 -11.990000 -16.474400
24
Fragment
H -19.185300 -9.750200 -10.850900
H -19.142500 -10.243000 -12.341900
H -18.943600 -7.296800 -9.973700
N -18.866200 -7.475300 -11.861700
H -18.649700 -6.900600 -12.496800
C -18.601000 -9.911400 -11.608700
N -18.551800 -6.829700 -10.606900
C -17.925800 -8.609100 -12.020000
H -17.707400 -8.864700 -14.036100
H -17.658500 -11.693300 -11.522200
N -17.602000 -10.903800 -11.251700
N -17.328900 -8.677500 -13.323200
C -17.091700 -6.934500 -10.466300
H -16.836200 -6.906100 -9.531100
C -16.711300 -8.283000 -11.089900
C -16.686300 -10.617500 -10.333800
H -16.651000 -6.205900 -10.931900
N -16.551700 -9.288400 -10.037900
O -16.008500 -11.481500 -9.730400
C -15.991600 -8.468600 -13.303600
H -15.912000 -9.128800 -9.509200
N -15.609800 -8.264900 -12.018200
O -15.242400 -8.472500 -14.279600
H -14.833500 -7.996600 -11.868300
48
Fragment
H -18.058500 -13.743600 -15.457000
O -17.649600 -13.267600 -13.045700
N -17.282200 -13.475200 -15.307100
H -16.979900 -12.611400 -17.816100
C -16.900400 -13.271500 -14.021700
O -16.883500 -10.258700 -17.594800
N -16.340200 -12.451700 -17.287300
H -16.241000 -15.534200 -16.393300
C -16.205600 -11.122600 -16.991500
C -16.180600 -13.457100 -16.235400
H -16.055800 -14.834000 -17.794200
C -15.800200 -14.805700 -16.859000
N -15.563100 -13.062600 -14.002100
N -15.289900 -10.836300 -16.073600
H -15.233500 -10.046800 -15.803100
H -15.184600 -12.875500 -13.289200
C -14.966200 -13.131000 -15.305300
N -14.340200 -14.910400 -16.718300
C -14.290900 -11.828700 -15.716600
H -14.242200 -14.839500 -14.828500
N -14.025800 -14.264800 -15.463600
H -13.948400 -14.443400 -17.351600
H -13.749500 -11.497200 -14.983400
H -13.706700 -11.990000 -16.474400
H -19.185300 -9.750200 -10.850900
H -19.142500 -10.243000 -12.341900
H -18.943600 -7.296800 -9.973700
N -18.866200 -7.475300 -11.861700
H -18.649700 -6.900600 -12.496800
C -18.601000 -9.911400 -11.608700
N -18.551800 -6.829700 -10.606900
C -17.925800 -8.609100 -12.020000
H -17.707400 -8.864700 -14.036100
H -17.658500 -11.693300 -11.522200
N -17.602000 -10.903800 -11.251700
N -17.328900 -8.677500 -13.323200
C -17.091700 -6.934500 -10.466300
H -16.836200 -6.906100 -9.531100
C -16.711300 -8.283000 -11.089900
C -16.686300 -10.617500 -10.333800
H -16.651000 -6.205900 -10.931900
N -16.551700 -9.288400 -10.037900
O -16.008500 -11.481500 -9.730400
C -15.991600 -8.468600 -13.303600
H -15.912000 -9.128800 -9.509200
N -15.609800 -8.264900 -12.018200
O -15.242400 -8.472500 -14.279600
H -14.833500 -7.996600 -11.868300
