24
Fragment
H -18.058500 -13.743600 -15.457000
O -17.649600 -13.267600 -13.045700
N -17.282200 -13.475200 -15.307100
H -16.979900 -12.611400 -17.816100
C -16.900400 -13.271500 -14.021700
O -16.883500 -10.258700 -17.594800
N -16.340200 -12.451700 -17.287300
H -16.241000 -15.534200 -16.393300
C -16.205600 -11.122600 -16.991500
C -16.180600 -13.457100 -16.235400
H -16.055800 -14.834000 -17.794200
C -15.800200 -14.805700 -16.859000
N -15.563100 -13.062600 -14.002100
N -15.289900 -10.836300 -16.073600
H -15.233500 -10.046800 -15.803100
H -15.184600 -12.875500 -13.289200
C -14.966200 -13.131000 -15.305300
N -14.340200 -14.910400 -16.718300
C -14.290900 -11.828700 -15.716600
H -14.242200 -14.839500 -14.828500
N -14.025800 -14.264800 -15.463600
H -13.948400 -14.443400 -17.351600
H -13.749500 -11.497200 -14.983400
H -13.706700 -11.990000 -16.474400
24
Fragment
H -13.228600 -17.934500 -10.850900
H -13.185800 -18.427300 -12.341900
H -12.986800 -15.481100 -9.973700
N -12.909500 -15.659600 -11.861700
H -12.693000 -15.085000 -12.496800
C -12.644300 -18.095700 -11.608700
N -12.595100 -15.014000 -10.606900
C -11.969000 -16.793400 -12.020000
H -11.750700 -17.049000 -14.036100
H -11.701800 -19.877600 -11.522200
N -11.645300 -19.088100 -11.251700
N -11.372100 -16.861800 -13.323200
C -11.135000 -15.118800 -10.466300
H -10.879500 -15.090400 -9.531100
C -10.754600 -16.467400 -11.089900
C -10.729600 -18.801800 -10.333800
H -10.694300 -14.390200 -10.931900
N -10.595000 -17.472800 -10.037900
O -10.051700 -19.665800 -9.730400
C -10.034900 -16.652900 -13.303600
H -9.955300 -17.313100 -9.509200
N -9.653000 -16.449200 -12.018200
O -9.285600 -16.656800 -14.279600
H -8.876700 -16.180900 -11.868300
48
Fragment
H -18.058500 -13.743600 -15.457000
O -17.649600 -13.267600 -13.045700
N -17.282200 -13.475200 -15.307100
H -16.979900 -12.611400 -17.816100
C -16.900400 -13.271500 -14.021700
O -16.883500 -10.258700 -17.594800
N -16.340200 -12.451700 -17.287300
H -16.241000 -15.534200 -16.393300
C -16.205600 -11.122600 -16.991500
C -16.180600 -13.457100 -16.235400
H -16.055800 -14.834000 -17.794200
C -15.800200 -14.805700 -16.859000
N -15.563100 -13.062600 -14.002100
N -15.289900 -10.836300 -16.073600
H -15.233500 -10.046800 -15.803100
H -15.184600 -12.875500 -13.289200
C -14.966200 -13.131000 -15.305300
N -14.340200 -14.910400 -16.718300
C -14.290900 -11.828700 -15.716600
H -14.242200 -14.839500 -14.828500
N -14.025800 -14.264800 -15.463600
H -13.948400 -14.443400 -17.351600
H -13.749500 -11.497200 -14.983400
H -13.706700 -11.990000 -16.474400
H -13.228600 -17.934500 -10.850900
H -13.185800 -18.427300 -12.341900
H -12.986800 -15.481100 -9.973700
N -12.909500 -15.659600 -11.861700
H -12.693000 -15.085000 -12.496800
C -12.644300 -18.095700 -11.608700
N -12.595100 -15.014000 -10.606900
C -11.969000 -16.793400 -12.020000
H -11.750700 -17.049000 -14.036100
H -11.701800 -19.877600 -11.522200
N -11.645300 -19.088100 -11.251700
N -11.372100 -16.861800 -13.323200
C -11.135000 -15.118800 -10.466300
H -10.879500 -15.090400 -9.531100
C -10.754600 -16.467400 -11.089900
C -10.729600 -18.801800 -10.333800
H -10.694300 -14.390200 -10.931900
N -10.595000 -17.472800 -10.037900
O -10.051700 -19.665800 -9.730400
C -10.034900 -16.652900 -13.303600
H -9.955300 -17.313100 -9.509200
N -9.653000 -16.449200 -12.018200
O -9.285600 -16.656800 -14.279600
H -8.876700 -16.180900 -11.868300
