24
Fragment
H -18.058500 -13.743600 -15.457000
O -17.649600 -13.267600 -13.045700
N -17.282200 -13.475200 -15.307100
H -16.979900 -12.611400 -17.816100
C -16.900400 -13.271500 -14.021700
O -16.883500 -10.258700 -17.594800
N -16.340200 -12.451700 -17.287300
H -16.241000 -15.534200 -16.393300
C -16.205600 -11.122600 -16.991500
C -16.180600 -13.457100 -16.235400
H -16.055800 -14.834000 -17.794200
C -15.800200 -14.805700 -16.859000
N -15.563100 -13.062600 -14.002100
N -15.289900 -10.836300 -16.073600
H -15.233500 -10.046800 -15.803100
H -15.184600 -12.875500 -13.289200
C -14.966200 -13.131000 -15.305300
N -14.340200 -14.910400 -16.718300
C -14.290900 -11.828700 -15.716600
H -14.242200 -14.839500 -14.828500
N -14.025800 -14.264800 -15.463600
H -13.948400 -14.443400 -17.351600
H -13.749500 -11.497200 -14.983400
H -13.706700 -11.990000 -16.474400
24
Fragment
H -15.868400 -11.540700 -19.959300
H -15.825600 -12.033500 -21.450300
H -15.626700 -9.087300 -19.082200
N -15.549300 -9.265800 -20.970100
H -15.332900 -8.691100 -21.605200
C -15.284200 -11.701900 -20.717100
N -15.234900 -8.620200 -19.715400
C -14.608900 -10.399600 -21.128500
H -14.390500 -10.655200 -23.144500
H -14.341600 -13.483800 -20.630600
N -14.285100 -12.694300 -20.360200
N -14.012000 -10.468000 -22.431600
C -13.774900 -8.725000 -19.574700
H -13.519300 -8.696600 -18.639500
C -13.394400 -10.073500 -20.198300
C -13.369400 -12.408000 -19.442200
H -13.334100 -7.996400 -20.040400
N -13.234900 -11.078900 -19.146400
O -12.691600 -13.272000 -18.838900
C -12.674700 -10.259100 -22.412000
H -12.595200 -10.919300 -18.617600
N -12.292900 -10.055400 -21.126600
O -11.925500 -10.263000 -23.388000
H -11.516600 -9.787100 -20.976700
48
Fragment
H -18.058500 -13.743600 -15.457000
O -17.649600 -13.267600 -13.045700
N -17.282200 -13.475200 -15.307100
H -16.979900 -12.611400 -17.816100
C -16.900400 -13.271500 -14.021700
O -16.883500 -10.258700 -17.594800
N -16.340200 -12.451700 -17.287300
H -16.241000 -15.534200 -16.393300
C -16.205600 -11.122600 -16.991500
C -16.180600 -13.457100 -16.235400
H -16.055800 -14.834000 -17.794200
C -15.800200 -14.805700 -16.859000
N -15.563100 -13.062600 -14.002100
N -15.289900 -10.836300 -16.073600
H -15.233500 -10.046800 -15.803100
H -15.184600 -12.875500 -13.289200
C -14.966200 -13.131000 -15.305300
N -14.340200 -14.910400 -16.718300
C -14.290900 -11.828700 -15.716600
H -14.242200 -14.839500 -14.828500
N -14.025800 -14.264800 -15.463600
H -13.948400 -14.443400 -17.351600
H -13.749500 -11.497200 -14.983400
H -13.706700 -11.990000 -16.474400
H -15.868400 -11.540700 -19.959300
H -15.825600 -12.033500 -21.450300
H -15.626700 -9.087300 -19.082200
N -15.549300 -9.265800 -20.970100
H -15.332900 -8.691100 -21.605200
C -15.284200 -11.701900 -20.717100
N -15.234900 -8.620200 -19.715400
C -14.608900 -10.399600 -21.128500
H -14.390500 -10.655200 -23.144500
H -14.341600 -13.483800 -20.630600
N -14.285100 -12.694300 -20.360200
N -14.012000 -10.468000 -22.431600
C -13.774900 -8.725000 -19.574700
H -13.519300 -8.696600 -18.639500
C -13.394400 -10.073500 -20.198300
C -13.369400 -12.408000 -19.442200
H -13.334100 -7.996400 -20.040400
N -13.234900 -11.078900 -19.146400
O -12.691600 -13.272000 -18.838900
C -12.674700 -10.259100 -22.412000
H -12.595200 -10.919300 -18.617600
N -12.292900 -10.055400 -21.126600
O -11.925500 -10.263000 -23.388000
H -11.516600 -9.787100 -20.976700
