6
Fragment
N -19.749700 -8.556900 -45.052000
C -18.893300 -8.434900 -44.321000
H -18.061800 -7.741200 -42.644300
C -17.788800 -8.298400 -43.375400
H -17.541900 -9.165200 -43.046100
H -17.035600 -7.899500 -43.819500
49
Fragment
H -19.115200 -6.001800 -36.242800
H -18.438100 -5.325500 -35.001200
C -18.282000 -5.851300 -35.789700
H -17.901500 -6.697800 -35.535900
H -17.671500 -4.243000 -36.783600
H -17.420600 -6.169600 -40.454100
C -17.374500 -5.158600 -36.662700
O -17.329000 -5.823800 -37.929100
H -16.889900 -11.518800 -52.266200
O -16.812700 -8.683800 -48.750300
H -16.717500 -10.135300 -50.489800
C -16.524200 -6.162900 -40.085800
C -16.504100 -5.342800 -38.853900
H -16.488500 -5.140700 -36.267000
H -16.282600 -7.077000 -39.868000
C -16.114100 -11.527000 -51.755600
C -16.005300 -10.695800 -50.695200
O -15.830800 -4.349100 -38.692200
C -15.680600 -8.810200 -48.329800
N -15.599700 -5.645800 -41.080900
H -15.496100 -4.794900 -41.145900
H -15.408600 -8.204800 -47.680300
H -15.155400 -12.986200 -52.819000
C -15.065200 -12.406800 -52.097000
O -14.975600 -7.666500 -41.880600
C -14.904000 -6.446000 -41.898700
C -14.843900 -10.650000 -49.892300
C -14.690800 -9.818800 -48.744300
H -14.555900 -5.176900 -43.487200
H -14.281600 -7.135800 -45.302800
C -14.006100 -5.704600 -42.885700
C -13.934000 -12.401500 -51.368900
C -13.787300 -11.550100 -50.248100
C -13.520100 -9.881600 -48.017700
C -13.508600 -7.245800 -44.794900
O -13.438100 -9.114100 -46.892100
H -13.426400 -5.098300 -42.399600
H -13.236600 -12.967300 -51.607600
N -13.194700 -6.633200 -43.663300
C -12.631700 -11.551100 -49.477800
C -12.454000 -8.075500 -45.057200
C -12.453900 -10.759000 -48.380000
C -12.202000 -8.995900 -46.207300
N -12.007700 -7.061100 -43.201400
H -11.939700 -12.123700 -49.722500
H -11.905500 -9.862700 -45.888800
H -11.667300 -10.789900 -47.885700
N -11.549400 -7.937100 -44.069300
H -11.522100 -8.629300 -46.795100
55
Fragment
N -19.749700 -8.556900 -45.052000
C -18.893300 -8.434900 -44.321000
H -18.061800 -7.741200 -42.644300
C -17.788800 -8.298400 -43.375400
H -17.541900 -9.165200 -43.046100
H -17.035600 -7.899500 -43.819500
H -19.115200 -6.001800 -36.242800
H -18.438100 -5.325500 -35.001200
C -18.282000 -5.851300 -35.789700
H -17.901500 -6.697800 -35.535900
H -17.671500 -4.243000 -36.783600
H -17.420600 -6.169600 -40.454100
C -17.374500 -5.158600 -36.662700
O -17.329000 -5.823800 -37.929100
H -16.889900 -11.518800 -52.266200
O -16.812700 -8.683800 -48.750300
H -16.717500 -10.135300 -50.489800
C -16.524200 -6.162900 -40.085800
C -16.504100 -5.342800 -38.853900
H -16.488500 -5.140700 -36.267000
H -16.282600 -7.077000 -39.868000
C -16.114100 -11.527000 -51.755600
C -16.005300 -10.695800 -50.695200
O -15.830800 -4.349100 -38.692200
C -15.680600 -8.810200 -48.329800
N -15.599700 -5.645800 -41.080900
H -15.496100 -4.794900 -41.145900
H -15.408600 -8.204800 -47.680300
H -15.155400 -12.986200 -52.819000
C -15.065200 -12.406800 -52.097000
O -14.975600 -7.666500 -41.880600
C -14.904000 -6.446000 -41.898700
C -14.843900 -10.650000 -49.892300
C -14.690800 -9.818800 -48.744300
H -14.555900 -5.176900 -43.487200
H -14.281600 -7.135800 -45.302800
C -14.006100 -5.704600 -42.885700
C -13.934000 -12.401500 -51.368900
C -13.787300 -11.550100 -50.248100
C -13.520100 -9.881600 -48.017700
C -13.508600 -7.245800 -44.794900
O -13.438100 -9.114100 -46.892100
H -13.426400 -5.098300 -42.399600
H -13.236600 -12.967300 -51.607600
N -13.194700 -6.633200 -43.663300
C -12.631700 -11.551100 -49.477800
C -12.454000 -8.075500 -45.057200
C -12.453900 -10.759000 -48.380000
C -12.202000 -8.995900 -46.207300
N -12.007700 -7.061100 -43.201400
H -11.939700 -12.123700 -49.722500
H -11.905500 -9.862700 -45.888800
H -11.667300 -10.789900 -47.885700
N -11.549400 -7.937100 -44.069300
H -11.522100 -8.629300 -46.795100
