6
Fragment
N -19.749700 -8.556900 -45.052000
C -18.893300 -8.434900 -44.321000
H -18.061800 -7.741200 -42.644300
C -17.788800 -8.298400 -43.375400
H -17.541900 -9.165200 -43.046100
H -17.035600 -7.899500 -43.819500
49
Fragment
H -24.734100 -10.665900 -43.834600
N -24.706800 -11.358100 -46.560400
H -24.588900 -8.505300 -42.744000
H -24.350700 -9.432500 -44.740900
H -24.316500 -7.171500 -40.907200
N -24.248500 -12.234100 -47.428300
C -24.054200 -10.299300 -44.422500
C -23.802300 -8.536200 -42.249800
C -23.802200 -11.219700 -45.572500
C -23.624500 -7.744100 -41.151900
N -23.061500 -12.662000 -46.966400
H -23.019600 -6.327900 -39.022100
H -22.829700 -14.196900 -48.230100
O -22.818100 -10.181100 -43.737600
C -22.747600 -12.049400 -45.834800
C -22.736100 -9.413600 -42.612000
C -22.468900 -7.745100 -40.381600
C -22.322200 -6.893700 -39.260800
C -22.250100 -13.590600 -47.744000
H -21.974600 -12.159400 -45.326900
H -21.700300 -14.118300 -47.142600
C -21.565300 -9.476400 -41.885400
C -21.412300 -8.645200 -40.737500
C -21.352200 -12.849200 -48.731000
O -21.280600 -11.628700 -48.749100
C -21.191000 -6.888400 -38.532700
H -21.100800 -6.309000 -37.810700
H -20.847600 -11.090400 -42.949400
H -20.760100 -14.500300 -49.483800
N -20.656400 -13.649400 -49.548800
C -20.575600 -10.485000 -42.299900
O -20.425400 -14.946100 -51.937500
C -20.250900 -8.599400 -39.934500
C -20.142100 -7.768200 -38.874100
H -19.973600 -12.218200 -50.761700
H -19.767700 -14.154500 -54.362700
C -19.752100 -13.952400 -51.775800
C -19.731900 -13.132300 -50.543900
H -19.538700 -9.159900 -40.139900
O -19.443500 -10.611400 -41.879400
H -19.366300 -7.776400 -38.363600
O -18.927200 -13.471400 -52.700600
C -18.881700 -14.136600 -53.967000
H -18.835500 -13.125600 -50.175600
H -18.584700 -15.052200 -53.846100
H -18.354600 -12.597400 -55.093800
C -17.974200 -13.443900 -54.840000
H -17.818100 -13.969700 -55.628500
H -17.141000 -13.293400 -54.386900
55
Fragment
N -19.749700 -8.556900 -45.052000
C -18.893300 -8.434900 -44.321000
H -18.061800 -7.741200 -42.644300
C -17.788800 -8.298400 -43.375400
H -17.541900 -9.165200 -43.046100
H -17.035600 -7.899500 -43.819500
H -24.734100 -10.665900 -43.834600
N -24.706800 -11.358100 -46.560400
H -24.588900 -8.505300 -42.744000
H -24.350700 -9.432500 -44.740900
H -24.316500 -7.171500 -40.907200
N -24.248500 -12.234100 -47.428300
C -24.054200 -10.299300 -44.422500
C -23.802300 -8.536200 -42.249800
C -23.802200 -11.219700 -45.572500
C -23.624500 -7.744100 -41.151900
N -23.061500 -12.662000 -46.966400
H -23.019600 -6.327900 -39.022100
H -22.829700 -14.196900 -48.230100
O -22.818100 -10.181100 -43.737600
C -22.747600 -12.049400 -45.834800
C -22.736100 -9.413600 -42.612000
C -22.468900 -7.745100 -40.381600
C -22.322200 -6.893700 -39.260800
C -22.250100 -13.590600 -47.744000
H -21.974600 -12.159400 -45.326900
H -21.700300 -14.118300 -47.142600
C -21.565300 -9.476400 -41.885400
C -21.412300 -8.645200 -40.737500
C -21.352200 -12.849200 -48.731000
O -21.280600 -11.628700 -48.749100
C -21.191000 -6.888400 -38.532700
H -21.100800 -6.309000 -37.810700
H -20.847600 -11.090400 -42.949400
H -20.760100 -14.500300 -49.483800
N -20.656400 -13.649400 -49.548800
C -20.575600 -10.485000 -42.299900
O -20.425400 -14.946100 -51.937500
C -20.250900 -8.599400 -39.934500
C -20.142100 -7.768200 -38.874100
H -19.973600 -12.218200 -50.761700
H -19.767700 -14.154500 -54.362700
C -19.752100 -13.952400 -51.775800
C -19.731900 -13.132300 -50.543900
H -19.538700 -9.159900 -40.139900
O -19.443500 -10.611400 -41.879400
H -19.366300 -7.776400 -38.363600
O -18.927200 -13.471400 -52.700600
C -18.881700 -14.136600 -53.967000
H -18.835500 -13.125600 -50.175600
H -18.584700 -15.052200 -53.846100
H -18.354600 -12.597400 -55.093800
C -17.974200 -13.443900 -54.840000
H -17.818100 -13.969700 -55.628500
H -17.141000 -13.293400 -54.386900
