44
Fragment
H -13.337700 -18.917500 -11.613100
H -12.781100 -18.862500 -10.139500
C -12.619700 -18.603100 -11.053100
H -12.568700 -17.646600 -11.107400
O -12.179700 -20.795900 -13.000700
N -11.361200 -19.176600 -11.519300
C -11.262000 -20.233100 -12.417400
O -10.756900 -25.381000 -14.640300
H -10.738900 -22.606300 -14.023700
H -10.469900 -22.480100 -10.982600
C -10.128600 -18.913800 -10.915900
N -9.927700 -20.483500 -12.564000
O -9.926200 -18.131600 -10.021600
C -9.791300 -22.612200 -13.868600
C -9.618100 -24.990100 -14.555800
C -9.536300 -22.461900 -11.207500
H -9.378700 -21.248200 -9.517400
C -9.345300 -21.850300 -12.599700
N -9.204700 -19.654000 -11.620100
H -9.187100 -23.356200 -11.198200
N -9.176400 -23.960900 -13.722800
H -9.096900 -26.477700 -16.833700
H -9.052000 -21.059500 -15.084700
H -8.979700 -22.446500 -15.819200
C -8.903900 -21.999900 -14.966800
H -8.865700 -27.422000 -15.600500
C -8.767300 -21.581100 -10.184500
C -8.529200 -26.660000 -16.077500
N -8.517600 -25.504000 -15.175500
C -8.117700 -20.409600 -10.925200
H -8.087600 -22.106600 -9.755500
C -7.868400 -21.657300 -12.885100
N -7.759700 -23.777100 -13.995000
H -7.638900 -26.841000 -16.387700
H -7.632700 -19.864400 -10.295400
C -7.598800 -22.316200 -14.227700
C -7.415600 -24.685600 -15.003300
C -7.183200 -20.917600 -12.008700
H -6.768300 -22.064800 -14.642600
O -6.347900 -24.759200 -15.559400
C -5.732300 -20.587000 -12.021900
H -5.527100 -20.025100 -11.264900
H -5.510900 -20.129400 -12.839300
H -5.222400 -21.398700 -11.965200
44
Fragment
H -17.460400 -25.090100 -11.302900
H -17.172000 -26.359300 -10.428800
H -17.155800 -26.463700 -12.003200
C -16.950500 -25.901800 -11.246300
O -16.334900 -21.729600 -7.708700
H -15.914500 -24.423900 -8.625500
C -15.499600 -25.571200 -11.259400
C -15.267200 -21.803200 -8.264800
C -15.084100 -24.172600 -9.040400
H -15.050200 -26.624400 -12.972800
H -15.044000 -19.647800 -6.880400
N -14.923200 -22.711600 -9.273100
C -14.814500 -24.831400 -10.383000
H -14.595300 -24.382200 -13.512600
C -14.565200 -26.079200 -12.343000
N -14.165200 -20.984800 -8.092700
C -14.153600 -19.828800 -7.190600
C -13.915600 -24.907700 -13.083700
H -13.817200 -19.066800 -7.667600
C -13.778900 -24.488900 -8.301300
H -13.703100 -24.042300 -7.448900
H -13.630800 -25.429200 -8.183400
H -13.585900 -20.011100 -6.434400
N -13.506400 -22.527900 -9.545400
H -13.495700 -23.132600 -12.070000
N -13.478100 -26.834800 -11.648000
C -13.337500 -24.638500 -10.668400
H -13.304200 -25.240600 -13.750700
C -13.146600 -24.026800 -12.060600
C -13.064800 -21.498700 -8.712400
C -12.891500 -23.876600 -9.399500
O -12.756700 -28.357200 -13.246500
N -12.755100 -26.005200 -10.704100
C -12.554200 -27.575000 -12.352300
H -12.213000 -24.008700 -12.285600
H -11.943900 -23.882500 -9.244400
O -11.926000 -21.107800 -8.627800
C -11.420800 -26.255700 -10.850700
N -11.321600 -27.312200 -11.748900
O -10.503100 -25.692900 -10.267400
H -10.114100 -28.842200 -12.160700
C -10.063200 -27.885700 -12.215000
H -9.901700 -27.626300 -13.128700
H -9.345200 -27.571200 -11.655000
88
Fragment
H -13.337700 -18.917500 -11.613100
H -12.781100 -18.862500 -10.139500
C -12.619700 -18.603100 -11.053100
H -12.568700 -17.646600 -11.107400
O -12.179700 -20.795900 -13.000700
N -11.361200 -19.176600 -11.519300
C -11.262000 -20.233100 -12.417400
O -10.756900 -25.381000 -14.640300
H -10.738900 -22.606300 -14.023700
H -10.469900 -22.480100 -10.982600
C -10.128600 -18.913800 -10.915900
N -9.927700 -20.483500 -12.564000
O -9.926200 -18.131600 -10.021600
C -9.791300 -22.612200 -13.868600
C -9.618100 -24.990100 -14.555800
C -9.536300 -22.461900 -11.207500
H -9.378700 -21.248200 -9.517400
C -9.345300 -21.850300 -12.599700
N -9.204700 -19.654000 -11.620100
H -9.187100 -23.356200 -11.198200
N -9.176400 -23.960900 -13.722800
H -9.096900 -26.477700 -16.833700
H -9.052000 -21.059500 -15.084700
H -8.979700 -22.446500 -15.819200
C -8.903900 -21.999900 -14.966800
H -8.865700 -27.422000 -15.600500
C -8.767300 -21.581100 -10.184500
C -8.529200 -26.660000 -16.077500
N -8.517600 -25.504000 -15.175500
C -8.117700 -20.409600 -10.925200
H -8.087600 -22.106600 -9.755500
C -7.868400 -21.657300 -12.885100
N -7.759700 -23.777100 -13.995000
H -7.638900 -26.841000 -16.387700
H -7.632700 -19.864400 -10.295400
C -7.598800 -22.316200 -14.227700
C -7.415600 -24.685600 -15.003300
C -7.183200 -20.917600 -12.008700
H -6.768300 -22.064800 -14.642600
O -6.347900 -24.759200 -15.559400
C -5.732300 -20.587000 -12.021900
H -5.527100 -20.025100 -11.264900
H -5.510900 -20.129400 -12.839300
H -5.222400 -21.398700 -11.965200
H -17.460400 -25.090100 -11.302900
H -17.172000 -26.359300 -10.428800
H -17.155800 -26.463700 -12.003200
C -16.950500 -25.901800 -11.246300
O -16.334900 -21.729600 -7.708700
H -15.914500 -24.423900 -8.625500
C -15.499600 -25.571200 -11.259400
C -15.267200 -21.803200 -8.264800
C -15.084100 -24.172600 -9.040400
H -15.050200 -26.624400 -12.972800
H -15.044000 -19.647800 -6.880400
N -14.923200 -22.711600 -9.273100
C -14.814500 -24.831400 -10.383000
H -14.595300 -24.382200 -13.512600
C -14.565200 -26.079200 -12.343000
N -14.165200 -20.984800 -8.092700
C -14.153600 -19.828800 -7.190600
C -13.915600 -24.907700 -13.083700
H -13.817200 -19.066800 -7.667600
C -13.778900 -24.488900 -8.301300
H -13.703100 -24.042300 -7.448900
H -13.630800 -25.429200 -8.183400
H -13.585900 -20.011100 -6.434400
N -13.506400 -22.527900 -9.545400
H -13.495700 -23.132600 -12.070000
N -13.478100 -26.834800 -11.648000
C -13.337500 -24.638500 -10.668400
H -13.304200 -25.240600 -13.750700
C -13.146600 -24.026800 -12.060600
C -13.064800 -21.498700 -8.712400
C -12.891500 -23.876600 -9.399500
O -12.756700 -28.357200 -13.246500
N -12.755100 -26.005200 -10.704100
C -12.554200 -27.575000 -12.352300
H -12.213000 -24.008700 -12.285600
H -11.943900 -23.882500 -9.244400
O -11.926000 -21.107800 -8.627800
C -11.420800 -26.255700 -10.850700
N -11.321600 -27.312200 -11.748900
O -10.503100 -25.692900 -10.267400
H -10.114100 -28.842200 -12.160700
C -10.063200 -27.885700 -12.215000
H -9.901700 -27.626300 -13.128700
H -9.345200 -27.571200 -11.655000
