44
Fragment
H -13.337700 -18.917500 -11.613100
H -12.781100 -18.862500 -10.139500
C -12.619700 -18.603100 -11.053100
H -12.568700 -17.646600 -11.107400
O -12.179700 -20.795900 -13.000700
N -11.361200 -19.176600 -11.519300
C -11.262000 -20.233100 -12.417400
O -10.756900 -25.381000 -14.640300
H -10.738900 -22.606300 -14.023700
H -10.469900 -22.480100 -10.982600
C -10.128600 -18.913800 -10.915900
N -9.927700 -20.483500 -12.564000
O -9.926200 -18.131600 -10.021600
C -9.791300 -22.612200 -13.868600
C -9.618100 -24.990100 -14.555800
C -9.536300 -22.461900 -11.207500
H -9.378700 -21.248200 -9.517400
C -9.345300 -21.850300 -12.599700
N -9.204700 -19.654000 -11.620100
H -9.187100 -23.356200 -11.198200
N -9.176400 -23.960900 -13.722800
H -9.096900 -26.477700 -16.833700
H -9.052000 -21.059500 -15.084700
H -8.979700 -22.446500 -15.819200
C -8.903900 -21.999900 -14.966800
H -8.865700 -27.422000 -15.600500
C -8.767300 -21.581100 -10.184500
C -8.529200 -26.660000 -16.077500
N -8.517600 -25.504000 -15.175500
C -8.117700 -20.409600 -10.925200
H -8.087600 -22.106600 -9.755500
C -7.868400 -21.657300 -12.885100
N -7.759700 -23.777100 -13.995000
H -7.638900 -26.841000 -16.387700
H -7.632700 -19.864400 -10.295400
C -7.598800 -22.316200 -14.227700
C -7.415600 -24.685600 -15.003300
C -7.183200 -20.917600 -12.008700
H -6.768300 -22.064800 -14.642600
O -6.347900 -24.759200 -15.559400
C -5.732300 -20.587000 -12.021900
H -5.527100 -20.025100 -11.264900
H -5.510900 -20.129400 -12.839300
H -5.222400 -21.398700 -11.965200
44
Fragment
H -14.214400 -20.563000 -3.857100
H -13.657800 -20.508000 -2.383400
C -13.496400 -20.248600 -3.297100
H -13.445500 -19.292100 -3.351400
O -13.056400 -22.441400 -5.244600
N -12.237900 -20.822100 -3.763200
C -12.138800 -21.878600 -4.661400
O -11.633600 -27.026500 -6.884300
H -11.615700 -24.251800 -6.267700
H -11.346600 -24.125600 -3.226500
C -11.005400 -20.559300 -3.159800
N -10.804500 -22.129100 -4.808000
O -10.802900 -19.777100 -2.265500
C -10.668000 -24.257700 -6.112500
C -10.494800 -26.635600 -6.799700
C -10.413000 -24.107500 -3.451400
H -10.255400 -22.893700 -1.761400
C -10.222000 -23.495800 -4.843600
N -10.081400 -21.299500 -3.864100
H -10.063900 -25.001700 -3.442100
N -10.053200 -25.606400 -5.966700
H -9.973700 -28.123200 -9.077700
H -9.928700 -22.705000 -7.328700
H -9.856400 -24.092000 -8.063200
C -9.780600 -23.645400 -7.210800
H -9.742400 -29.067500 -7.844500
C -9.644000 -23.226600 -2.428400
C -9.405900 -28.305500 -8.321500
N -9.394400 -27.149500 -7.419400
C -8.994400 -22.055100 -3.169100
H -8.964300 -23.752100 -1.999500
C -8.745100 -23.302800 -5.129100
N -8.636400 -25.422700 -6.239000
H -8.515600 -28.486500 -8.631700
H -8.509400 -21.509900 -2.539300
C -8.475500 -23.961700 -6.471600
C -8.292300 -26.331100 -7.247200
C -8.060000 -22.563100 -4.252600
H -7.645100 -23.710400 -6.886600
O -7.224700 -26.404700 -7.803400
C -6.609100 -22.232500 -4.265800
H -6.403800 -21.670600 -3.508800
H -6.387600 -21.774900 -5.083300
H -6.099100 -23.044200 -4.209200
88
Fragment
H -13.337700 -18.917500 -11.613100
H -12.781100 -18.862500 -10.139500
C -12.619700 -18.603100 -11.053100
H -12.568700 -17.646600 -11.107400
O -12.179700 -20.795900 -13.000700
N -11.361200 -19.176600 -11.519300
C -11.262000 -20.233100 -12.417400
O -10.756900 -25.381000 -14.640300
H -10.738900 -22.606300 -14.023700
H -10.469900 -22.480100 -10.982600
C -10.128600 -18.913800 -10.915900
N -9.927700 -20.483500 -12.564000
O -9.926200 -18.131600 -10.021600
C -9.791300 -22.612200 -13.868600
C -9.618100 -24.990100 -14.555800
C -9.536300 -22.461900 -11.207500
H -9.378700 -21.248200 -9.517400
C -9.345300 -21.850300 -12.599700
N -9.204700 -19.654000 -11.620100
H -9.187100 -23.356200 -11.198200
N -9.176400 -23.960900 -13.722800
H -9.096900 -26.477700 -16.833700
H -9.052000 -21.059500 -15.084700
H -8.979700 -22.446500 -15.819200
C -8.903900 -21.999900 -14.966800
H -8.865700 -27.422000 -15.600500
C -8.767300 -21.581100 -10.184500
C -8.529200 -26.660000 -16.077500
N -8.517600 -25.504000 -15.175500
C -8.117700 -20.409600 -10.925200
H -8.087600 -22.106600 -9.755500
C -7.868400 -21.657300 -12.885100
N -7.759700 -23.777100 -13.995000
H -7.638900 -26.841000 -16.387700
H -7.632700 -19.864400 -10.295400
C -7.598800 -22.316200 -14.227700
C -7.415600 -24.685600 -15.003300
C -7.183200 -20.917600 -12.008700
H -6.768300 -22.064800 -14.642600
O -6.347900 -24.759200 -15.559400
C -5.732300 -20.587000 -12.021900
H -5.527100 -20.025100 -11.264900
H -5.510900 -20.129400 -12.839300
H -5.222400 -21.398700 -11.965200
H -14.214400 -20.563000 -3.857100
H -13.657800 -20.508000 -2.383400
C -13.496400 -20.248600 -3.297100
H -13.445500 -19.292100 -3.351400
O -13.056400 -22.441400 -5.244600
N -12.237900 -20.822100 -3.763200
C -12.138800 -21.878600 -4.661400
O -11.633600 -27.026500 -6.884300
H -11.615700 -24.251800 -6.267700
H -11.346600 -24.125600 -3.226500
C -11.005400 -20.559300 -3.159800
N -10.804500 -22.129100 -4.808000
O -10.802900 -19.777100 -2.265500
C -10.668000 -24.257700 -6.112500
C -10.494800 -26.635600 -6.799700
C -10.413000 -24.107500 -3.451400
H -10.255400 -22.893700 -1.761400
C -10.222000 -23.495800 -4.843600
N -10.081400 -21.299500 -3.864100
H -10.063900 -25.001700 -3.442100
N -10.053200 -25.606400 -5.966700
H -9.973700 -28.123200 -9.077700
H -9.928700 -22.705000 -7.328700
H -9.856400 -24.092000 -8.063200
C -9.780600 -23.645400 -7.210800
H -9.742400 -29.067500 -7.844500
C -9.644000 -23.226600 -2.428400
C -9.405900 -28.305500 -8.321500
N -9.394400 -27.149500 -7.419400
C -8.994400 -22.055100 -3.169100
H -8.964300 -23.752100 -1.999500
C -8.745100 -23.302800 -5.129100
N -8.636400 -25.422700 -6.239000
H -8.515600 -28.486500 -8.631700
H -8.509400 -21.509900 -2.539300
C -8.475500 -23.961700 -6.471600
C -8.292300 -26.331100 -7.247200
C -8.060000 -22.563100 -4.252600
H -7.645100 -23.710400 -6.886600
O -7.224700 -26.404700 -7.803400
C -6.609100 -22.232500 -4.265800
H -6.403800 -21.670600 -3.508800
H -6.387600 -21.774900 -5.083300
H -6.099100 -23.044200 -4.209200
