22
Fragment
H -7.752900 -1.764600 -32.618900
H -7.733600 -2.289500 -30.371200
H -7.617700 -2.866000 -34.800700
C -7.396400 -2.574900 -32.334000
C -7.389600 -2.897900 -30.984200
H -7.219400 -3.731300 -28.511100
H -6.963500 -4.947300 -26.758900
C -6.895700 -4.389000 -29.083700
C -6.880400 -4.111300 -30.523800
C -6.868900 -3.465900 -33.255100
O -6.865900 -3.109600 -34.582100
N -6.560200 -5.566300 -27.198400
N -6.488300 -5.488300 -28.576800
C -6.347900 -4.986800 -31.477700
C -6.340800 -4.672100 -32.818100
O -6.021600 -6.617600 -25.279600
C -6.003000 -6.606600 -26.531700
H -5.991800 -5.798900 -31.200400
H -5.981100 -5.270500 -33.432100
H -5.439800 -7.521000 -28.111500
N -5.431200 -7.565400 -27.252000
H -5.052500 -8.229800 -26.858800
22
Fragment
H -12.651700 1.413900 -33.080500
N -12.273000 0.749500 -32.687300
H -12.264400 0.705100 -31.827700
H -11.723100 -1.545400 -26.507100
H -11.712400 -1.017000 -28.738900
C -11.701200 -0.209300 -33.407500
O -11.682600 -0.198300 -34.659700
C -11.363500 -2.143800 -27.121100
C -11.356300 -1.829100 -28.461500
N -11.216000 -1.327600 -31.362400
N -11.144000 -1.249600 -32.740800
O -10.838300 -3.706300 -25.357100
C -10.835300 -3.350000 -26.684100
C -10.823800 -2.704600 -29.415400
C -10.808500 -2.426900 -30.855500
H -10.740700 -1.868600 -33.180400
H -10.484800 -3.084600 -31.428100
C -10.314600 -3.918000 -28.955000
C -10.307800 -4.241000 -27.605200
H -10.086500 -3.949900 -25.138500
H -9.970600 -4.526400 -29.568000
H -9.951300 -5.051300 -27.320300
44
Fragment
H -7.752900 -1.764600 -32.618900
H -7.733600 -2.289500 -30.371200
H -7.617700 -2.866000 -34.800700
C -7.396400 -2.574900 -32.334000
C -7.389600 -2.897900 -30.984200
H -7.219400 -3.731300 -28.511100
H -6.963500 -4.947300 -26.758900
C -6.895700 -4.389000 -29.083700
C -6.880400 -4.111300 -30.523800
C -6.868900 -3.465900 -33.255100
O -6.865900 -3.109600 -34.582100
N -6.560200 -5.566300 -27.198400
N -6.488300 -5.488300 -28.576800
C -6.347900 -4.986800 -31.477700
C -6.340800 -4.672100 -32.818100
O -6.021600 -6.617600 -25.279600
C -6.003000 -6.606600 -26.531700
H -5.991800 -5.798900 -31.200400
H -5.981100 -5.270500 -33.432100
H -5.439800 -7.521000 -28.111500
N -5.431200 -7.565400 -27.252000
H -5.052500 -8.229800 -26.858800
H -12.651700 1.413900 -33.080500
N -12.273000 0.749500 -32.687300
H -12.264400 0.705100 -31.827700
H -11.723100 -1.545400 -26.507100
H -11.712400 -1.017000 -28.738900
C -11.701200 -0.209300 -33.407500
O -11.682600 -0.198300 -34.659700
C -11.363500 -2.143800 -27.121100
C -11.356300 -1.829100 -28.461500
N -11.216000 -1.327600 -31.362400
N -11.144000 -1.249600 -32.740800
O -10.838300 -3.706300 -25.357100
C -10.835300 -3.350000 -26.684100
C -10.823800 -2.704600 -29.415400
C -10.808500 -2.426900 -30.855500
H -10.740700 -1.868600 -33.180400
H -10.484800 -3.084600 -31.428100
C -10.314600 -3.918000 -28.955000
C -10.307800 -4.241000 -27.605200
H -10.086500 -3.949900 -25.138500
H -9.970600 -4.526400 -29.568000
H -9.951300 -5.051300 -27.320300
