22
Fragment
H -7.752900 -1.764600 -32.618900
H -7.733600 -2.289500 -30.371200
H -7.617700 -2.866000 -34.800700
C -7.396400 -2.574900 -32.334000
C -7.389600 -2.897900 -30.984200
H -7.219400 -3.731300 -28.511100
H -6.963500 -4.947300 -26.758900
C -6.895700 -4.389000 -29.083700
C -6.880400 -4.111300 -30.523800
C -6.868900 -3.465900 -33.255100
O -6.865900 -3.109600 -34.582100
N -6.560200 -5.566300 -27.198400
N -6.488300 -5.488300 -28.576800
C -6.347900 -4.986800 -31.477700
C -6.340800 -4.672100 -32.818100
O -6.021600 -6.617600 -25.279600
C -6.003000 -6.606600 -26.531700
H -5.991800 -5.798900 -31.200400
H -5.981100 -5.270500 -33.432100
H -5.439800 -7.521000 -28.111500
N -5.431200 -7.565400 -27.252000
H -5.052500 -8.229800 -26.858800
22
Fragment
H -5.986400 -11.658600 -17.666100
H -5.838000 -8.312200 -24.079600
H -5.752900 -9.168600 -22.862800
H -5.712000 -11.052800 -19.865900
N -5.603900 -9.048500 -23.701400
C -5.496600 -12.204500 -18.238300
C -5.332700 -11.843900 -19.556600
O -5.141600 -13.717800 -16.433300
C -5.012600 -9.999600 -24.412400
C -4.932900 -13.384500 -17.755800
N -4.932400 -11.290500 -22.404900
O -4.763700 -9.897600 -25.631200
H -4.681600 -14.368200 -16.239500
N -4.668400 -11.144700 -23.755100
C -4.603700 -12.650300 -20.439700
C -4.431000 -12.327900 -21.852200
H -4.282600 -11.782600 -24.185500
C -4.186600 -14.187200 -18.605300
C -4.036300 -13.821000 -19.932400
H -3.929900 -12.908600 -22.377300
H -3.789200 -14.965600 -18.285500
H -3.545300 -14.369300 -20.501200
44
Fragment
H -7.752900 -1.764600 -32.618900
H -7.733600 -2.289500 -30.371200
H -7.617700 -2.866000 -34.800700
C -7.396400 -2.574900 -32.334000
C -7.389600 -2.897900 -30.984200
H -7.219400 -3.731300 -28.511100
H -6.963500 -4.947300 -26.758900
C -6.895700 -4.389000 -29.083700
C -6.880400 -4.111300 -30.523800
C -6.868900 -3.465900 -33.255100
O -6.865900 -3.109600 -34.582100
N -6.560200 -5.566300 -27.198400
N -6.488300 -5.488300 -28.576800
C -6.347900 -4.986800 -31.477700
C -6.340800 -4.672100 -32.818100
O -6.021600 -6.617600 -25.279600
C -6.003000 -6.606600 -26.531700
H -5.991800 -5.798900 -31.200400
H -5.981100 -5.270500 -33.432100
H -5.439800 -7.521000 -28.111500
N -5.431200 -7.565400 -27.252000
H -5.052500 -8.229800 -26.858800
H -5.986400 -11.658600 -17.666100
H -5.838000 -8.312200 -24.079600
H -5.752900 -9.168600 -22.862800
H -5.712000 -11.052800 -19.865900
N -5.603900 -9.048500 -23.701400
C -5.496600 -12.204500 -18.238300
C -5.332700 -11.843900 -19.556600
O -5.141600 -13.717800 -16.433300
C -5.012600 -9.999600 -24.412400
C -4.932900 -13.384500 -17.755800
N -4.932400 -11.290500 -22.404900
O -4.763700 -9.897600 -25.631200
H -4.681600 -14.368200 -16.239500
N -4.668400 -11.144700 -23.755100
C -4.603700 -12.650300 -20.439700
C -4.431000 -12.327900 -21.852200
H -4.282600 -11.782600 -24.185500
C -4.186600 -14.187200 -18.605300
C -4.036300 -13.821000 -19.932400
H -3.929900 -12.908600 -22.377300
H -3.789200 -14.965600 -18.285500
H -3.545300 -14.369300 -20.501200
