30
Fragment
H -12.281100 -10.240300 -54.556000
H -12.082200 -10.929700 -52.384800
H -11.892600 -11.578400 -50.441100
H -11.620300 -12.364500 -48.309700
C -11.441700 -10.281800 -54.159100
C -11.323400 -10.691000 -52.859500
C -11.038900 -11.631600 -50.075400
C -10.879300 -12.098300 -48.801200
H -10.412300 -9.657700 -55.764600
C -10.320200 -9.929900 -54.879100
C -10.078400 -10.755600 -52.219200
C -9.928700 -11.222300 -50.846300
C -9.636700 -12.170100 -48.240600
H -9.552200 -12.485900 -47.370000
C -9.096800 -9.987400 -54.315200
C -8.907100 -10.360700 -52.964600
C -8.629700 -11.301300 -50.247400
C -8.529700 -11.789600 -48.925400
H -8.352100 -9.770500 -54.831900
H -7.699200 -11.846700 -48.519300
C -7.617000 -10.396600 -52.337100
C -7.470100 -10.863300 -50.970500
H -6.519900 -9.702700 -53.892500
C -6.450900 -9.987400 -53.009200
C -6.193600 -10.849000 -50.390700
H -6.082300 -11.156700 -49.520800
C -5.242600 -9.987400 -52.407100
C -5.113000 -10.389500 -51.088400
H -4.488800 -9.716200 -52.884000
H -4.285400 -10.347300 -50.672300
20
Fragment
N -20.037000 -15.157000 -42.548100
C -18.915600 -15.214400 -42.376100
H -17.857700 -14.414900 -44.527900
C -17.529600 -15.257500 -42.086300
C -17.219600 -15.824700 -40.812100
C -16.962100 -14.417400 -44.287400
N -16.954200 -16.313000 -39.808700
C -16.572100 -14.855400 -42.987700
F -16.413800 -13.649200 -46.396200
C -16.027100 -14.015400 -45.163400
C -15.174900 -14.826700 -42.704200
F -14.781600 -15.192900 -41.471500
C -14.631800 -13.986600 -44.873500
N -14.308000 -12.916800 -48.180000
C -14.239900 -14.410300 -43.580200
C -14.014800 -13.211200 -47.109700
C -13.675700 -13.584600 -45.771800
H -13.345600 -14.407300 -43.337500
C -12.308900 -13.491200 -45.421400
N -11.223800 -13.369200 -45.131600
50
Fragment
H -12.281100 -10.240300 -54.556000
H -12.082200 -10.929700 -52.384800
H -11.892600 -11.578400 -50.441100
H -11.620300 -12.364500 -48.309700
C -11.441700 -10.281800 -54.159100
C -11.323400 -10.691000 -52.859500
C -11.038900 -11.631600 -50.075400
C -10.879300 -12.098300 -48.801200
H -10.412300 -9.657700 -55.764600
C -10.320200 -9.929900 -54.879100
C -10.078400 -10.755600 -52.219200
C -9.928700 -11.222300 -50.846300
C -9.636700 -12.170100 -48.240600
H -9.552200 -12.485900 -47.370000
C -9.096800 -9.987400 -54.315200
C -8.907100 -10.360700 -52.964600
C -8.629700 -11.301300 -50.247400
C -8.529700 -11.789600 -48.925400
H -8.352100 -9.770500 -54.831900
H -7.699200 -11.846700 -48.519300
C -7.617000 -10.396600 -52.337100
C -7.470100 -10.863300 -50.970500
H -6.519900 -9.702700 -53.892500
C -6.450900 -9.987400 -53.009200
C -6.193600 -10.849000 -50.390700
H -6.082300 -11.156700 -49.520800
C -5.242600 -9.987400 -52.407100
C -5.113000 -10.389500 -51.088400
H -4.488800 -9.716200 -52.884000
H -4.285400 -10.347300 -50.672300
N -20.037000 -15.157000 -42.548100
C -18.915600 -15.214400 -42.376100
H -17.857700 -14.414900 -44.527900
C -17.529600 -15.257500 -42.086300
C -17.219600 -15.824700 -40.812100
C -16.962100 -14.417400 -44.287400
N -16.954200 -16.313000 -39.808700
C -16.572100 -14.855400 -42.987700
F -16.413800 -13.649200 -46.396200
C -16.027100 -14.015400 -45.163400
C -15.174900 -14.826700 -42.704200
F -14.781600 -15.192900 -41.471500
C -14.631800 -13.986600 -44.873500
N -14.308000 -12.916800 -48.180000
C -14.239900 -14.410300 -43.580200
C -14.014800 -13.211200 -47.109700
C -13.675700 -13.584600 -45.771800
H -13.345600 -14.407300 -43.337500
C -12.308900 -13.491200 -45.421400
N -11.223800 -13.369200 -45.131600
