30
Fragment
H -12.281100 -10.240300 -54.556000
H -12.082200 -10.929700 -52.384800
H -11.892600 -11.578400 -50.441100
H -11.620300 -12.364500 -48.309700
C -11.441700 -10.281800 -54.159100
C -11.323400 -10.691000 -52.859500
C -11.038900 -11.631600 -50.075400
C -10.879300 -12.098300 -48.801200
H -10.412300 -9.657700 -55.764600
C -10.320200 -9.929900 -54.879100
C -10.078400 -10.755600 -52.219200
C -9.928700 -11.222300 -50.846300
C -9.636700 -12.170100 -48.240600
H -9.552200 -12.485900 -47.370000
C -9.096800 -9.987400 -54.315200
C -8.907100 -10.360700 -52.964600
C -8.629700 -11.301300 -50.247400
C -8.529700 -11.789600 -48.925400
H -8.352100 -9.770500 -54.831900
H -7.699200 -11.846700 -48.519300
C -7.617000 -10.396600 -52.337100
C -7.470100 -10.863300 -50.970500
H -6.519900 -9.702700 -53.892500
C -6.450900 -9.987400 -53.009200
C -6.193600 -10.849000 -50.390700
H -6.082300 -11.156700 -49.520800
C -5.242600 -9.987400 -52.407100
C -5.113000 -10.389500 -51.088400
H -4.488800 -9.716200 -52.884000
H -4.285400 -10.347300 -50.672300
20
Fragment
N -8.285100 -9.973000 -58.475400
C -7.163700 -9.915600 -58.303400
H -6.105800 -10.715100 -60.455200
C -5.777700 -9.872500 -58.013500
C -5.467700 -9.305300 -56.739400
C -5.210100 -10.712600 -60.214700
N -5.202200 -8.817000 -55.735900
C -4.820200 -10.274600 -58.915000
F -4.661900 -11.480800 -62.323500
C -4.275200 -11.114600 -61.090700
C -3.422900 -10.303300 -58.631500
F -3.029700 -9.937100 -57.398700
C -2.879800 -11.143400 -60.800800
N -2.556100 -12.213200 -64.107300
C -2.488000 -10.719700 -59.507500
C -2.262900 -11.918800 -63.037000
C -1.923700 -11.545400 -61.699100
H -1.593600 -10.722700 -59.264800
C -0.557000 -11.638800 -61.348700
N 0.528200 -11.760800 -61.058800
50
Fragment
H -12.281100 -10.240300 -54.556000
H -12.082200 -10.929700 -52.384800
H -11.892600 -11.578400 -50.441100
H -11.620300 -12.364500 -48.309700
C -11.441700 -10.281800 -54.159100
C -11.323400 -10.691000 -52.859500
C -11.038900 -11.631600 -50.075400
C -10.879300 -12.098300 -48.801200
H -10.412300 -9.657700 -55.764600
C -10.320200 -9.929900 -54.879100
C -10.078400 -10.755600 -52.219200
C -9.928700 -11.222300 -50.846300
C -9.636700 -12.170100 -48.240600
H -9.552200 -12.485900 -47.370000
C -9.096800 -9.987400 -54.315200
C -8.907100 -10.360700 -52.964600
C -8.629700 -11.301300 -50.247400
C -8.529700 -11.789600 -48.925400
H -8.352100 -9.770500 -54.831900
H -7.699200 -11.846700 -48.519300
C -7.617000 -10.396600 -52.337100
C -7.470100 -10.863300 -50.970500
H -6.519900 -9.702700 -53.892500
C -6.450900 -9.987400 -53.009200
C -6.193600 -10.849000 -50.390700
H -6.082300 -11.156700 -49.520800
C -5.242600 -9.987400 -52.407100
C -5.113000 -10.389500 -51.088400
H -4.488800 -9.716200 -52.884000
H -4.285400 -10.347300 -50.672300
N -8.285100 -9.973000 -58.475400
C -7.163700 -9.915600 -58.303400
H -6.105800 -10.715100 -60.455200
C -5.777700 -9.872500 -58.013500
C -5.467700 -9.305300 -56.739400
C -5.210100 -10.712600 -60.214700
N -5.202200 -8.817000 -55.735900
C -4.820200 -10.274600 -58.915000
F -4.661900 -11.480800 -62.323500
C -4.275200 -11.114600 -61.090700
C -3.422900 -10.303300 -58.631500
F -3.029700 -9.937100 -57.398700
C -2.879800 -11.143400 -60.800800
N -2.556100 -12.213200 -64.107300
C -2.488000 -10.719700 -59.507500
C -2.262900 -11.918800 -63.037000
C -1.923700 -11.545400 -61.699100
H -1.593600 -10.722700 -59.264800
C -0.557000 -11.638800 -61.348700
N 0.528200 -11.760800 -61.058800
