30
Fragment
H -12.281100 -10.240300 -54.556000
H -12.082200 -10.929700 -52.384800
H -11.892600 -11.578400 -50.441100
H -11.620300 -12.364500 -48.309700
C -11.441700 -10.281800 -54.159100
C -11.323400 -10.691000 -52.859500
C -11.038900 -11.631600 -50.075400
C -10.879300 -12.098300 -48.801200
H -10.412300 -9.657700 -55.764600
C -10.320200 -9.929900 -54.879100
C -10.078400 -10.755600 -52.219200
C -9.928700 -11.222300 -50.846300
C -9.636700 -12.170100 -48.240600
H -9.552200 -12.485900 -47.370000
C -9.096800 -9.987400 -54.315200
C -8.907100 -10.360700 -52.964600
C -8.629700 -11.301300 -50.247400
C -8.529700 -11.789600 -48.925400
H -8.352100 -9.770500 -54.831900
H -7.699200 -11.846700 -48.519300
C -7.617000 -10.396600 -52.337100
C -7.470100 -10.863300 -50.970500
H -6.519900 -9.702700 -53.892500
C -6.450900 -9.987400 -53.009200
C -6.193600 -10.849000 -50.390700
H -6.082300 -11.156700 -49.520800
C -5.242600 -9.987400 -52.407100
C -5.113000 -10.389500 -51.088400
H -4.488800 -9.716200 -52.884000
H -4.285400 -10.347300 -50.672300
30
Fragment
H -16.851000 -13.937300 -60.818700
H -16.647700 -13.306200 -58.607000
C -16.023400 -13.979500 -60.402600
C -15.893900 -13.577400 -59.083900
H -15.054100 -14.746700 -61.970200
C -14.942800 -14.439000 -61.100200
C -14.685600 -13.577400 -58.481800
H -14.616500 -13.292700 -57.598500
C -13.666400 -14.453300 -60.520500
C -13.519400 -13.986600 -59.153900
H -13.437200 -15.436700 -62.971700
H -12.784300 -13.360500 -56.659100
C -12.606700 -15.379600 -62.565600
C -12.506800 -14.891300 -61.243600
C -12.229300 -13.950700 -58.526400
C -12.039600 -13.577400 -57.175800
H -11.584200 -16.075900 -64.121000
C -11.499800 -15.760100 -63.250400
C -11.207800 -14.812300 -60.644700
C -11.058000 -14.345600 -59.271800
C -10.816300 -13.519900 -56.611900
H -10.724200 -13.247700 -55.726400
C -10.257200 -15.688300 -62.689800
C -10.097500 -15.221600 -61.415600
C -9.813100 -14.281000 -58.631500
C -9.694800 -13.871800 -57.331900
H -9.516200 -15.954500 -63.181300
H -9.243900 -15.168400 -61.049900
H -9.054200 -14.519700 -59.106200
H -8.855300 -13.830300 -56.934900
60
Fragment
H -12.281100 -10.240300 -54.556000
H -12.082200 -10.929700 -52.384800
H -11.892600 -11.578400 -50.441100
H -11.620300 -12.364500 -48.309700
C -11.441700 -10.281800 -54.159100
C -11.323400 -10.691000 -52.859500
C -11.038900 -11.631600 -50.075400
C -10.879300 -12.098300 -48.801200
H -10.412300 -9.657700 -55.764600
C -10.320200 -9.929900 -54.879100
C -10.078400 -10.755600 -52.219200
C -9.928700 -11.222300 -50.846300
C -9.636700 -12.170100 -48.240600
H -9.552200 -12.485900 -47.370000
C -9.096800 -9.987400 -54.315200
C -8.907100 -10.360700 -52.964600
C -8.629700 -11.301300 -50.247400
C -8.529700 -11.789600 -48.925400
H -8.352100 -9.770500 -54.831900
H -7.699200 -11.846700 -48.519300
C -7.617000 -10.396600 -52.337100
C -7.470100 -10.863300 -50.970500
H -6.519900 -9.702700 -53.892500
C -6.450900 -9.987400 -53.009200
C -6.193600 -10.849000 -50.390700
H -6.082300 -11.156700 -49.520800
C -5.242600 -9.987400 -52.407100
C -5.113000 -10.389500 -51.088400
H -4.488800 -9.716200 -52.884000
H -4.285400 -10.347300 -50.672300
H -16.851000 -13.937300 -60.818700
H -16.647700 -13.306200 -58.607000
C -16.023400 -13.979500 -60.402600
C -15.893900 -13.577400 -59.083900
H -15.054100 -14.746700 -61.970200
C -14.942800 -14.439000 -61.100200
C -14.685600 -13.577400 -58.481800
H -14.616500 -13.292700 -57.598500
C -13.666400 -14.453300 -60.520500
C -13.519400 -13.986600 -59.153900
H -13.437200 -15.436700 -62.971700
H -12.784300 -13.360500 -56.659100
C -12.606700 -15.379600 -62.565600
C -12.506800 -14.891300 -61.243600
C -12.229300 -13.950700 -58.526400
C -12.039600 -13.577400 -57.175800
H -11.584200 -16.075900 -64.121000
C -11.499800 -15.760100 -63.250400
C -11.207800 -14.812300 -60.644700
C -11.058000 -14.345600 -59.271800
C -10.816300 -13.519900 -56.611900
H -10.724200 -13.247700 -55.726400
C -10.257200 -15.688300 -62.689800
C -10.097500 -15.221600 -61.415600
C -9.813100 -14.281000 -58.631500
C -9.694800 -13.871800 -57.331900
H -9.516200 -15.954500 -63.181300
H -9.243900 -15.168400 -61.049900
H -9.054200 -14.519700 -59.106200
H -8.855300 -13.830300 -56.934900
