30
Fragment
H -12.281100 -10.240300 -54.556000
H -12.082200 -10.929700 -52.384800
H -11.892600 -11.578400 -50.441100
H -11.620300 -12.364500 -48.309700
C -11.441700 -10.281800 -54.159100
C -11.323400 -10.691000 -52.859500
C -11.038900 -11.631600 -50.075400
C -10.879300 -12.098300 -48.801200
H -10.412300 -9.657700 -55.764600
C -10.320200 -9.929900 -54.879100
C -10.078400 -10.755600 -52.219200
C -9.928700 -11.222300 -50.846300
C -9.636700 -12.170100 -48.240600
H -9.552200 -12.485900 -47.370000
C -9.096800 -9.987400 -54.315200
C -8.907100 -10.360700 -52.964600
C -8.629700 -11.301300 -50.247400
C -8.529700 -11.789600 -48.925400
H -8.352100 -9.770500 -54.831900
H -7.699200 -11.846700 -48.519300
C -7.617000 -10.396600 -52.337100
C -7.470100 -10.863300 -50.970500
H -6.519900 -9.702700 -53.892500
C -6.450900 -9.987400 -53.009200
C -6.193600 -10.849000 -50.390700
H -6.082300 -11.156700 -49.520800
C -5.242600 -9.987400 -52.407100
C -5.113000 -10.389500 -51.088400
H -4.488800 -9.716200 -52.884000
H -4.285400 -10.347300 -50.672300
30
Fragment
H -21.681100 -10.240300 -54.556000
H -21.482200 -10.929700 -52.384800
H -21.292600 -11.578400 -50.441100
H -21.020300 -12.364500 -48.309700
C -20.841700 -10.281800 -54.159100
C -20.723400 -10.691000 -52.859500
C -20.438900 -11.631600 -50.075400
C -20.279300 -12.098300 -48.801200
H -19.812300 -9.657700 -55.764600
C -19.720200 -9.929900 -54.879100
C -19.478400 -10.755600 -52.219200
C -19.328700 -11.222300 -50.846300
C -19.036700 -12.170100 -48.240600
H -18.952200 -12.485900 -47.370000
C -18.496800 -9.987400 -54.315200
C -18.307100 -10.360700 -52.964600
C -18.029700 -11.301300 -50.247400
C -17.929700 -11.789600 -48.925400
H -17.752100 -9.770500 -54.831900
H -17.099200 -11.846700 -48.519300
C -17.017000 -10.396600 -52.337100
C -16.870100 -10.863300 -50.970500
H -15.919900 -9.702700 -53.892500
C -15.850900 -9.987400 -53.009200
C -15.593600 -10.849000 -50.390700
H -15.482300 -11.156700 -49.520800
C -14.642600 -9.987400 -52.407100
C -14.513000 -10.389500 -51.088400
H -13.888800 -9.716200 -52.884000
H -13.685400 -10.347300 -50.672300
60
Fragment
H -12.281100 -10.240300 -54.556000
H -12.082200 -10.929700 -52.384800
H -11.892600 -11.578400 -50.441100
H -11.620300 -12.364500 -48.309700
C -11.441700 -10.281800 -54.159100
C -11.323400 -10.691000 -52.859500
C -11.038900 -11.631600 -50.075400
C -10.879300 -12.098300 -48.801200
H -10.412300 -9.657700 -55.764600
C -10.320200 -9.929900 -54.879100
C -10.078400 -10.755600 -52.219200
C -9.928700 -11.222300 -50.846300
C -9.636700 -12.170100 -48.240600
H -9.552200 -12.485900 -47.370000
C -9.096800 -9.987400 -54.315200
C -8.907100 -10.360700 -52.964600
C -8.629700 -11.301300 -50.247400
C -8.529700 -11.789600 -48.925400
H -8.352100 -9.770500 -54.831900
H -7.699200 -11.846700 -48.519300
C -7.617000 -10.396600 -52.337100
C -7.470100 -10.863300 -50.970500
H -6.519900 -9.702700 -53.892500
C -6.450900 -9.987400 -53.009200
C -6.193600 -10.849000 -50.390700
H -6.082300 -11.156700 -49.520800
C -5.242600 -9.987400 -52.407100
C -5.113000 -10.389500 -51.088400
H -4.488800 -9.716200 -52.884000
H -4.285400 -10.347300 -50.672300
H -21.681100 -10.240300 -54.556000
H -21.482200 -10.929700 -52.384800
H -21.292600 -11.578400 -50.441100
H -21.020300 -12.364500 -48.309700
C -20.841700 -10.281800 -54.159100
C -20.723400 -10.691000 -52.859500
C -20.438900 -11.631600 -50.075400
C -20.279300 -12.098300 -48.801200
H -19.812300 -9.657700 -55.764600
C -19.720200 -9.929900 -54.879100
C -19.478400 -10.755600 -52.219200
C -19.328700 -11.222300 -50.846300
C -19.036700 -12.170100 -48.240600
H -18.952200 -12.485900 -47.370000
C -18.496800 -9.987400 -54.315200
C -18.307100 -10.360700 -52.964600
C -18.029700 -11.301300 -50.247400
C -17.929700 -11.789600 -48.925400
H -17.752100 -9.770500 -54.831900
H -17.099200 -11.846700 -48.519300
C -17.017000 -10.396600 -52.337100
C -16.870100 -10.863300 -50.970500
H -15.919900 -9.702700 -53.892500
C -15.850900 -9.987400 -53.009200
C -15.593600 -10.849000 -50.390700
H -15.482300 -11.156700 -49.520800
C -14.642600 -9.987400 -52.407100
C -14.513000 -10.389500 -51.088400
H -13.888800 -9.716200 -52.884000
H -13.685400 -10.347300 -50.672300
