21
Fragment
H -23.631300 -20.526500 -19.980500
H -23.508700 -21.367400 -21.336100
H -23.135800 -19.810700 -21.323500
C -23.115900 -20.642700 -20.805500
O -21.938500 -22.991600 -21.565100
N -21.726600 -20.977600 -20.471600
O -21.568800 -18.978100 -19.381100
C -21.229800 -22.216500 -20.929900
C -21.034400 -20.036000 -19.718300
C -19.872200 -22.406800 -20.562500
N -19.743100 -20.335400 -19.361700
H -19.613800 -18.927000 -17.926300
C -19.173800 -21.498700 -19.810700
H -19.141500 -24.179600 -21.248800
C -18.990400 -19.436900 -18.484100
N -18.986800 -23.440900 -20.797000
H -18.457800 -18.820000 -19.027500
H -18.395300 -19.964000 -17.911100
N -17.904400 -21.909300 -19.565400
C -17.838900 -23.085700 -20.192200
H -17.054900 -23.621300 -20.209600
30
Fragment
Cl -20.568100 -14.809900 -14.907600
H -19.864700 -17.427000 -15.593600
C -19.079700 -15.712400 -14.833300
C -19.071000 -17.025300 -15.259300
H -17.960100 -14.202600 -14.055700
C -17.939400 -15.104400 -14.354300
C -17.887600 -17.752000 -15.193400
H -17.880900 -18.658300 -15.478400
H -16.925100 -18.812300 -11.859700
C -16.757300 -15.836700 -14.317000
C -16.711400 -17.176200 -14.717800
H -16.269800 -18.350300 -10.475000
H -16.161400 -17.945500 -17.150400
C -16.082100 -18.687800 -11.375700
H -15.961300 -15.417600 -14.011400
H -15.727300 -16.854500 -12.252100
H -15.611400 -19.544200 -11.311700
N -15.467100 -18.473400 -17.032200
C -15.461000 -17.988000 -14.641300
C -15.218300 -17.692700 -12.115800
H -15.117500 -18.899700 -17.717400
C -14.935800 -18.629200 -15.793800
C -14.774100 -18.228200 -13.455000
H -14.421300 -17.479300 -11.567300
N -13.878900 -19.457200 -15.728100
N -13.694500 -19.028100 -13.384100
C -13.305600 -19.628100 -14.519500
N -12.252900 -20.457600 -14.458400
H -11.972700 -20.866700 -15.184800
H -11.842900 -20.592600 -13.691200
51
Fragment
H -23.631300 -20.526500 -19.980500
H -23.508700 -21.367400 -21.336100
H -23.135800 -19.810700 -21.323500
C -23.115900 -20.642700 -20.805500
O -21.938500 -22.991600 -21.565100
N -21.726600 -20.977600 -20.471600
O -21.568800 -18.978100 -19.381100
C -21.229800 -22.216500 -20.929900
C -21.034400 -20.036000 -19.718300
C -19.872200 -22.406800 -20.562500
N -19.743100 -20.335400 -19.361700
H -19.613800 -18.927000 -17.926300
C -19.173800 -21.498700 -19.810700
H -19.141500 -24.179600 -21.248800
C -18.990400 -19.436900 -18.484100
N -18.986800 -23.440900 -20.797000
H -18.457800 -18.820000 -19.027500
H -18.395300 -19.964000 -17.911100
N -17.904400 -21.909300 -19.565400
C -17.838900 -23.085700 -20.192200
H -17.054900 -23.621300 -20.209600
Cl -20.568100 -14.809900 -14.907600
H -19.864700 -17.427000 -15.593600
C -19.079700 -15.712400 -14.833300
C -19.071000 -17.025300 -15.259300
H -17.960100 -14.202600 -14.055700
C -17.939400 -15.104400 -14.354300
C -17.887600 -17.752000 -15.193400
H -17.880900 -18.658300 -15.478400
H -16.925100 -18.812300 -11.859700
C -16.757300 -15.836700 -14.317000
C -16.711400 -17.176200 -14.717800
H -16.269800 -18.350300 -10.475000
H -16.161400 -17.945500 -17.150400
C -16.082100 -18.687800 -11.375700
H -15.961300 -15.417600 -14.011400
H -15.727300 -16.854500 -12.252100
H -15.611400 -19.544200 -11.311700
N -15.467100 -18.473400 -17.032200
C -15.461000 -17.988000 -14.641300
C -15.218300 -17.692700 -12.115800
H -15.117500 -18.899700 -17.717400
C -14.935800 -18.629200 -15.793800
C -14.774100 -18.228200 -13.455000
H -14.421300 -17.479300 -11.567300
N -13.878900 -19.457200 -15.728100
N -13.694500 -19.028100 -13.384100
C -13.305600 -19.628100 -14.519500
N -12.252900 -20.457600 -14.458400
H -11.972700 -20.866700 -15.184800
H -11.842900 -20.592600 -13.691200
