21
Fragment
H -23.631300 -20.526500 -19.980500
H -23.508700 -21.367400 -21.336100
H -23.135800 -19.810700 -21.323500
C -23.115900 -20.642700 -20.805500
O -21.938500 -22.991600 -21.565100
N -21.726600 -20.977600 -20.471600
O -21.568800 -18.978100 -19.381100
C -21.229800 -22.216500 -20.929900
C -21.034400 -20.036000 -19.718300
C -19.872200 -22.406800 -20.562500
N -19.743100 -20.335400 -19.361700
H -19.613800 -18.927000 -17.926300
C -19.173800 -21.498700 -19.810700
H -19.141500 -24.179600 -21.248800
C -18.990400 -19.436900 -18.484100
N -18.986800 -23.440900 -20.797000
H -18.457800 -18.820000 -19.027500
H -18.395300 -19.964000 -17.911100
N -17.904400 -21.909300 -19.565400
C -17.838900 -23.085700 -20.192200
H -17.054900 -23.621300 -20.209600
21
Fragment
H -23.999100 -21.678100 -17.761700
C -23.215100 -22.213600 -17.779200
N -23.149600 -23.390000 -18.406000
H -22.658700 -25.335400 -20.060300
H -22.596300 -26.479300 -18.943900
N -22.067200 -21.858400 -17.174300
C -22.063700 -25.862400 -19.487300
H -21.912500 -21.119800 -16.722600
C -21.880200 -23.800600 -18.160700
H -21.440200 -26.372300 -20.045100
N -21.310900 -24.963900 -18.609600
C -21.181800 -22.892500 -17.408900
C -20.019600 -25.263300 -18.253100
C -19.824300 -23.082800 -17.041400
O -19.485200 -26.321200 -18.590300
N -19.327400 -24.321700 -17.499700
O -19.115600 -22.307700 -16.406300
C -17.938100 -24.656600 -17.165800
H -17.918200 -25.488600 -16.647900
H -17.545300 -23.931900 -16.635300
H -17.422700 -24.772800 -17.990800
42
Fragment
H -23.631300 -20.526500 -19.980500
H -23.508700 -21.367400 -21.336100
H -23.135800 -19.810700 -21.323500
C -23.115900 -20.642700 -20.805500
O -21.938500 -22.991600 -21.565100
N -21.726600 -20.977600 -20.471600
O -21.568800 -18.978100 -19.381100
C -21.229800 -22.216500 -20.929900
C -21.034400 -20.036000 -19.718300
C -19.872200 -22.406800 -20.562500
N -19.743100 -20.335400 -19.361700
H -19.613800 -18.927000 -17.926300
C -19.173800 -21.498700 -19.810700
H -19.141500 -24.179600 -21.248800
C -18.990400 -19.436900 -18.484100
N -18.986800 -23.440900 -20.797000
H -18.457800 -18.820000 -19.027500
H -18.395300 -19.964000 -17.911100
N -17.904400 -21.909300 -19.565400
C -17.838900 -23.085700 -20.192200
H -17.054900 -23.621300 -20.209600
H -23.999100 -21.678100 -17.761700
C -23.215100 -22.213600 -17.779200
N -23.149600 -23.390000 -18.406000
H -22.658700 -25.335400 -20.060300
H -22.596300 -26.479300 -18.943900
N -22.067200 -21.858400 -17.174300
C -22.063700 -25.862400 -19.487300
H -21.912500 -21.119800 -16.722600
C -21.880200 -23.800600 -18.160700
H -21.440200 -26.372300 -20.045100
N -21.310900 -24.963900 -18.609600
C -21.181800 -22.892500 -17.408900
C -20.019600 -25.263300 -18.253100
C -19.824300 -23.082800 -17.041400
O -19.485200 -26.321200 -18.590300
N -19.327400 -24.321700 -17.499700
O -19.115600 -22.307700 -16.406300
C -17.938100 -24.656600 -17.165800
H -17.918200 -25.488600 -16.647900
H -17.545300 -23.931900 -16.635300
H -17.422700 -24.772800 -17.990800
