21
Fragment
H -23.631300 -20.526500 -19.980500
H -23.508700 -21.367400 -21.336100
H -23.135800 -19.810700 -21.323500
C -23.115900 -20.642700 -20.805500
O -21.938500 -22.991600 -21.565100
N -21.726600 -20.977600 -20.471600
O -21.568800 -18.978100 -19.381100
C -21.229800 -22.216500 -20.929900
C -21.034400 -20.036000 -19.718300
C -19.872200 -22.406800 -20.562500
N -19.743100 -20.335400 -19.361700
H -19.613800 -18.927000 -17.926300
C -19.173800 -21.498700 -19.810700
H -19.141500 -24.179600 -21.248800
C -18.990400 -19.436900 -18.484100
N -18.986800 -23.440900 -20.797000
H -18.457800 -18.820000 -19.027500
H -18.395300 -19.964000 -17.911100
N -17.904400 -21.909300 -19.565400
C -17.838900 -23.085700 -20.192200
H -17.054900 -23.621300 -20.209600
30
Fragment
Cl -29.051300 -19.918800 -27.564700
H -28.347900 -22.535800 -28.250700
C -27.562900 -20.821200 -27.490400
C -27.554200 -22.134100 -27.916400
H -26.443300 -19.311500 -26.712900
C -26.422600 -20.213300 -27.011400
C -26.370800 -22.860800 -27.850500
H -26.364100 -23.767200 -28.135500
H -25.408300 -23.921100 -24.516800
C -25.240500 -20.945500 -26.974100
C -25.194600 -22.285100 -27.375000
H -24.753000 -23.459100 -23.132200
H -24.644600 -23.054300 -29.807500
C -24.565300 -23.796700 -24.032800
H -24.444500 -20.526500 -26.668600
H -24.210600 -21.963400 -24.909200
H -24.094600 -24.653000 -23.968800
N -23.950300 -23.582300 -29.689300
C -23.944300 -23.096900 -27.298400
C -23.701500 -22.801600 -24.772900
H -23.600700 -24.008500 -30.374600
C -23.419000 -23.738000 -28.450900
C -23.257300 -23.337000 -26.112200
H -22.904500 -22.588200 -24.224500
N -22.362200 -24.566000 -28.385200
N -22.177700 -24.137000 -26.041300
C -21.788800 -24.736900 -27.176600
N -20.736100 -25.566500 -27.115500
H -20.455900 -25.975500 -27.841900
H -20.326100 -25.701400 -26.348300
51
Fragment
H -23.631300 -20.526500 -19.980500
H -23.508700 -21.367400 -21.336100
H -23.135800 -19.810700 -21.323500
C -23.115900 -20.642700 -20.805500
O -21.938500 -22.991600 -21.565100
N -21.726600 -20.977600 -20.471600
O -21.568800 -18.978100 -19.381100
C -21.229800 -22.216500 -20.929900
C -21.034400 -20.036000 -19.718300
C -19.872200 -22.406800 -20.562500
N -19.743100 -20.335400 -19.361700
H -19.613800 -18.927000 -17.926300
C -19.173800 -21.498700 -19.810700
H -19.141500 -24.179600 -21.248800
C -18.990400 -19.436900 -18.484100
N -18.986800 -23.440900 -20.797000
H -18.457800 -18.820000 -19.027500
H -18.395300 -19.964000 -17.911100
N -17.904400 -21.909300 -19.565400
C -17.838900 -23.085700 -20.192200
H -17.054900 -23.621300 -20.209600
Cl -29.051300 -19.918800 -27.564700
H -28.347900 -22.535800 -28.250700
C -27.562900 -20.821200 -27.490400
C -27.554200 -22.134100 -27.916400
H -26.443300 -19.311500 -26.712900
C -26.422600 -20.213300 -27.011400
C -26.370800 -22.860800 -27.850500
H -26.364100 -23.767200 -28.135500
H -25.408300 -23.921100 -24.516800
C -25.240500 -20.945500 -26.974100
C -25.194600 -22.285100 -27.375000
H -24.753000 -23.459100 -23.132200
H -24.644600 -23.054300 -29.807500
C -24.565300 -23.796700 -24.032800
H -24.444500 -20.526500 -26.668600
H -24.210600 -21.963400 -24.909200
H -24.094600 -24.653000 -23.968800
N -23.950300 -23.582300 -29.689300
C -23.944300 -23.096900 -27.298400
C -23.701500 -22.801600 -24.772900
H -23.600700 -24.008500 -30.374600
C -23.419000 -23.738000 -28.450900
C -23.257300 -23.337000 -26.112200
H -22.904500 -22.588200 -24.224500
N -22.362200 -24.566000 -28.385200
N -22.177700 -24.137000 -26.041300
C -21.788800 -24.736900 -27.176600
N -20.736100 -25.566500 -27.115500
H -20.455900 -25.975500 -27.841900
H -20.326100 -25.701400 -26.348300
