21
Fragment
H -23.631300 -20.526500 -19.980500
H -23.508700 -21.367400 -21.336100
H -23.135800 -19.810700 -21.323500
C -23.115900 -20.642700 -20.805500
O -21.938500 -22.991600 -21.565100
N -21.726600 -20.977600 -20.471600
O -21.568800 -18.978100 -19.381100
C -21.229800 -22.216500 -20.929900
C -21.034400 -20.036000 -19.718300
C -19.872200 -22.406800 -20.562500
N -19.743100 -20.335400 -19.361700
H -19.613800 -18.927000 -17.926300
C -19.173800 -21.498700 -19.810700
H -19.141500 -24.179600 -21.248800
C -18.990400 -19.436900 -18.484100
N -18.986800 -23.440900 -20.797000
H -18.457800 -18.820000 -19.027500
H -18.395300 -19.964000 -17.911100
N -17.904400 -21.909300 -19.565400
C -17.838900 -23.085700 -20.192200
H -17.054900 -23.621300 -20.209600
30
Fragment
H -34.648200 -14.715800 -24.280200
H -34.518400 -14.441700 -22.786600
N -34.238200 -14.850800 -23.513000
C -33.185500 -15.680300 -23.451900
N -32.796600 -16.280300 -24.587200
N -32.612200 -15.851200 -22.243200
H -32.069800 -17.829000 -26.404000
C -31.717000 -17.080200 -24.516300
C -31.555300 -16.679200 -22.177600
H -31.373600 -16.408700 -20.253900
C -31.272800 -17.615700 -25.855600
C -31.030100 -17.320300 -23.330100
N -31.024000 -16.835000 -20.939200
H -30.879700 -15.764200 -26.659700
H -30.763700 -18.453800 -25.719300
H -30.529800 -19.890800 -23.959900
C -30.409000 -16.620600 -26.595700
H -30.329700 -17.362900 -20.821000
H -30.221300 -16.958100 -27.496300
C -29.779700 -18.132200 -23.253500
C -29.733800 -19.471700 -23.654400
H -29.566000 -16.496100 -26.111600
H -28.610200 -16.650100 -22.493000
C -28.603500 -17.556400 -22.778000
C -28.551700 -20.204000 -23.617100
H -28.531000 -21.105800 -23.915600
C -27.420100 -18.283100 -22.712100
C -27.411400 -19.596000 -23.138100
H -26.626400 -17.881400 -22.377800
Cl -25.923000 -20.498500 -23.063800
51
Fragment
H -23.631300 -20.526500 -19.980500
H -23.508700 -21.367400 -21.336100
H -23.135800 -19.810700 -21.323500
C -23.115900 -20.642700 -20.805500
O -21.938500 -22.991600 -21.565100
N -21.726600 -20.977600 -20.471600
O -21.568800 -18.978100 -19.381100
C -21.229800 -22.216500 -20.929900
C -21.034400 -20.036000 -19.718300
C -19.872200 -22.406800 -20.562500
N -19.743100 -20.335400 -19.361700
H -19.613800 -18.927000 -17.926300
C -19.173800 -21.498700 -19.810700
H -19.141500 -24.179600 -21.248800
C -18.990400 -19.436900 -18.484100
N -18.986800 -23.440900 -20.797000
H -18.457800 -18.820000 -19.027500
H -18.395300 -19.964000 -17.911100
N -17.904400 -21.909300 -19.565400
C -17.838900 -23.085700 -20.192200
H -17.054900 -23.621300 -20.209600
H -34.648200 -14.715800 -24.280200
H -34.518400 -14.441700 -22.786600
N -34.238200 -14.850800 -23.513000
C -33.185500 -15.680300 -23.451900
N -32.796600 -16.280300 -24.587200
N -32.612200 -15.851200 -22.243200
H -32.069800 -17.829000 -26.404000
C -31.717000 -17.080200 -24.516300
C -31.555300 -16.679200 -22.177600
H -31.373600 -16.408700 -20.253900
C -31.272800 -17.615700 -25.855600
C -31.030100 -17.320300 -23.330100
N -31.024000 -16.835000 -20.939200
H -30.879700 -15.764200 -26.659700
H -30.763700 -18.453800 -25.719300
H -30.529800 -19.890800 -23.959900
C -30.409000 -16.620600 -26.595700
H -30.329700 -17.362900 -20.821000
H -30.221300 -16.958100 -27.496300
C -29.779700 -18.132200 -23.253500
C -29.733800 -19.471700 -23.654400
H -29.566000 -16.496100 -26.111600
H -28.610200 -16.650100 -22.493000
C -28.603500 -17.556400 -22.778000
C -28.551700 -20.204000 -23.617100
H -28.531000 -21.105800 -23.915600
C -27.420100 -18.283100 -22.712100
C -27.411400 -19.596000 -23.138100
H -26.626400 -17.881400 -22.377800
Cl -25.923000 -20.498500 -23.063800
