23
Fragment
H -9.309200 -8.484300 -13.967400
O -8.983900 -11.024000 -14.546400
C -8.785600 -8.973500 -13.343500
C -8.571800 -10.379100 -13.549400
H -8.391700 -7.399800 -12.162100
C -8.252400 -8.332900 -12.271300
N -7.871700 -11.025100 -12.560900
H -7.805600 -11.922400 -12.665900
C -7.491600 -9.046300 -11.316500
C -7.333700 -10.384400 -11.473200
H -7.097300 -8.596300 -10.578600
H -7.083300 -14.981200 -9.876800
N -6.939900 -12.520600 -10.427200
C -6.612800 -11.226300 -10.479700
N -6.465100 -14.527600 -9.396100
C -6.217100 -13.235900 -9.519100
H -5.989900 -15.065500 -8.843200
N -5.709100 -10.589000 -9.748800
N -5.254500 -12.710200 -8.735700
C -5.042700 -11.399300 -8.878400
N -4.109000 -10.812000 -8.120500
H -3.878200 -9.975600 -8.375600
H -3.606300 -11.348100 -7.596300
23
Fragment
H -6.433200 -17.664100 -8.810400
H -6.161400 -19.036600 -8.031000
N -5.930600 -18.200200 -8.286200
C -4.996900 -17.612900 -7.528200
N -4.785100 -16.301900 -7.670900
N -4.330500 -18.423200 -6.657800
H -4.049700 -13.946700 -7.563500
C -3.822500 -15.776300 -6.887500
N -3.574400 -14.484600 -7.010600
C -3.426700 -17.785800 -5.926900
N -3.099700 -16.491600 -5.979400
H -2.956300 -14.031000 -6.529800
H -2.942200 -20.415900 -5.828000
C -2.705800 -18.627700 -4.933500
C -2.548000 -19.965900 -5.090200
H -2.234000 -17.089800 -3.740700
N -2.167900 -17.987100 -3.845700
C -1.787200 -20.679200 -4.135300
H -1.647900 -21.612400 -4.244600
C -1.467700 -18.633100 -2.857200
C -1.253900 -20.038700 -3.063100
O -1.055700 -17.988200 -1.860200
H -0.730400 -20.527900 -2.439300
46
Fragment
H -9.309200 -8.484300 -13.967400
O -8.983900 -11.024000 -14.546400
C -8.785600 -8.973500 -13.343500
C -8.571800 -10.379100 -13.549400
H -8.391700 -7.399800 -12.162100
C -8.252400 -8.332900 -12.271300
N -7.871700 -11.025100 -12.560900
H -7.805600 -11.922400 -12.665900
C -7.491600 -9.046300 -11.316500
C -7.333700 -10.384400 -11.473200
H -7.097300 -8.596300 -10.578600
H -7.083300 -14.981200 -9.876800
N -6.939900 -12.520600 -10.427200
C -6.612800 -11.226300 -10.479700
N -6.465100 -14.527600 -9.396100
C -6.217100 -13.235900 -9.519100
H -5.989900 -15.065500 -8.843200
N -5.709100 -10.589000 -9.748800
N -5.254500 -12.710200 -8.735700
C -5.042700 -11.399300 -8.878400
N -4.109000 -10.812000 -8.120500
H -3.878200 -9.975600 -8.375600
H -3.606300 -11.348100 -7.596300
H -6.433200 -17.664100 -8.810400
H -6.161400 -19.036600 -8.031000
N -5.930600 -18.200200 -8.286200
C -4.996900 -17.612900 -7.528200
N -4.785100 -16.301900 -7.670900
N -4.330500 -18.423200 -6.657800
H -4.049700 -13.946700 -7.563500
C -3.822500 -15.776300 -6.887500
N -3.574400 -14.484600 -7.010600
C -3.426700 -17.785800 -5.926900
N -3.099700 -16.491600 -5.979400
H -2.956300 -14.031000 -6.529800
H -2.942200 -20.415900 -5.828000
C -2.705800 -18.627700 -4.933500
C -2.548000 -19.965900 -5.090200
H -2.234000 -17.089800 -3.740700
N -2.167900 -17.987100 -3.845700
C -1.787200 -20.679200 -4.135300
H -1.647900 -21.612400 -4.244600
C -1.467700 -18.633100 -2.857200
C -1.253900 -20.038700 -3.063100
O -1.055700 -17.988200 -1.860200
H -0.730400 -20.527900 -2.439300
