23
Fragment
H -9.309200 -8.484300 -13.967400
O -8.983900 -11.024000 -14.546400
C -8.785600 -8.973500 -13.343500
C -8.571800 -10.379100 -13.549400
H -8.391700 -7.399800 -12.162100
C -8.252400 -8.332900 -12.271300
N -7.871700 -11.025100 -12.560900
H -7.805600 -11.922400 -12.665900
C -7.491600 -9.046300 -11.316500
C -7.333700 -10.384400 -11.473200
H -7.097300 -8.596300 -10.578600
H -7.083300 -14.981200 -9.876800
N -6.939900 -12.520600 -10.427200
C -6.612800 -11.226300 -10.479700
N -6.465100 -14.527600 -9.396100
C -6.217100 -13.235900 -9.519100
H -5.989900 -15.065500 -8.843200
N -5.709100 -10.589000 -9.748800
N -5.254500 -12.710200 -8.735700
C -5.042700 -11.399300 -8.878400
N -4.109000 -10.812000 -8.120500
H -3.878200 -9.975600 -8.375600
H -3.606300 -11.348100 -7.596300
23
Fragment
H -16.154500 -8.660600 -17.013700
H -15.882700 -10.033200 -16.234400
N -15.651800 -9.196800 -16.489500
C -14.718200 -8.609500 -15.731500
N -14.506300 -7.298500 -15.874200
N -14.051700 -9.419800 -14.861100
H -13.770900 -4.943300 -15.766800
C -13.543800 -6.772900 -15.090800
N -13.295700 -5.481100 -15.213900
C -13.148000 -8.782400 -14.130200
N -12.820900 -7.488200 -14.182700
H -12.677600 -5.027600 -14.733100
H -12.663500 -11.412500 -14.031400
C -12.427100 -9.624300 -13.136800
C -12.269200 -10.962500 -13.293500
H -11.955300 -8.086400 -11.944000
N -11.889100 -8.983600 -12.049000
C -11.508400 -11.675800 -12.338600
H -11.369100 -12.609000 -12.447900
C -11.189000 -9.629700 -11.060500
C -10.975200 -11.035300 -11.266400
O -10.776900 -8.984800 -10.063500
H -10.451700 -11.524500 -10.642600
46
Fragment
H -9.309200 -8.484300 -13.967400
O -8.983900 -11.024000 -14.546400
C -8.785600 -8.973500 -13.343500
C -8.571800 -10.379100 -13.549400
H -8.391700 -7.399800 -12.162100
C -8.252400 -8.332900 -12.271300
N -7.871700 -11.025100 -12.560900
H -7.805600 -11.922400 -12.665900
C -7.491600 -9.046300 -11.316500
C -7.333700 -10.384400 -11.473200
H -7.097300 -8.596300 -10.578600
H -7.083300 -14.981200 -9.876800
N -6.939900 -12.520600 -10.427200
C -6.612800 -11.226300 -10.479700
N -6.465100 -14.527600 -9.396100
C -6.217100 -13.235900 -9.519100
H -5.989900 -15.065500 -8.843200
N -5.709100 -10.589000 -9.748800
N -5.254500 -12.710200 -8.735700
C -5.042700 -11.399300 -8.878400
N -4.109000 -10.812000 -8.120500
H -3.878200 -9.975600 -8.375600
H -3.606300 -11.348100 -7.596300
H -16.154500 -8.660600 -17.013700
H -15.882700 -10.033200 -16.234400
N -15.651800 -9.196800 -16.489500
C -14.718200 -8.609500 -15.731500
N -14.506300 -7.298500 -15.874200
N -14.051700 -9.419800 -14.861100
H -13.770900 -4.943300 -15.766800
C -13.543800 -6.772900 -15.090800
N -13.295700 -5.481100 -15.213900
C -13.148000 -8.782400 -14.130200
N -12.820900 -7.488200 -14.182700
H -12.677600 -5.027600 -14.733100
H -12.663500 -11.412500 -14.031400
C -12.427100 -9.624300 -13.136800
C -12.269200 -10.962500 -13.293500
H -11.955300 -8.086400 -11.944000
N -11.889100 -8.983600 -12.049000
C -11.508400 -11.675800 -12.338600
H -11.369100 -12.609000 -12.447900
C -11.189000 -9.629700 -11.060500
C -10.975200 -11.035300 -11.266400
O -10.776900 -8.984800 -10.063500
H -10.451700 -11.524500 -10.642600
