23
Fragment
H -9.309200 -8.484300 -13.967400
O -8.983900 -11.024000 -14.546400
C -8.785600 -8.973500 -13.343500
C -8.571800 -10.379100 -13.549400
H -8.391700 -7.399800 -12.162100
C -8.252400 -8.332900 -12.271300
N -7.871700 -11.025100 -12.560900
H -7.805600 -11.922400 -12.665900
C -7.491600 -9.046300 -11.316500
C -7.333700 -10.384400 -11.473200
H -7.097300 -8.596300 -10.578600
H -7.083300 -14.981200 -9.876800
N -6.939900 -12.520600 -10.427200
C -6.612800 -11.226300 -10.479700
N -6.465100 -14.527600 -9.396100
C -6.217100 -13.235900 -9.519100
H -5.989900 -15.065500 -8.843200
N -5.709100 -10.589000 -9.748800
N -5.254500 -12.710200 -8.735700
C -5.042700 -11.399300 -8.878400
N -4.109000 -10.812000 -8.120500
H -3.878200 -9.975600 -8.375600
H -3.606300 -11.348100 -7.596300
23
Fragment
H -1.234000 -9.827600 -8.810400
H -0.962100 -11.200100 -8.031000
N -0.731300 -10.363700 -8.286200
C 0.202400 -9.776400 -7.528200
N 0.414200 -8.465400 -7.670900
N 0.868800 -10.586700 -6.657800
H 1.149600 -6.110200 -7.563500
C 1.376700 -7.939800 -6.887500
N 1.624800 -6.648000 -7.010600
C 1.772500 -9.949300 -5.926900
N 2.099600 -8.655100 -5.979400
H 2.243000 -6.194500 -6.529800
H 2.257000 -12.579400 -5.828000
C 2.493400 -10.791200 -4.933500
C 2.651300 -12.129400 -5.090200
H 2.965300 -9.253300 -3.740700
N 3.031400 -10.150600 -3.845700
C 3.412100 -12.842700 -4.135300
H 3.551400 -13.775900 -4.244600
C 3.731500 -10.796600 -2.857200
C 3.945300 -12.202200 -3.063100
O 4.143600 -10.151700 -1.860200
H 4.468900 -12.691400 -2.439300
46
Fragment
H -9.309200 -8.484300 -13.967400
O -8.983900 -11.024000 -14.546400
C -8.785600 -8.973500 -13.343500
C -8.571800 -10.379100 -13.549400
H -8.391700 -7.399800 -12.162100
C -8.252400 -8.332900 -12.271300
N -7.871700 -11.025100 -12.560900
H -7.805600 -11.922400 -12.665900
C -7.491600 -9.046300 -11.316500
C -7.333700 -10.384400 -11.473200
H -7.097300 -8.596300 -10.578600
H -7.083300 -14.981200 -9.876800
N -6.939900 -12.520600 -10.427200
C -6.612800 -11.226300 -10.479700
N -6.465100 -14.527600 -9.396100
C -6.217100 -13.235900 -9.519100
H -5.989900 -15.065500 -8.843200
N -5.709100 -10.589000 -9.748800
N -5.254500 -12.710200 -8.735700
C -5.042700 -11.399300 -8.878400
N -4.109000 -10.812000 -8.120500
H -3.878200 -9.975600 -8.375600
H -3.606300 -11.348100 -7.596300
H -1.234000 -9.827600 -8.810400
H -0.962100 -11.200100 -8.031000
N -0.731300 -10.363700 -8.286200
C 0.202400 -9.776400 -7.528200
N 0.414200 -8.465400 -7.670900
N 0.868800 -10.586700 -6.657800
H 1.149600 -6.110200 -7.563500
C 1.376700 -7.939800 -6.887500
N 1.624800 -6.648000 -7.010600
C 1.772500 -9.949300 -5.926900
N 2.099600 -8.655100 -5.979400
H 2.243000 -6.194500 -6.529800
H 2.257000 -12.579400 -5.828000
C 2.493400 -10.791200 -4.933500
C 2.651300 -12.129400 -5.090200
H 2.965300 -9.253300 -3.740700
N 3.031400 -10.150600 -3.845700
C 3.412100 -12.842700 -4.135300
H 3.551400 -13.775900 -4.244600
C 3.731500 -10.796600 -2.857200
C 3.945300 -12.202200 -3.063100
O 4.143600 -10.151700 -1.860200
H 4.468900 -12.691400 -2.439300
