23
Fragment
H -9.309200 -8.484300 -13.967400
O -8.983900 -11.024000 -14.546400
C -8.785600 -8.973500 -13.343500
C -8.571800 -10.379100 -13.549400
H -8.391700 -7.399800 -12.162100
C -8.252400 -8.332900 -12.271300
N -7.871700 -11.025100 -12.560900
H -7.805600 -11.922400 -12.665900
C -7.491600 -9.046300 -11.316500
C -7.333700 -10.384400 -11.473200
H -7.097300 -8.596300 -10.578600
H -7.083300 -14.981200 -9.876800
N -6.939900 -12.520600 -10.427200
C -6.612800 -11.226300 -10.479700
N -6.465100 -14.527600 -9.396100
C -6.217100 -13.235900 -9.519100
H -5.989900 -15.065500 -8.843200
N -5.709100 -10.589000 -9.748800
N -5.254500 -12.710200 -8.735700
C -5.042700 -11.399300 -8.878400
N -4.109000 -10.812000 -8.120500
H -3.878200 -9.975600 -8.375600
H -3.606300 -11.348100 -7.596300
6
Fragment
H -4.305700 -7.635600 -5.323900
O -3.648300 -7.102000 -5.245900
H -3.359500 -7.538200 -7.165200
H -3.006600 -6.023300 -6.789000
C -2.951100 -6.955400 -6.491300
H -2.010700 -7.204300 -6.371200
29
Fragment
H -9.309200 -8.484300 -13.967400
O -8.983900 -11.024000 -14.546400
C -8.785600 -8.973500 -13.343500
C -8.571800 -10.379100 -13.549400
H -8.391700 -7.399800 -12.162100
C -8.252400 -8.332900 -12.271300
N -7.871700 -11.025100 -12.560900
H -7.805600 -11.922400 -12.665900
C -7.491600 -9.046300 -11.316500
C -7.333700 -10.384400 -11.473200
H -7.097300 -8.596300 -10.578600
H -7.083300 -14.981200 -9.876800
N -6.939900 -12.520600 -10.427200
C -6.612800 -11.226300 -10.479700
N -6.465100 -14.527600 -9.396100
C -6.217100 -13.235900 -9.519100
H -5.989900 -15.065500 -8.843200
N -5.709100 -10.589000 -9.748800
N -5.254500 -12.710200 -8.735700
C -5.042700 -11.399300 -8.878400
N -4.109000 -10.812000 -8.120500
H -3.878200 -9.975600 -8.375600
H -3.606300 -11.348100 -7.596300
H -4.305700 -7.635600 -5.323900
O -3.648300 -7.102000 -5.245900
H -3.359500 -7.538200 -7.165200
H -3.006600 -6.023300 -6.789000
C -2.951100 -6.955400 -6.491300
H -2.010700 -7.204300 -6.371200
