36
Fragment
H -8.129100 -25.006000 -20.175700
H -7.877700 -25.997500 -21.306000
C -7.497700 -25.348300 -20.828900
N -6.897900 -24.330400 -21.649700
H -6.880900 -25.774000 -20.207000
H -6.716100 -24.484000 -22.471200
O -6.605800 -22.974200 -19.897400
C -6.444700 -23.187900 -21.135400
H -6.326300 -22.443100 -23.802500
H -6.016400 -21.829000 -19.307800
N -5.847100 -22.286900 -21.916200
O -5.596400 -21.133500 -18.625000
H -5.569300 -21.581800 -21.514500
C -5.542000 -22.459800 -23.317600
H -5.038400 -23.315000 -23.404100
H -4.930600 -21.760600 -23.567700
C -4.915300 -20.217600 -19.218500
O -4.777700 -20.079700 -20.417800
O -4.371300 -19.370300 -17.048800
C -4.233700 -19.232400 -18.248100
H -4.218400 -17.689400 -13.898800
H -4.110600 -16.135000 -14.062400
C -3.607000 -16.990200 -14.149000
H -3.579700 -17.868200 -15.952000
O -3.552600 -18.316500 -18.841600
N -3.301900 -17.163100 -15.550400
H -3.132600 -17.621000 -18.158800
H -2.822700 -17.006900 -13.664100
C -2.704300 -16.262100 -16.331200
O -2.543200 -16.475800 -17.569200
H -2.432900 -14.966000 -14.995400
H -2.268100 -13.676000 -17.259600
N -2.251100 -15.119600 -15.816900
C -1.651300 -14.101700 -16.637600
H -1.271300 -13.452400 -16.160600
H -1.019900 -14.444000 -17.290800
36
Fragment
H -12.109700 -25.006000 -20.175700
H -11.858300 -25.997500 -21.306000
C -11.478300 -25.348300 -20.828900
N -10.878500 -24.330400 -21.649700
H -10.861500 -25.774000 -20.207000
H -10.696700 -24.484000 -22.471200
O -10.586400 -22.974200 -19.897400
C -10.425300 -23.187900 -21.135400
H -10.306900 -22.443100 -23.802500
H -9.997000 -21.829000 -19.307800
N -9.827700 -22.286900 -21.916200
O -9.577000 -21.133500 -18.625000
H -9.549900 -21.581800 -21.514500
C -9.522600 -22.459800 -23.317600
H -9.019000 -23.315000 -23.404100
H -8.911200 -21.760600 -23.567700
C -8.895900 -20.217600 -19.218500
O -8.758300 -20.079700 -20.417800
O -8.351900 -19.370300 -17.048800
C -8.214300 -19.232400 -18.248100
H -8.199000 -17.689400 -13.898800
H -8.091200 -16.135000 -14.062400
C -7.587600 -16.990200 -14.149000
H -7.560300 -17.868200 -15.952000
O -7.533200 -18.316500 -18.841600
N -7.282500 -17.163100 -15.550400
H -7.113200 -17.621000 -18.158800
H -6.803300 -17.006900 -13.664100
C -6.684900 -16.262100 -16.331200
O -6.523800 -16.475800 -17.569200
H -6.413500 -14.966000 -14.995400
H -6.248700 -13.676000 -17.259600
N -6.231700 -15.119600 -15.816900
C -5.631900 -14.101700 -16.637600
H -5.251900 -13.452400 -16.160600
H -5.000500 -14.444000 -17.290800
72
Fragment
H -8.129100 -25.006000 -20.175700
H -7.877700 -25.997500 -21.306000
C -7.497700 -25.348300 -20.828900
N -6.897900 -24.330400 -21.649700
H -6.880900 -25.774000 -20.207000
H -6.716100 -24.484000 -22.471200
O -6.605800 -22.974200 -19.897400
C -6.444700 -23.187900 -21.135400
H -6.326300 -22.443100 -23.802500
H -6.016400 -21.829000 -19.307800
N -5.847100 -22.286900 -21.916200
O -5.596400 -21.133500 -18.625000
H -5.569300 -21.581800 -21.514500
C -5.542000 -22.459800 -23.317600
H -5.038400 -23.315000 -23.404100
H -4.930600 -21.760600 -23.567700
C -4.915300 -20.217600 -19.218500
O -4.777700 -20.079700 -20.417800
O -4.371300 -19.370300 -17.048800
C -4.233700 -19.232400 -18.248100
H -4.218400 -17.689400 -13.898800
H -4.110600 -16.135000 -14.062400
C -3.607000 -16.990200 -14.149000
H -3.579700 -17.868200 -15.952000
O -3.552600 -18.316500 -18.841600
N -3.301900 -17.163100 -15.550400
H -3.132600 -17.621000 -18.158800
H -2.822700 -17.006900 -13.664100
C -2.704300 -16.262100 -16.331200
O -2.543200 -16.475800 -17.569200
H -2.432900 -14.966000 -14.995400
H -2.268100 -13.676000 -17.259600
N -2.251100 -15.119600 -15.816900
C -1.651300 -14.101700 -16.637600
H -1.271300 -13.452400 -16.160600
H -1.019900 -14.444000 -17.290800
H -12.109700 -25.006000 -20.175700
H -11.858300 -25.997500 -21.306000
C -11.478300 -25.348300 -20.828900
N -10.878500 -24.330400 -21.649700
H -10.861500 -25.774000 -20.207000
H -10.696700 -24.484000 -22.471200
O -10.586400 -22.974200 -19.897400
C -10.425300 -23.187900 -21.135400
H -10.306900 -22.443100 -23.802500
H -9.997000 -21.829000 -19.307800
N -9.827700 -22.286900 -21.916200
O -9.577000 -21.133500 -18.625000
H -9.549900 -21.581800 -21.514500
C -9.522600 -22.459800 -23.317600
H -9.019000 -23.315000 -23.404100
H -8.911200 -21.760600 -23.567700
C -8.895900 -20.217600 -19.218500
O -8.758300 -20.079700 -20.417800
O -8.351900 -19.370300 -17.048800
C -8.214300 -19.232400 -18.248100
H -8.199000 -17.689400 -13.898800
H -8.091200 -16.135000 -14.062400
C -7.587600 -16.990200 -14.149000
H -7.560300 -17.868200 -15.952000
O -7.533200 -18.316500 -18.841600
N -7.282500 -17.163100 -15.550400
H -7.113200 -17.621000 -18.158800
H -6.803300 -17.006900 -13.664100
C -6.684900 -16.262100 -16.331200
O -6.523800 -16.475800 -17.569200
H -6.413500 -14.966000 -14.995400
H -6.248700 -13.676000 -17.259600
N -6.231700 -15.119600 -15.816900
C -5.631900 -14.101700 -16.637600
H -5.251900 -13.452400 -16.160600
H -5.000500 -14.444000 -17.290800
