36
Fragment
H -14.769600 -11.204500 -17.603200
H -14.468400 -4.150700 -17.532200
C -14.175700 -10.463500 -17.625900
C -13.923500 -4.705400 -16.987200
N -13.805000 -9.711700 -16.529000
H -13.657900 -10.325100 -19.623600
N -13.648400 -6.032300 -17.245000
C -13.568600 -9.987400 -18.740300
H -13.339800 -3.438700 -15.451700
C -13.305900 -4.303000 -15.845900
H -13.106100 -8.264000 -14.504600
C -12.981500 -8.795100 -17.002900
C -12.856300 -6.413700 -16.254700
N -12.798200 -8.920300 -18.340300
N -12.620600 -5.401200 -15.377600
O -12.307000 -8.237100 -14.761400
C -12.257200 -7.797600 -16.109500
H -12.228600 -7.190300 -19.202700
H -12.205900 -6.083600 -13.533800
H -12.038100 -8.465500 -20.149900
C -11.949900 -8.129200 -19.234000
H -11.849500 -4.536500 -13.735800
C -11.830800 -5.422800 -14.152700
H -11.157300 -10.526500 -16.964500
H -11.015900 -8.202100 -18.947500
H -10.905000 -5.664000 -14.365600
C -10.782200 -7.773400 -16.472600
H -10.729700 -10.398300 -15.428000
C -10.427000 -10.292600 -16.353500
N -10.079100 -6.690000 -16.723000
N -10.027700 -8.904600 -16.580900
H -9.662800 -10.883600 -16.517100
C -8.809200 -7.149600 -17.005700
C -8.763000 -8.496400 -16.920800
H -8.070600 -6.596000 -17.228700
H -8.004800 -9.050400 -17.067000
36
Fragment
H -13.742200 -20.705400 -17.603200
H -13.440900 -13.651700 -17.532200
C -13.148200 -19.964400 -17.625900
C -12.896100 -14.206300 -16.987200
N -12.777600 -19.212600 -16.529000
H -12.630500 -19.826000 -19.623600
N -12.621000 -15.533200 -17.245000
C -12.541200 -19.488400 -18.740300
H -12.312300 -12.939600 -15.451700
C -12.278400 -13.803900 -15.845900
H -12.078600 -17.764900 -14.504600
C -11.954100 -18.296000 -17.002900
C -11.828900 -15.914600 -16.254700
N -11.770800 -18.421200 -18.340300
N -11.593200 -14.902100 -15.377600
O -11.279600 -17.738000 -14.761400
C -11.229800 -17.298500 -16.109500
H -11.201200 -16.691300 -19.202700
H -11.178500 -15.584500 -13.533800
H -11.010700 -17.966500 -20.149900
C -10.922500 -17.630100 -19.234000
H -10.822100 -14.037400 -13.735800
C -10.803300 -14.923700 -14.152700
H -10.129900 -20.027400 -16.964500
H -9.988500 -17.703000 -18.947500
H -9.877600 -15.164900 -14.365600
C -9.754700 -17.274300 -16.472600
H -9.702300 -19.899200 -15.428000
C -9.399600 -19.793500 -16.353500
N -9.051600 -16.190900 -16.723000
N -9.000300 -18.405500 -16.580900
H -8.635300 -20.384500 -16.517100
C -7.781800 -16.650500 -17.005700
C -7.735600 -17.997300 -16.920800
H -7.043100 -16.096900 -17.228700
H -6.977300 -18.551300 -17.067000
72
Fragment
H -14.769600 -11.204500 -17.603200
H -14.468400 -4.150700 -17.532200
C -14.175700 -10.463500 -17.625900
C -13.923500 -4.705400 -16.987200
N -13.805000 -9.711700 -16.529000
H -13.657900 -10.325100 -19.623600
N -13.648400 -6.032300 -17.245000
C -13.568600 -9.987400 -18.740300
H -13.339800 -3.438700 -15.451700
C -13.305900 -4.303000 -15.845900
H -13.106100 -8.264000 -14.504600
C -12.981500 -8.795100 -17.002900
C -12.856300 -6.413700 -16.254700
N -12.798200 -8.920300 -18.340300
N -12.620600 -5.401200 -15.377600
O -12.307000 -8.237100 -14.761400
C -12.257200 -7.797600 -16.109500
H -12.228600 -7.190300 -19.202700
H -12.205900 -6.083600 -13.533800
H -12.038100 -8.465500 -20.149900
C -11.949900 -8.129200 -19.234000
H -11.849500 -4.536500 -13.735800
C -11.830800 -5.422800 -14.152700
H -11.157300 -10.526500 -16.964500
H -11.015900 -8.202100 -18.947500
H -10.905000 -5.664000 -14.365600
C -10.782200 -7.773400 -16.472600
H -10.729700 -10.398300 -15.428000
C -10.427000 -10.292600 -16.353500
N -10.079100 -6.690000 -16.723000
N -10.027700 -8.904600 -16.580900
H -9.662800 -10.883600 -16.517100
C -8.809200 -7.149600 -17.005700
C -8.763000 -8.496400 -16.920800
H -8.070600 -6.596000 -17.228700
H -8.004800 -9.050400 -17.067000
H -13.742200 -20.705400 -17.603200
H -13.440900 -13.651700 -17.532200
C -13.148200 -19.964400 -17.625900
C -12.896100 -14.206300 -16.987200
N -12.777600 -19.212600 -16.529000
H -12.630500 -19.826000 -19.623600
N -12.621000 -15.533200 -17.245000
C -12.541200 -19.488400 -18.740300
H -12.312300 -12.939600 -15.451700
C -12.278400 -13.803900 -15.845900
H -12.078600 -17.764900 -14.504600
C -11.954100 -18.296000 -17.002900
C -11.828900 -15.914600 -16.254700
N -11.770800 -18.421200 -18.340300
N -11.593200 -14.902100 -15.377600
O -11.279600 -17.738000 -14.761400
C -11.229800 -17.298500 -16.109500
H -11.201200 -16.691300 -19.202700
H -11.178500 -15.584500 -13.533800
H -11.010700 -17.966500 -20.149900
C -10.922500 -17.630100 -19.234000
H -10.822100 -14.037400 -13.735800
C -10.803300 -14.923700 -14.152700
H -10.129900 -20.027400 -16.964500
H -9.988500 -17.703000 -18.947500
H -9.877600 -15.164900 -14.365600
C -9.754700 -17.274300 -16.472600
H -9.702300 -19.899200 -15.428000
C -9.399600 -19.793500 -16.353500
N -9.051600 -16.190900 -16.723000
N -9.000300 -18.405500 -16.580900
H -8.635300 -20.384500 -16.517100
C -7.781800 -16.650500 -17.005700
C -7.735600 -17.997300 -16.920800
H -7.043100 -16.096900 -17.228700
H -6.977300 -18.551300 -17.067000
