36
Fragment
H -14.769600 -11.204500 -17.603200
H -14.468400 -4.150700 -17.532200
C -14.175700 -10.463500 -17.625900
C -13.923500 -4.705400 -16.987200
N -13.805000 -9.711700 -16.529000
H -13.657900 -10.325100 -19.623600
N -13.648400 -6.032300 -17.245000
C -13.568600 -9.987400 -18.740300
H -13.339800 -3.438700 -15.451700
C -13.305900 -4.303000 -15.845900
H -13.106100 -8.264000 -14.504600
C -12.981500 -8.795100 -17.002900
C -12.856300 -6.413700 -16.254700
N -12.798200 -8.920300 -18.340300
N -12.620600 -5.401200 -15.377600
O -12.307000 -8.237100 -14.761400
C -12.257200 -7.797600 -16.109500
H -12.228600 -7.190300 -19.202700
H -12.205900 -6.083600 -13.533800
H -12.038100 -8.465500 -20.149900
C -11.949900 -8.129200 -19.234000
H -11.849500 -4.536500 -13.735800
C -11.830800 -5.422800 -14.152700
H -11.157300 -10.526500 -16.964500
H -11.015900 -8.202100 -18.947500
H -10.905000 -5.664000 -14.365600
C -10.782200 -7.773400 -16.472600
H -10.729700 -10.398300 -15.428000
C -10.427000 -10.292600 -16.353500
N -10.079100 -6.690000 -16.723000
N -10.027700 -8.904600 -16.580900
H -9.662800 -10.883600 -16.517100
C -8.809200 -7.149600 -17.005700
C -8.763000 -8.496400 -16.920800
H -8.070600 -6.596000 -17.228700
H -8.004800 -9.050400 -17.067000
36
Fragment
H -20.109300 -9.670200 -12.499900
H -20.043500 -12.124500 -12.338300
C -19.351000 -10.224200 -12.646200
C -19.304800 -11.571000 -12.561200
H -18.451300 -7.837000 -13.049900
N -18.086300 -9.816000 -12.986000
N -18.035000 -12.030600 -12.844000
C -17.687100 -8.428000 -13.213500
H -17.384400 -8.322300 -14.138900
C -17.331900 -10.947100 -13.094300
H -17.209000 -13.056600 -15.201400
H -17.098100 -10.518500 -10.619500
H -16.956800 -8.194000 -12.602400
C -16.283300 -13.297800 -15.414200
H -16.264500 -14.184100 -15.831100
C -16.164100 -10.591400 -10.333000
H -16.075900 -10.255000 -9.417100
H -15.908200 -12.637000 -16.033200
H -15.885500 -11.530200 -10.364200
C -15.856800 -10.922900 -13.457500
O -15.807000 -10.483500 -14.805500
N -15.493500 -13.319400 -14.189400
N -15.315800 -9.800200 -11.226700
C -15.257700 -12.306800 -13.312200
C -15.132500 -9.925400 -12.564100
H -15.008000 -10.456600 -15.062400
C -14.808200 -14.417600 -13.721000
H -14.774300 -15.281900 -14.115300
C -14.545500 -8.733100 -10.826600
N -14.465600 -12.688200 -12.321900
H -14.456200 -8.395400 -9.943400
N -14.309000 -9.008900 -13.037900
C -14.190500 -14.015100 -12.579700
C -13.938400 -8.257100 -11.941000
H -13.645700 -14.569800 -12.034700
H -13.344400 -7.516100 -11.963800
72
Fragment
H -14.769600 -11.204500 -17.603200
H -14.468400 -4.150700 -17.532200
C -14.175700 -10.463500 -17.625900
C -13.923500 -4.705400 -16.987200
N -13.805000 -9.711700 -16.529000
H -13.657900 -10.325100 -19.623600
N -13.648400 -6.032300 -17.245000
C -13.568600 -9.987400 -18.740300
H -13.339800 -3.438700 -15.451700
C -13.305900 -4.303000 -15.845900
H -13.106100 -8.264000 -14.504600
C -12.981500 -8.795100 -17.002900
C -12.856300 -6.413700 -16.254700
N -12.798200 -8.920300 -18.340300
N -12.620600 -5.401200 -15.377600
O -12.307000 -8.237100 -14.761400
C -12.257200 -7.797600 -16.109500
H -12.228600 -7.190300 -19.202700
H -12.205900 -6.083600 -13.533800
H -12.038100 -8.465500 -20.149900
C -11.949900 -8.129200 -19.234000
H -11.849500 -4.536500 -13.735800
C -11.830800 -5.422800 -14.152700
H -11.157300 -10.526500 -16.964500
H -11.015900 -8.202100 -18.947500
H -10.905000 -5.664000 -14.365600
C -10.782200 -7.773400 -16.472600
H -10.729700 -10.398300 -15.428000
C -10.427000 -10.292600 -16.353500
N -10.079100 -6.690000 -16.723000
N -10.027700 -8.904600 -16.580900
H -9.662800 -10.883600 -16.517100
C -8.809200 -7.149600 -17.005700
C -8.763000 -8.496400 -16.920800
H -8.070600 -6.596000 -17.228700
H -8.004800 -9.050400 -17.067000
H -20.109300 -9.670200 -12.499900
H -20.043500 -12.124500 -12.338300
C -19.351000 -10.224200 -12.646200
C -19.304800 -11.571000 -12.561200
H -18.451300 -7.837000 -13.049900
N -18.086300 -9.816000 -12.986000
N -18.035000 -12.030600 -12.844000
C -17.687100 -8.428000 -13.213500
H -17.384400 -8.322300 -14.138900
C -17.331900 -10.947100 -13.094300
H -17.209000 -13.056600 -15.201400
H -17.098100 -10.518500 -10.619500
H -16.956800 -8.194000 -12.602400
C -16.283300 -13.297800 -15.414200
H -16.264500 -14.184100 -15.831100
C -16.164100 -10.591400 -10.333000
H -16.075900 -10.255000 -9.417100
H -15.908200 -12.637000 -16.033200
H -15.885500 -11.530200 -10.364200
C -15.856800 -10.922900 -13.457500
O -15.807000 -10.483500 -14.805500
N -15.493500 -13.319400 -14.189400
N -15.315800 -9.800200 -11.226700
C -15.257700 -12.306800 -13.312200
C -15.132500 -9.925400 -12.564100
H -15.008000 -10.456600 -15.062400
C -14.808200 -14.417600 -13.721000
H -14.774300 -15.281900 -14.115300
C -14.545500 -8.733100 -10.826600
N -14.465600 -12.688200 -12.321900
H -14.456200 -8.395400 -9.943400
N -14.309000 -9.008900 -13.037900
C -14.190500 -14.015100 -12.579700
C -13.938400 -8.257100 -11.941000
H -13.645700 -14.569800 -12.034700
H -13.344400 -7.516100 -11.963800
