22
Fragment
H -11.896100 -28.378900 -25.048800
O -11.439900 -27.618800 -25.090000
O -11.283100 -28.007500 -22.900100
C -11.067000 -27.276600 -23.872900
H -10.511200 -27.058900 -21.710100
H -10.504100 -25.375300 -25.698700
C -10.412600 -25.974900 -23.736900
C -10.222000 -25.104300 -24.855000
O -10.069800 -26.356600 -21.389900
C -9.951700 -25.584500 -22.493500
C -9.635300 -23.891100 -24.706800
H -9.535400 -23.333600 -25.444600
C -9.309900 -24.313700 -22.307800
C -9.172600 -23.464200 -23.436500
H -8.905400 -24.464000 -20.319200
C -8.817900 -23.899500 -21.053700
C -8.543600 -22.194800 -23.231200
H -8.445900 -21.609200 -23.947900
C -8.218300 -22.687700 -20.895700
C -8.084300 -21.829700 -21.998400
H -7.898200 -22.429300 -20.061900
H -7.676000 -21.001200 -21.887600
24
Fragment
H -10.609900 -22.404000 -29.216600
H -10.354000 -23.315300 -33.993500
N -9.990100 -22.989700 -32.054700
C -9.981000 -23.648100 -33.209600
H -9.695500 -25.555000 -34.972300
C -9.649800 -22.405400 -29.208400
H -9.521000 -26.682600 -33.897400
N -9.381300 -24.838200 -33.127800
C -9.380400 -23.841900 -31.186000
H -9.338000 -22.373100 -28.301300
H -9.324100 -21.640100 -29.685600
C -9.201000 -25.828900 -34.197000
N -9.158200 -23.625700 -29.849000
C -8.981000 -24.986300 -31.813300
C -8.599300 -24.639500 -29.080400
O -8.458900 -24.530700 -27.888400
C -8.349100 -26.073200 -31.140700
H -8.269700 -25.894900 -34.416900
N -8.192600 -25.789400 -29.767700
H -8.061100 -26.865200 -28.081400
O -7.970900 -27.123500 -31.619200
H -7.779300 -27.710500 -29.371300
C -7.631800 -26.865200 -28.939700
H -6.688900 -26.724700 -28.827300
46
Fragment
H -11.896100 -28.378900 -25.048800
O -11.439900 -27.618800 -25.090000
O -11.283100 -28.007500 -22.900100
C -11.067000 -27.276600 -23.872900
H -10.511200 -27.058900 -21.710100
H -10.504100 -25.375300 -25.698700
C -10.412600 -25.974900 -23.736900
C -10.222000 -25.104300 -24.855000
O -10.069800 -26.356600 -21.389900
C -9.951700 -25.584500 -22.493500
C -9.635300 -23.891100 -24.706800
H -9.535400 -23.333600 -25.444600
C -9.309900 -24.313700 -22.307800
C -9.172600 -23.464200 -23.436500
H -8.905400 -24.464000 -20.319200
C -8.817900 -23.899500 -21.053700
C -8.543600 -22.194800 -23.231200
H -8.445900 -21.609200 -23.947900
C -8.218300 -22.687700 -20.895700
C -8.084300 -21.829700 -21.998400
H -7.898200 -22.429300 -20.061900
H -7.676000 -21.001200 -21.887600
H -10.609900 -22.404000 -29.216600
H -10.354000 -23.315300 -33.993500
N -9.990100 -22.989700 -32.054700
C -9.981000 -23.648100 -33.209600
H -9.695500 -25.555000 -34.972300
C -9.649800 -22.405400 -29.208400
H -9.521000 -26.682600 -33.897400
N -9.381300 -24.838200 -33.127800
C -9.380400 -23.841900 -31.186000
H -9.338000 -22.373100 -28.301300
H -9.324100 -21.640100 -29.685600
C -9.201000 -25.828900 -34.197000
N -9.158200 -23.625700 -29.849000
C -8.981000 -24.986300 -31.813300
C -8.599300 -24.639500 -29.080400
O -8.458900 -24.530700 -27.888400
C -8.349100 -26.073200 -31.140700
H -8.269700 -25.894900 -34.416900
N -8.192600 -25.789400 -29.767700
H -8.061100 -26.865200 -28.081400
O -7.970900 -27.123500 -31.619200
H -7.779300 -27.710500 -29.371300
C -7.631800 -26.865200 -28.939700
H -6.688900 -26.724700 -28.827300
