22
Fragment
H -11.896100 -28.378900 -25.048800
O -11.439900 -27.618800 -25.090000
O -11.283100 -28.007500 -22.900100
C -11.067000 -27.276600 -23.872900
H -10.511200 -27.058900 -21.710100
H -10.504100 -25.375300 -25.698700
C -10.412600 -25.974900 -23.736900
C -10.222000 -25.104300 -24.855000
O -10.069800 -26.356600 -21.389900
C -9.951700 -25.584500 -22.493500
C -9.635300 -23.891100 -24.706800
H -9.535400 -23.333600 -25.444600
C -9.309900 -24.313700 -22.307800
C -9.172600 -23.464200 -23.436500
H -8.905400 -24.464000 -20.319200
C -8.817900 -23.899500 -21.053700
C -8.543600 -22.194800 -23.231200
H -8.445900 -21.609200 -23.947900
C -8.218300 -22.687700 -20.895700
C -8.084300 -21.829700 -21.998400
H -7.898200 -22.429300 -20.061900
H -7.676000 -21.001200 -21.887600
24
Fragment
H -12.687700 -15.401300 -20.032600
C -11.744800 -15.260800 -19.920200
H -11.597200 -14.415500 -19.488600
O -11.405700 -15.002500 -17.240700
H -11.315400 -15.260800 -20.778500
N -11.184000 -16.336600 -19.092200
H -11.106900 -16.231100 -14.443000
C -11.027400 -16.052800 -17.719200
O -10.917700 -17.595300 -20.971500
C -10.777300 -17.486500 -19.779500
C -10.395600 -17.139700 -17.046600
N -10.218400 -18.500300 -19.010900
C -10.175600 -16.297100 -14.662900
H -10.052500 -20.485900 -19.174200
H -10.038600 -19.752900 -20.558600
C -9.996200 -18.284100 -17.673900
N -9.995300 -17.287800 -15.732100
H -9.855600 -15.443400 -14.962500
C -9.726800 -19.720600 -19.651400
H -9.681000 -16.571000 -13.887600
C -9.395600 -18.477900 -15.650300
N -9.386500 -19.136300 -16.805200
H -9.022600 -18.810700 -14.866400
H -8.766700 -19.722000 -19.643300
46
Fragment
H -11.896100 -28.378900 -25.048800
O -11.439900 -27.618800 -25.090000
O -11.283100 -28.007500 -22.900100
C -11.067000 -27.276600 -23.872900
H -10.511200 -27.058900 -21.710100
H -10.504100 -25.375300 -25.698700
C -10.412600 -25.974900 -23.736900
C -10.222000 -25.104300 -24.855000
O -10.069800 -26.356600 -21.389900
C -9.951700 -25.584500 -22.493500
C -9.635300 -23.891100 -24.706800
H -9.535400 -23.333600 -25.444600
C -9.309900 -24.313700 -22.307800
C -9.172600 -23.464200 -23.436500
H -8.905400 -24.464000 -20.319200
C -8.817900 -23.899500 -21.053700
C -8.543600 -22.194800 -23.231200
H -8.445900 -21.609200 -23.947900
C -8.218300 -22.687700 -20.895700
C -8.084300 -21.829700 -21.998400
H -7.898200 -22.429300 -20.061900
H -7.676000 -21.001200 -21.887600
H -12.687700 -15.401300 -20.032600
C -11.744800 -15.260800 -19.920200
H -11.597200 -14.415500 -19.488600
O -11.405700 -15.002500 -17.240700
H -11.315400 -15.260800 -20.778500
N -11.184000 -16.336600 -19.092200
H -11.106900 -16.231100 -14.443000
C -11.027400 -16.052800 -17.719200
O -10.917700 -17.595300 -20.971500
C -10.777300 -17.486500 -19.779500
C -10.395600 -17.139700 -17.046600
N -10.218400 -18.500300 -19.010900
C -10.175600 -16.297100 -14.662900
H -10.052500 -20.485900 -19.174200
H -10.038600 -19.752900 -20.558600
C -9.996200 -18.284100 -17.673900
N -9.995300 -17.287800 -15.732100
H -9.855600 -15.443400 -14.962500
C -9.726800 -19.720600 -19.651400
H -9.681000 -16.571000 -13.887600
C -9.395600 -18.477900 -15.650300
N -9.386500 -19.136300 -16.805200
H -9.022600 -18.810700 -14.866400
H -8.766700 -19.722000 -19.643300
