22
Fragment
H -11.896100 -28.378900 -25.048800
O -11.439900 -27.618800 -25.090000
O -11.283100 -28.007500 -22.900100
C -11.067000 -27.276600 -23.872900
H -10.511200 -27.058900 -21.710100
H -10.504100 -25.375300 -25.698700
C -10.412600 -25.974900 -23.736900
C -10.222000 -25.104300 -24.855000
O -10.069800 -26.356600 -21.389900
C -9.951700 -25.584500 -22.493500
C -9.635300 -23.891100 -24.706800
H -9.535400 -23.333600 -25.444600
C -9.309900 -24.313700 -22.307800
C -9.172600 -23.464200 -23.436500
H -8.905400 -24.464000 -20.319200
C -8.817900 -23.899500 -21.053700
C -8.543600 -22.194800 -23.231200
H -8.445900 -21.609200 -23.947900
C -8.218300 -22.687700 -20.895700
C -8.084300 -21.829700 -21.998400
H -7.898200 -22.429300 -20.061900
H -7.676000 -21.001200 -21.887600
22
Fragment
H -11.700500 -21.124800 -26.972300
H -11.478400 -19.696700 -28.798000
C -11.292300 -20.296300 -26.861500
C -11.158300 -19.438300 -27.964100
H -10.930700 -20.516800 -24.912000
C -10.833000 -19.931200 -25.628600
C -10.558700 -18.226500 -27.806200
H -10.471200 -17.662000 -28.540700
C -10.204000 -18.661800 -25.423400
C -10.066700 -17.812300 -26.552100
H -9.841200 -18.792400 -23.415300
C -9.741300 -18.234900 -24.153100
C -9.424800 -16.541500 -26.366400
O -9.306800 -15.769400 -27.470000
C -9.154600 -17.021700 -24.004900
C -8.964000 -16.151100 -25.122900
H -8.872500 -16.750700 -23.161200
H -8.865300 -15.067100 -27.149800
C -8.309600 -14.849400 -24.986900
O -8.093500 -14.118500 -25.959700
O -7.936700 -14.507200 -23.769800
H -7.480400 -13.747100 -23.811100
44
Fragment
H -11.896100 -28.378900 -25.048800
O -11.439900 -27.618800 -25.090000
O -11.283100 -28.007500 -22.900100
C -11.067000 -27.276600 -23.872900
H -10.511200 -27.058900 -21.710100
H -10.504100 -25.375300 -25.698700
C -10.412600 -25.974900 -23.736900
C -10.222000 -25.104300 -24.855000
O -10.069800 -26.356600 -21.389900
C -9.951700 -25.584500 -22.493500
C -9.635300 -23.891100 -24.706800
H -9.535400 -23.333600 -25.444600
C -9.309900 -24.313700 -22.307800
C -9.172600 -23.464200 -23.436500
H -8.905400 -24.464000 -20.319200
C -8.817900 -23.899500 -21.053700
C -8.543600 -22.194800 -23.231200
H -8.445900 -21.609200 -23.947900
C -8.218300 -22.687700 -20.895700
C -8.084300 -21.829700 -21.998400
H -7.898200 -22.429300 -20.061900
H -7.676000 -21.001200 -21.887600
H -11.700500 -21.124800 -26.972300
H -11.478400 -19.696700 -28.798000
C -11.292300 -20.296300 -26.861500
C -11.158300 -19.438300 -27.964100
H -10.930700 -20.516800 -24.912000
C -10.833000 -19.931200 -25.628600
C -10.558700 -18.226500 -27.806200
H -10.471200 -17.662000 -28.540700
C -10.204000 -18.661800 -25.423400
C -10.066700 -17.812300 -26.552100
H -9.841200 -18.792400 -23.415300
C -9.741300 -18.234900 -24.153100
C -9.424800 -16.541500 -26.366400
O -9.306800 -15.769400 -27.470000
C -9.154600 -17.021700 -24.004900
C -8.964000 -16.151100 -25.122900
H -8.872500 -16.750700 -23.161200
H -8.865300 -15.067100 -27.149800
C -8.309600 -14.849400 -24.986900
O -8.093500 -14.118500 -25.959700
O -7.936700 -14.507200 -23.769800
H -7.480400 -13.747100 -23.811100
