21
Fragment
H -9.409400 -10.697300 -22.813800
O -9.166800 -9.781100 -20.829600
O -8.882700 -11.328800 -22.986800
H -8.337800 -12.872100 -20.927600
C -8.085300 -10.301200 -20.967800
C -7.771200 -11.268100 -22.115900
C -7.542100 -12.646800 -21.472500
O -7.359800 -8.612600 -23.424500
O -7.285300 -13.723900 -23.635900
C -7.284500 -13.783400 -22.426500
H -7.282100 -9.605900 -19.527600
O -7.064900 -10.140800 -20.137000
O -7.060000 -14.916600 -21.756300
H -6.918500 -15.540300 -22.300900
C -6.814000 -9.640300 -23.793900
H -6.770600 -12.577700 -20.855700
H -6.592700 -9.151600 -25.499200
C -6.523100 -10.817100 -22.898900
O -6.410300 -9.830000 -25.039500
H -6.193400 -11.571600 -23.449100
H -5.808600 -10.571500 -22.259600
21
Fragment
H -8.010800 -18.976700 -22.813800
O -7.768300 -18.060500 -20.829600
O -7.484100 -19.608200 -22.986800
H -6.939200 -21.151500 -20.927600
C -6.686800 -18.580600 -20.967800
C -6.372700 -19.547500 -22.115900
C -6.143500 -20.926200 -21.472500
O -5.961200 -16.892000 -23.424500
O -5.886700 -22.003300 -23.635900
C -5.885900 -22.062800 -22.426500
H -5.883600 -17.885300 -19.527600
O -5.666400 -18.420200 -20.137000
O -5.661400 -23.196000 -21.756300
H -5.519900 -23.819700 -22.300900
C -5.415400 -17.919700 -23.793900
H -5.372100 -20.857100 -20.855700
H -5.194100 -17.431100 -25.499200
C -5.124500 -19.096500 -22.898900
O -5.011800 -18.109400 -25.039500
H -4.794900 -19.851000 -23.449100
H -4.410000 -18.850900 -22.259600
42
Fragment
H -9.409400 -10.697300 -22.813800
O -9.166800 -9.781100 -20.829600
O -8.882700 -11.328800 -22.986800
H -8.337800 -12.872100 -20.927600
C -8.085300 -10.301200 -20.967800
C -7.771200 -11.268100 -22.115900
C -7.542100 -12.646800 -21.472500
O -7.359800 -8.612600 -23.424500
O -7.285300 -13.723900 -23.635900
C -7.284500 -13.783400 -22.426500
H -7.282100 -9.605900 -19.527600
O -7.064900 -10.140800 -20.137000
O -7.060000 -14.916600 -21.756300
H -6.918500 -15.540300 -22.300900
C -6.814000 -9.640300 -23.793900
H -6.770600 -12.577700 -20.855700
H -6.592700 -9.151600 -25.499200
C -6.523100 -10.817100 -22.898900
O -6.410300 -9.830000 -25.039500
H -6.193400 -11.571600 -23.449100
H -5.808600 -10.571500 -22.259600
H -8.010800 -18.976700 -22.813800
O -7.768300 -18.060500 -20.829600
O -7.484100 -19.608200 -22.986800
H -6.939200 -21.151500 -20.927600
C -6.686800 -18.580600 -20.967800
C -6.372700 -19.547500 -22.115900
C -6.143500 -20.926200 -21.472500
O -5.961200 -16.892000 -23.424500
O -5.886700 -22.003300 -23.635900
C -5.885900 -22.062800 -22.426500
H -5.883600 -17.885300 -19.527600
O -5.666400 -18.420200 -20.137000
O -5.661400 -23.196000 -21.756300
H -5.519900 -23.819700 -22.300900
C -5.415400 -17.919700 -23.793900
H -5.372100 -20.857100 -20.855700
H -5.194100 -17.431100 -25.499200
C -5.124500 -19.096500 -22.898900
O -5.011800 -18.109400 -25.039500
H -4.794900 -19.851000 -23.449100
H -4.410000 -18.850900 -22.259600
