24
Fragment
H -11.248600 -37.931600 -10.985600
H -11.061000 -36.434600 -10.559300
H -10.706500 -36.884000 -12.018700
C -10.706000 -37.147200 -11.095900
O -9.390400 -35.832200 -9.070900
N -9.340300 -37.438800 -10.674100
N -8.972600 -39.106900 -12.396500
C -8.785800 -36.735000 -9.621000
C -8.582400 -38.369700 -11.324800
C -7.894600 -39.833400 -12.693300
H -7.866400 -40.444400 -13.394100
H -7.690900 -36.275900 -7.413700
N -7.503900 -37.109100 -9.230900
C -7.297600 -38.636600 -10.979400
C -6.974100 -36.443200 -8.028900
N -6.856100 -39.596500 -11.879200
C -6.652600 -38.022900 -9.866900
H -6.564700 -35.611700 -8.278700
H -6.319800 -37.008500 -7.611800
C -5.529600 -40.182100 -11.963200
O -5.510100 -38.219000 -9.488300
H -5.510000 -40.830200 -12.671700
H -5.315500 -40.610500 -11.131300
H -4.885600 -39.492000 -12.142800
22
Fragment
H -8.406400 -39.865600 -17.060100
H -8.019300 -41.455400 -18.725400
C -7.570300 -40.265600 -17.138000
C -7.330800 -41.222400 -18.144900
H -6.724200 -39.304000 -15.613000
C -6.566400 -39.931300 -16.280700
C -6.119600 -41.809700 -18.282900
H -5.985600 -42.432200 -18.960600
C -5.296500 -40.520400 -16.390100
C -5.050400 -41.485400 -17.404700
H -4.371800 -39.550600 -14.859800
C -4.231000 -40.187300 -15.524300
C -3.782600 -42.058600 -17.524200
H -3.625200 -42.681300 -18.196500
C -3.003100 -40.768500 -15.633000
C -2.766400 -41.719100 -16.670000
O -2.199200 -39.532100 -13.786200
C -1.894300 -40.410900 -14.722500
O -1.556300 -42.299600 -16.846600
H -1.353300 -39.343100 -13.391800
H -1.040300 -41.946200 -16.275300
O -0.781100 -40.889100 -14.834900
46
Fragment
H -11.248600 -37.931600 -10.985600
H -11.061000 -36.434600 -10.559300
H -10.706500 -36.884000 -12.018700
C -10.706000 -37.147200 -11.095900
O -9.390400 -35.832200 -9.070900
N -9.340300 -37.438800 -10.674100
N -8.972600 -39.106900 -12.396500
C -8.785800 -36.735000 -9.621000
C -8.582400 -38.369700 -11.324800
C -7.894600 -39.833400 -12.693300
H -7.866400 -40.444400 -13.394100
H -7.690900 -36.275900 -7.413700
N -7.503900 -37.109100 -9.230900
C -7.297600 -38.636600 -10.979400
C -6.974100 -36.443200 -8.028900
N -6.856100 -39.596500 -11.879200
C -6.652600 -38.022900 -9.866900
H -6.564700 -35.611700 -8.278700
H -6.319800 -37.008500 -7.611800
C -5.529600 -40.182100 -11.963200
O -5.510100 -38.219000 -9.488300
H -5.510000 -40.830200 -12.671700
H -5.315500 -40.610500 -11.131300
H -4.885600 -39.492000 -12.142800
H -8.406400 -39.865600 -17.060100
H -8.019300 -41.455400 -18.725400
C -7.570300 -40.265600 -17.138000
C -7.330800 -41.222400 -18.144900
H -6.724200 -39.304000 -15.613000
C -6.566400 -39.931300 -16.280700
C -6.119600 -41.809700 -18.282900
H -5.985600 -42.432200 -18.960600
C -5.296500 -40.520400 -16.390100
C -5.050400 -41.485400 -17.404700
H -4.371800 -39.550600 -14.859800
C -4.231000 -40.187300 -15.524300
C -3.782600 -42.058600 -17.524200
H -3.625200 -42.681300 -18.196500
C -3.003100 -40.768500 -15.633000
C -2.766400 -41.719100 -16.670000
O -2.199200 -39.532100 -13.786200
C -1.894300 -40.410900 -14.722500
O -1.556300 -42.299600 -16.846600
H -1.353300 -39.343100 -13.391800
H -1.040300 -41.946200 -16.275300
O -0.781100 -40.889100 -14.834900
