24
Fragment
H -11.248600 -37.931600 -10.985600
H -11.061000 -36.434600 -10.559300
H -10.706500 -36.884000 -12.018700
C -10.706000 -37.147200 -11.095900
O -9.390400 -35.832200 -9.070900
N -9.340300 -37.438800 -10.674100
N -8.972600 -39.106900 -12.396500
C -8.785800 -36.735000 -9.621000
C -8.582400 -38.369700 -11.324800
C -7.894600 -39.833400 -12.693300
H -7.866400 -40.444400 -13.394100
H -7.690900 -36.275900 -7.413700
N -7.503900 -37.109100 -9.230900
C -7.297600 -38.636600 -10.979400
C -6.974100 -36.443200 -8.028900
N -6.856100 -39.596500 -11.879200
C -6.652600 -38.022900 -9.866900
H -6.564700 -35.611700 -8.278700
H -6.319800 -37.008500 -7.611800
C -5.529600 -40.182100 -11.963200
O -5.510100 -38.219000 -9.488300
H -5.510000 -40.830200 -12.671700
H -5.315500 -40.610500 -11.131300
H -4.885600 -39.492000 -12.142800
24
Fragment
H -10.441800 -33.768000 -10.986400
H -10.012000 -32.649500 -11.997900
O -9.817400 -35.041000 -13.640900
H -9.817400 -32.429800 -10.457500
C -9.797900 -33.077900 -11.166000
H -9.007600 -36.251500 -15.517400
H -8.762800 -37.648300 -14.850500
C -8.674900 -35.237100 -13.262300
N -8.471400 -33.663500 -11.250100
C -8.353400 -36.816800 -15.100300
C -8.029800 -34.623400 -12.149800
N -7.823500 -36.150900 -13.898400
H -7.636500 -36.984100 -15.715500
H -7.461100 -32.815600 -9.735100
C -7.432800 -33.426600 -10.435900
C -6.745000 -34.890300 -11.804400
C -6.541700 -36.525000 -13.508200
N -6.354900 -34.153100 -10.732700
N -5.987100 -35.821200 -12.455100
O -5.937000 -37.427800 -14.058300
C -4.621400 -36.112800 -12.033400
H -4.621000 -36.376000 -11.110500
H -4.266500 -36.825400 -12.570000
H -4.078900 -35.328400 -12.143600
48
Fragment
H -11.248600 -37.931600 -10.985600
H -11.061000 -36.434600 -10.559300
H -10.706500 -36.884000 -12.018700
C -10.706000 -37.147200 -11.095900
O -9.390400 -35.832200 -9.070900
N -9.340300 -37.438800 -10.674100
N -8.972600 -39.106900 -12.396500
C -8.785800 -36.735000 -9.621000
C -8.582400 -38.369700 -11.324800
C -7.894600 -39.833400 -12.693300
H -7.866400 -40.444400 -13.394100
H -7.690900 -36.275900 -7.413700
N -7.503900 -37.109100 -9.230900
C -7.297600 -38.636600 -10.979400
C -6.974100 -36.443200 -8.028900
N -6.856100 -39.596500 -11.879200
C -6.652600 -38.022900 -9.866900
H -6.564700 -35.611700 -8.278700
H -6.319800 -37.008500 -7.611800
C -5.529600 -40.182100 -11.963200
O -5.510100 -38.219000 -9.488300
H -5.510000 -40.830200 -12.671700
H -5.315500 -40.610500 -11.131300
H -4.885600 -39.492000 -12.142800
H -10.441800 -33.768000 -10.986400
H -10.012000 -32.649500 -11.997900
O -9.817400 -35.041000 -13.640900
H -9.817400 -32.429800 -10.457500
C -9.797900 -33.077900 -11.166000
H -9.007600 -36.251500 -15.517400
H -8.762800 -37.648300 -14.850500
C -8.674900 -35.237100 -13.262300
N -8.471400 -33.663500 -11.250100
C -8.353400 -36.816800 -15.100300
C -8.029800 -34.623400 -12.149800
N -7.823500 -36.150900 -13.898400
H -7.636500 -36.984100 -15.715500
H -7.461100 -32.815600 -9.735100
C -7.432800 -33.426600 -10.435900
C -6.745000 -34.890300 -11.804400
C -6.541700 -36.525000 -13.508200
N -6.354900 -34.153100 -10.732700
N -5.987100 -35.821200 -12.455100
O -5.937000 -37.427800 -14.058300
C -4.621400 -36.112800 -12.033400
H -4.621000 -36.376000 -11.110500
H -4.266500 -36.825400 -12.570000
H -4.078900 -35.328400 -12.143600
