22
Fragment
H -11.896100 -28.378900 -25.048800
O -11.439900 -27.618800 -25.090000
O -11.283100 -28.007500 -22.900100
C -11.067000 -27.276600 -23.872900
H -10.511200 -27.058900 -21.710100
H -10.504100 -25.375300 -25.698700
C -10.412600 -25.974900 -23.736900
C -10.222000 -25.104300 -24.855000
O -10.069800 -26.356600 -21.389900
C -9.951700 -25.584500 -22.493500
C -9.635300 -23.891100 -24.706800
H -9.535400 -23.333600 -25.444600
C -9.309900 -24.313700 -22.307800
C -9.172600 -23.464200 -23.436500
H -8.905400 -24.464000 -20.319200
C -8.817900 -23.899500 -21.053700
C -8.543600 -22.194800 -23.231200
H -8.445900 -21.609200 -23.947900
C -8.218300 -22.687700 -20.895700
C -8.084300 -21.829700 -21.998400
H -7.898200 -22.429300 -20.061900
H -7.676000 -21.001200 -21.887600
22
Fragment
H -8.666700 -20.768100 -16.905500
O -8.210500 -21.528200 -16.946700
O -8.053700 -21.139500 -14.756800
C -7.837600 -21.870400 -15.729600
H -7.281800 -22.088100 -13.566800
H -7.274600 -23.771700 -17.555400
C -7.183100 -23.172100 -15.593600
C -6.992500 -24.042700 -16.711700
O -6.840400 -22.790400 -13.246600
C -6.722300 -23.562500 -14.350100
C -6.405900 -25.255900 -16.563500
H -6.306000 -25.813400 -17.301300
C -6.080500 -24.833300 -14.164500
C -5.943200 -25.682800 -15.293100
H -5.676000 -24.683000 -12.175900
C -5.588500 -25.247500 -12.910400
C -5.314100 -26.952200 -15.087900
H -5.216500 -27.537800 -15.804500
C -4.988800 -26.459300 -12.752400
C -4.854900 -27.317300 -13.855000
H -4.668800 -26.717700 -11.918600
H -4.446600 -28.145800 -13.744300
44
Fragment
H -11.896100 -28.378900 -25.048800
O -11.439900 -27.618800 -25.090000
O -11.283100 -28.007500 -22.900100
C -11.067000 -27.276600 -23.872900
H -10.511200 -27.058900 -21.710100
H -10.504100 -25.375300 -25.698700
C -10.412600 -25.974900 -23.736900
C -10.222000 -25.104300 -24.855000
O -10.069800 -26.356600 -21.389900
C -9.951700 -25.584500 -22.493500
C -9.635300 -23.891100 -24.706800
H -9.535400 -23.333600 -25.444600
C -9.309900 -24.313700 -22.307800
C -9.172600 -23.464200 -23.436500
H -8.905400 -24.464000 -20.319200
C -8.817900 -23.899500 -21.053700
C -8.543600 -22.194800 -23.231200
H -8.445900 -21.609200 -23.947900
C -8.218300 -22.687700 -20.895700
C -8.084300 -21.829700 -21.998400
H -7.898200 -22.429300 -20.061900
H -7.676000 -21.001200 -21.887600
H -8.666700 -20.768100 -16.905500
O -8.210500 -21.528200 -16.946700
O -8.053700 -21.139500 -14.756800
C -7.837600 -21.870400 -15.729600
H -7.281800 -22.088100 -13.566800
H -7.274600 -23.771700 -17.555400
C -7.183100 -23.172100 -15.593600
C -6.992500 -24.042700 -16.711700
O -6.840400 -22.790400 -13.246600
C -6.722300 -23.562500 -14.350100
C -6.405900 -25.255900 -16.563500
H -6.306000 -25.813400 -17.301300
C -6.080500 -24.833300 -14.164500
C -5.943200 -25.682800 -15.293100
H -5.676000 -24.683000 -12.175900
C -5.588500 -25.247500 -12.910400
C -5.314100 -26.952200 -15.087900
H -5.216500 -27.537800 -15.804500
C -4.988800 -26.459300 -12.752400
C -4.854900 -27.317300 -13.855000
H -4.668800 -26.717700 -11.918600
H -4.446600 -28.145800 -13.744300
