21
Fragment
H -9.409400 -10.697300 -22.813800
O -9.166800 -9.781100 -20.829600
O -8.882700 -11.328800 -22.986800
H -8.337800 -12.872100 -20.927600
C -8.085300 -10.301200 -20.967800
C -7.771200 -11.268100 -22.115900
C -7.542100 -12.646800 -21.472500
O -7.359800 -8.612600 -23.424500
O -7.285300 -13.723900 -23.635900
C -7.284500 -13.783400 -22.426500
H -7.282100 -9.605900 -19.527600
O -7.064900 -10.140800 -20.137000
O -7.060000 -14.916600 -21.756300
H -6.918500 -15.540300 -22.300900
C -6.814000 -9.640300 -23.793900
H -6.770600 -12.577700 -20.855700
H -6.592700 -9.151600 -25.499200
C -6.523100 -10.817100 -22.898900
O -6.410300 -9.830000 -25.039500
H -6.193400 -11.571600 -23.449100
H -5.808600 -10.571500 -22.259600
24
Fragment
H -7.571100 -12.507100 -27.603800
H -7.327300 -12.647700 -26.028000
C -6.900100 -12.675400 -26.909900
H -6.421300 -14.856200 -25.286000
N -6.301400 -13.992500 -27.119800
H -6.202700 -11.988600 -26.956400
C -6.144200 -14.950000 -26.189800
O -5.944300 -12.795300 -29.938400
C -5.787700 -14.502300 -28.299500
C -5.650900 -13.938300 -29.604100
N -5.553700 -16.051500 -26.675500
H -5.447100 -13.607000 -32.059400
C -5.341800 -15.760700 -27.988600
H -5.324900 -15.140100 -32.503000
N -5.096600 -14.861700 -30.513300
H -5.003600 -18.333100 -27.983400
C -4.958100 -14.444400 -31.917800
N -4.745000 -16.571400 -28.913000
C -4.595700 -16.122800 -30.201600
C -4.319500 -17.916200 -28.547000
H -4.194400 -18.451100 -29.358100
O -4.030600 -16.815900 -31.047500
H -4.009800 -14.309000 -32.126000
H -3.473900 -17.868300 -28.054000
45
Fragment
H -9.409400 -10.697300 -22.813800
O -9.166800 -9.781100 -20.829600
O -8.882700 -11.328800 -22.986800
H -8.337800 -12.872100 -20.927600
C -8.085300 -10.301200 -20.967800
C -7.771200 -11.268100 -22.115900
C -7.542100 -12.646800 -21.472500
O -7.359800 -8.612600 -23.424500
O -7.285300 -13.723900 -23.635900
C -7.284500 -13.783400 -22.426500
H -7.282100 -9.605900 -19.527600
O -7.064900 -10.140800 -20.137000
O -7.060000 -14.916600 -21.756300
H -6.918500 -15.540300 -22.300900
C -6.814000 -9.640300 -23.793900
H -6.770600 -12.577700 -20.855700
H -6.592700 -9.151600 -25.499200
C -6.523100 -10.817100 -22.898900
O -6.410300 -9.830000 -25.039500
H -6.193400 -11.571600 -23.449100
H -5.808600 -10.571500 -22.259600
H -7.571100 -12.507100 -27.603800
H -7.327300 -12.647700 -26.028000
C -6.900100 -12.675400 -26.909900
H -6.421300 -14.856200 -25.286000
N -6.301400 -13.992500 -27.119800
H -6.202700 -11.988600 -26.956400
C -6.144200 -14.950000 -26.189800
O -5.944300 -12.795300 -29.938400
C -5.787700 -14.502300 -28.299500
C -5.650900 -13.938300 -29.604100
N -5.553700 -16.051500 -26.675500
H -5.447100 -13.607000 -32.059400
C -5.341800 -15.760700 -27.988600
H -5.324900 -15.140100 -32.503000
N -5.096600 -14.861700 -30.513300
H -5.003600 -18.333100 -27.983400
C -4.958100 -14.444400 -31.917800
N -4.745000 -16.571400 -28.913000
C -4.595700 -16.122800 -30.201600
C -4.319500 -17.916200 -28.547000
H -4.194400 -18.451100 -29.358100
O -4.030600 -16.815900 -31.047500
H -4.009800 -14.309000 -32.126000
H -3.473900 -17.868300 -28.054000
