21
Fragment
H -9.409400 -10.697300 -22.813800
O -9.166800 -9.781100 -20.829600
O -8.882700 -11.328800 -22.986800
H -8.337800 -12.872100 -20.927600
C -8.085300 -10.301200 -20.967800
C -7.771200 -11.268100 -22.115900
C -7.542100 -12.646800 -21.472500
O -7.359800 -8.612600 -23.424500
O -7.285300 -13.723900 -23.635900
C -7.284500 -13.783400 -22.426500
H -7.282100 -9.605900 -19.527600
O -7.064900 -10.140800 -20.137000
O -7.060000 -14.916600 -21.756300
H -6.918500 -15.540300 -22.300900
C -6.814000 -9.640300 -23.793900
H -6.770600 -12.577700 -20.855700
H -6.592700 -9.151600 -25.499200
C -6.523100 -10.817100 -22.898900
O -6.410300 -9.830000 -25.039500
H -6.193400 -11.571600 -23.449100
H -5.808600 -10.571500 -22.259600
24
Fragment
H -6.004600 -4.261600 -25.227400
H -5.468700 -7.820900 -21.155400
O -5.447900 -5.313900 -22.233900
H -5.284100 -3.678700 -23.923400
C -5.159000 -4.213700 -24.734400
C -4.882700 -6.007100 -23.079800
N -4.733500 -5.558500 -24.368400
C -4.520400 -7.685500 -21.363600
H -4.474800 -3.796800 -25.298000
N -4.381900 -7.268200 -22.768100
H -4.153500 -6.989700 -20.778400
C -4.136700 -6.369200 -25.292800
H -4.031300 -8.522900 -21.222000
N -3.924700 -6.078400 -26.605900
C -3.827600 -8.191600 -23.677300
C -3.690800 -7.627600 -24.981900
O -3.534100 -9.334600 -23.343000
C -3.334200 -7.179900 -27.091600
H -3.275800 -10.141300 -26.325000
N -3.177000 -8.137400 -26.161600
H -3.057200 -7.273700 -27.995400
C -2.578400 -9.454500 -26.371500
H -2.151200 -9.482200 -27.253400
H -1.907400 -9.622800 -25.677600
45
Fragment
H -9.409400 -10.697300 -22.813800
O -9.166800 -9.781100 -20.829600
O -8.882700 -11.328800 -22.986800
H -8.337800 -12.872100 -20.927600
C -8.085300 -10.301200 -20.967800
C -7.771200 -11.268100 -22.115900
C -7.542100 -12.646800 -21.472500
O -7.359800 -8.612600 -23.424500
O -7.285300 -13.723900 -23.635900
C -7.284500 -13.783400 -22.426500
H -7.282100 -9.605900 -19.527600
O -7.064900 -10.140800 -20.137000
O -7.060000 -14.916600 -21.756300
H -6.918500 -15.540300 -22.300900
C -6.814000 -9.640300 -23.793900
H -6.770600 -12.577700 -20.855700
H -6.592700 -9.151600 -25.499200
C -6.523100 -10.817100 -22.898900
O -6.410300 -9.830000 -25.039500
H -6.193400 -11.571600 -23.449100
H -5.808600 -10.571500 -22.259600
H -6.004600 -4.261600 -25.227400
H -5.468700 -7.820900 -21.155400
O -5.447900 -5.313900 -22.233900
H -5.284100 -3.678700 -23.923400
C -5.159000 -4.213700 -24.734400
C -4.882700 -6.007100 -23.079800
N -4.733500 -5.558500 -24.368400
C -4.520400 -7.685500 -21.363600
H -4.474800 -3.796800 -25.298000
N -4.381900 -7.268200 -22.768100
H -4.153500 -6.989700 -20.778400
C -4.136700 -6.369200 -25.292800
H -4.031300 -8.522900 -21.222000
N -3.924700 -6.078400 -26.605900
C -3.827600 -8.191600 -23.677300
C -3.690800 -7.627600 -24.981900
O -3.534100 -9.334600 -23.343000
C -3.334200 -7.179900 -27.091600
H -3.275800 -10.141300 -26.325000
N -3.177000 -8.137400 -26.161600
H -3.057200 -7.273700 -27.995400
C -2.578400 -9.454500 -26.371500
H -2.151200 -9.482200 -27.253400
H -1.907400 -9.622800 -25.677600
