21
Fragment
H -9.409400 -10.697300 -22.813800
O -9.166800 -9.781100 -20.829600
O -8.882700 -11.328800 -22.986800
H -8.337800 -12.872100 -20.927600
C -8.085300 -10.301200 -20.967800
C -7.771200 -11.268100 -22.115900
C -7.542100 -12.646800 -21.472500
O -7.359800 -8.612600 -23.424500
O -7.285300 -13.723900 -23.635900
C -7.284500 -13.783400 -22.426500
H -7.282100 -9.605900 -19.527600
O -7.064900 -10.140800 -20.137000
O -7.060000 -14.916600 -21.756300
H -6.918500 -15.540300 -22.300900
C -6.814000 -9.640300 -23.793900
H -6.770600 -12.577700 -20.855700
H -6.592700 -9.151600 -25.499200
C -6.523100 -10.817100 -22.898900
O -6.410300 -9.830000 -25.039500
H -6.193400 -11.571600 -23.449100
H -5.808600 -10.571500 -22.259600
21
Fragment
H -10.808000 -2.417900 -22.813800
O -10.565400 -1.501700 -20.829600
O -10.281200 -3.049300 -22.986800
H -9.736300 -4.592700 -20.927600
C -9.483900 -2.021800 -20.967800
C -9.169800 -2.988700 -22.115900
C -8.940700 -4.367400 -21.472500
O -8.758300 -0.333100 -23.424500
O -8.683900 -5.444500 -23.635900
C -8.683100 -5.504000 -22.426500
H -8.680700 -1.326500 -19.527600
O -8.463500 -1.861400 -20.137000
O -8.458600 -6.637200 -21.756300
H -8.317000 -7.260900 -22.300900
C -8.212600 -1.360900 -23.793900
H -8.169200 -4.298300 -20.855700
H -7.991300 -0.872200 -25.499200
C -7.921700 -2.537700 -22.898900
O -7.808900 -1.550600 -25.039500
H -7.592000 -3.292200 -23.449100
H -7.207100 -2.292100 -22.259600
42
Fragment
H -9.409400 -10.697300 -22.813800
O -9.166800 -9.781100 -20.829600
O -8.882700 -11.328800 -22.986800
H -8.337800 -12.872100 -20.927600
C -8.085300 -10.301200 -20.967800
C -7.771200 -11.268100 -22.115900
C -7.542100 -12.646800 -21.472500
O -7.359800 -8.612600 -23.424500
O -7.285300 -13.723900 -23.635900
C -7.284500 -13.783400 -22.426500
H -7.282100 -9.605900 -19.527600
O -7.064900 -10.140800 -20.137000
O -7.060000 -14.916600 -21.756300
H -6.918500 -15.540300 -22.300900
C -6.814000 -9.640300 -23.793900
H -6.770600 -12.577700 -20.855700
H -6.592700 -9.151600 -25.499200
C -6.523100 -10.817100 -22.898900
O -6.410300 -9.830000 -25.039500
H -6.193400 -11.571600 -23.449100
H -5.808600 -10.571500 -22.259600
H -10.808000 -2.417900 -22.813800
O -10.565400 -1.501700 -20.829600
O -10.281200 -3.049300 -22.986800
H -9.736300 -4.592700 -20.927600
C -9.483900 -2.021800 -20.967800
C -9.169800 -2.988700 -22.115900
C -8.940700 -4.367400 -21.472500
O -8.758300 -0.333100 -23.424500
O -8.683900 -5.444500 -23.635900
C -8.683100 -5.504000 -22.426500
H -8.680700 -1.326500 -19.527600
O -8.463500 -1.861400 -20.137000
O -8.458600 -6.637200 -21.756300
H -8.317000 -7.260900 -22.300900
C -8.212600 -1.360900 -23.793900
H -8.169200 -4.298300 -20.855700
H -7.991300 -0.872200 -25.499200
C -7.921700 -2.537700 -22.898900
O -7.808900 -1.550600 -25.039500
H -7.592000 -3.292200 -23.449100
H -7.207100 -2.292100 -22.259600
