21
Fragment
H -9.409400 -10.697300 -22.813800
O -9.166800 -9.781100 -20.829600
O -8.882700 -11.328800 -22.986800
H -8.337800 -12.872100 -20.927600
C -8.085300 -10.301200 -20.967800
C -7.771200 -11.268100 -22.115900
C -7.542100 -12.646800 -21.472500
O -7.359800 -8.612600 -23.424500
O -7.285300 -13.723900 -23.635900
C -7.284500 -13.783400 -22.426500
H -7.282100 -9.605900 -19.527600
O -7.064900 -10.140800 -20.137000
O -7.060000 -14.916600 -21.756300
H -6.918500 -15.540300 -22.300900
C -6.814000 -9.640300 -23.793900
H -6.770600 -12.577700 -20.855700
H -6.592700 -9.151600 -25.499200
C -6.523100 -10.817100 -22.898900
O -6.410300 -9.830000 -25.039500
H -6.193400 -11.571600 -23.449100
H -5.808600 -10.571500 -22.259600
24
Fragment
H -4.606000 -12.541000 -25.227400
H -4.070100 -16.100300 -21.155400
O -4.049300 -13.593400 -22.233900
H -3.885500 -11.958200 -23.923400
C -3.760400 -12.493100 -24.734400
C -3.484100 -14.286500 -23.079800
N -3.334900 -13.837900 -24.368400
C -3.121800 -15.964900 -21.363600
H -3.076300 -12.076200 -25.298000
N -2.983300 -15.547600 -22.768100
H -2.754900 -15.269200 -20.778400
C -2.738100 -14.648600 -25.292800
H -2.632800 -16.802300 -21.222000
N -2.526200 -14.357800 -26.605900
C -2.429000 -16.471000 -23.677300
C -2.292200 -15.907000 -24.981900
O -2.135600 -17.614000 -23.343000
C -1.935600 -15.459300 -27.091600
H -1.877200 -18.420700 -26.325000
N -1.778400 -16.416900 -26.161600
H -1.658600 -15.553100 -27.995400
C -1.179800 -17.734000 -26.371500
H -0.752600 -17.761600 -27.253400
H -0.508800 -17.902200 -25.677600
45
Fragment
H -9.409400 -10.697300 -22.813800
O -9.166800 -9.781100 -20.829600
O -8.882700 -11.328800 -22.986800
H -8.337800 -12.872100 -20.927600
C -8.085300 -10.301200 -20.967800
C -7.771200 -11.268100 -22.115900
C -7.542100 -12.646800 -21.472500
O -7.359800 -8.612600 -23.424500
O -7.285300 -13.723900 -23.635900
C -7.284500 -13.783400 -22.426500
H -7.282100 -9.605900 -19.527600
O -7.064900 -10.140800 -20.137000
O -7.060000 -14.916600 -21.756300
H -6.918500 -15.540300 -22.300900
C -6.814000 -9.640300 -23.793900
H -6.770600 -12.577700 -20.855700
H -6.592700 -9.151600 -25.499200
C -6.523100 -10.817100 -22.898900
O -6.410300 -9.830000 -25.039500
H -6.193400 -11.571600 -23.449100
H -5.808600 -10.571500 -22.259600
H -4.606000 -12.541000 -25.227400
H -4.070100 -16.100300 -21.155400
O -4.049300 -13.593400 -22.233900
H -3.885500 -11.958200 -23.923400
C -3.760400 -12.493100 -24.734400
C -3.484100 -14.286500 -23.079800
N -3.334900 -13.837900 -24.368400
C -3.121800 -15.964900 -21.363600
H -3.076300 -12.076200 -25.298000
N -2.983300 -15.547600 -22.768100
H -2.754900 -15.269200 -20.778400
C -2.738100 -14.648600 -25.292800
H -2.632800 -16.802300 -21.222000
N -2.526200 -14.357800 -26.605900
C -2.429000 -16.471000 -23.677300
C -2.292200 -15.907000 -24.981900
O -2.135600 -17.614000 -23.343000
C -1.935600 -15.459300 -27.091600
H -1.877200 -18.420700 -26.325000
N -1.778400 -16.416900 -26.161600
H -1.658600 -15.553100 -27.995400
C -1.179800 -17.734000 -26.371500
H -0.752600 -17.761600 -27.253400
H -0.508800 -17.902200 -25.677600
