22
Fragment
H -11.896100 -28.378900 -25.048800
O -11.439900 -27.618800 -25.090000
O -11.283100 -28.007500 -22.900100
C -11.067000 -27.276600 -23.872900
H -10.511200 -27.058900 -21.710100
H -10.504100 -25.375300 -25.698700
C -10.412600 -25.974900 -23.736900
C -10.222000 -25.104300 -24.855000
O -10.069800 -26.356600 -21.389900
C -9.951700 -25.584500 -22.493500
C -9.635300 -23.891100 -24.706800
H -9.535400 -23.333600 -25.444600
C -9.309900 -24.313700 -22.307800
C -9.172600 -23.464200 -23.436500
H -8.905400 -24.464000 -20.319200
C -8.817900 -23.899500 -21.053700
C -8.543600 -22.194800 -23.231200
H -8.445900 -21.609200 -23.947900
C -8.218300 -22.687700 -20.895700
C -8.084300 -21.829700 -21.998400
H -7.898200 -22.429300 -20.061900
H -7.676000 -21.001200 -21.887600
24
Fragment
H -15.917100 -33.745700 -28.175900
C -14.974200 -33.886200 -28.063500
H -14.826700 -34.731500 -27.631900
O -14.635100 -34.144500 -25.384000
H -14.544900 -33.886200 -28.921800
N -14.413400 -32.810400 -27.235500
H -14.336300 -32.915900 -22.586300
C -14.256900 -33.094200 -25.862500
O -14.147200 -31.551700 -29.114800
C -14.006700 -31.660500 -27.922800
C -13.625000 -32.007300 -25.189900
N -13.447800 -30.646700 -27.154200
C -13.405000 -32.849900 -22.806200
H -13.281900 -28.661100 -27.317600
H -13.268000 -29.394100 -28.701900
C -13.225600 -30.862900 -25.817200
N -13.224700 -31.859200 -23.875400
H -13.085000 -33.703600 -23.105800
C -12.956200 -29.426400 -27.794800
H -12.910500 -32.576000 -22.030900
C -12.625000 -30.669100 -23.793600
N -12.615900 -30.010700 -24.948500
H -12.252000 -30.336300 -23.009800
H -11.996100 -29.425000 -27.786600
46
Fragment
H -11.896100 -28.378900 -25.048800
O -11.439900 -27.618800 -25.090000
O -11.283100 -28.007500 -22.900100
C -11.067000 -27.276600 -23.872900
H -10.511200 -27.058900 -21.710100
H -10.504100 -25.375300 -25.698700
C -10.412600 -25.974900 -23.736900
C -10.222000 -25.104300 -24.855000
O -10.069800 -26.356600 -21.389900
C -9.951700 -25.584500 -22.493500
C -9.635300 -23.891100 -24.706800
H -9.535400 -23.333600 -25.444600
C -9.309900 -24.313700 -22.307800
C -9.172600 -23.464200 -23.436500
H -8.905400 -24.464000 -20.319200
C -8.817900 -23.899500 -21.053700
C -8.543600 -22.194800 -23.231200
H -8.445900 -21.609200 -23.947900
C -8.218300 -22.687700 -20.895700
C -8.084300 -21.829700 -21.998400
H -7.898200 -22.429300 -20.061900
H -7.676000 -21.001200 -21.887600
H -15.917100 -33.745700 -28.175900
C -14.974200 -33.886200 -28.063500
H -14.826700 -34.731500 -27.631900
O -14.635100 -34.144500 -25.384000
H -14.544900 -33.886200 -28.921800
N -14.413400 -32.810400 -27.235500
H -14.336300 -32.915900 -22.586300
C -14.256900 -33.094200 -25.862500
O -14.147200 -31.551700 -29.114800
C -14.006700 -31.660500 -27.922800
C -13.625000 -32.007300 -25.189900
N -13.447800 -30.646700 -27.154200
C -13.405000 -32.849900 -22.806200
H -13.281900 -28.661100 -27.317600
H -13.268000 -29.394100 -28.701900
C -13.225600 -30.862900 -25.817200
N -13.224700 -31.859200 -23.875400
H -13.085000 -33.703600 -23.105800
C -12.956200 -29.426400 -27.794800
H -12.910500 -32.576000 -22.030900
C -12.625000 -30.669100 -23.793600
N -12.615900 -30.010700 -24.948500
H -12.252000 -30.336300 -23.009800
H -11.996100 -29.425000 -27.786600
