22
Fragment
H -11.896100 -28.378900 -25.048800
O -11.439900 -27.618800 -25.090000
O -11.283100 -28.007500 -22.900100
C -11.067000 -27.276600 -23.872900
H -10.511200 -27.058900 -21.710100
H -10.504100 -25.375300 -25.698700
C -10.412600 -25.974900 -23.736900
C -10.222000 -25.104300 -24.855000
O -10.069800 -26.356600 -21.389900
C -9.951700 -25.584500 -22.493500
C -9.635300 -23.891100 -24.706800
H -9.535400 -23.333600 -25.444600
C -9.309900 -24.313700 -22.307800
C -9.172600 -23.464200 -23.436500
H -8.905400 -24.464000 -20.319200
C -8.817900 -23.899500 -21.053700
C -8.543600 -22.194800 -23.231200
H -8.445900 -21.609200 -23.947900
C -8.218300 -22.687700 -20.895700
C -8.084300 -21.829700 -21.998400
H -7.898200 -22.429300 -20.061900
H -7.676000 -21.001200 -21.887600
22
Fragment
H -15.125600 -20.768100 -33.192200
O -14.669300 -21.528200 -33.233400
O -14.512500 -21.139500 -31.043500
C -14.296400 -21.870400 -32.016300
H -13.740700 -22.088100 -29.853400
H -13.733500 -23.771700 -33.842000
C -13.642000 -23.172100 -31.880300
C -13.451400 -24.042700 -32.998300
O -13.299200 -22.790400 -29.533200
C -13.181200 -23.562500 -30.636800
C -12.864700 -25.255900 -32.850100
H -12.764800 -25.813400 -33.587900
C -12.539400 -24.833300 -30.451100
C -12.402000 -25.682800 -31.579800
H -12.134800 -24.683000 -28.462500
C -12.047300 -25.247500 -29.197000
C -11.773000 -26.952200 -31.374600
H -11.675300 -27.537800 -32.091200
C -11.447700 -26.459300 -29.039100
C -11.313700 -27.317300 -30.141700
H -11.127600 -26.717700 -28.205200
H -10.905500 -28.145800 -30.030900
44
Fragment
H -11.896100 -28.378900 -25.048800
O -11.439900 -27.618800 -25.090000
O -11.283100 -28.007500 -22.900100
C -11.067000 -27.276600 -23.872900
H -10.511200 -27.058900 -21.710100
H -10.504100 -25.375300 -25.698700
C -10.412600 -25.974900 -23.736900
C -10.222000 -25.104300 -24.855000
O -10.069800 -26.356600 -21.389900
C -9.951700 -25.584500 -22.493500
C -9.635300 -23.891100 -24.706800
H -9.535400 -23.333600 -25.444600
C -9.309900 -24.313700 -22.307800
C -9.172600 -23.464200 -23.436500
H -8.905400 -24.464000 -20.319200
C -8.817900 -23.899500 -21.053700
C -8.543600 -22.194800 -23.231200
H -8.445900 -21.609200 -23.947900
C -8.218300 -22.687700 -20.895700
C -8.084300 -21.829700 -21.998400
H -7.898200 -22.429300 -20.061900
H -7.676000 -21.001200 -21.887600
H -15.125600 -20.768100 -33.192200
O -14.669300 -21.528200 -33.233400
O -14.512500 -21.139500 -31.043500
C -14.296400 -21.870400 -32.016300
H -13.740700 -22.088100 -29.853400
H -13.733500 -23.771700 -33.842000
C -13.642000 -23.172100 -31.880300
C -13.451400 -24.042700 -32.998300
O -13.299200 -22.790400 -29.533200
C -13.181200 -23.562500 -30.636800
C -12.864700 -25.255900 -32.850100
H -12.764800 -25.813400 -33.587900
C -12.539400 -24.833300 -30.451100
C -12.402000 -25.682800 -31.579800
H -12.134800 -24.683000 -28.462500
C -12.047300 -25.247500 -29.197000
C -11.773000 -26.952200 -31.374600
H -11.675300 -27.537800 -32.091200
C -11.447700 -26.459300 -29.039100
C -11.313700 -27.317300 -30.141700
H -11.127600 -26.717700 -28.205200
H -10.905500 -28.145800 -30.030900
