21
Fragment
H -7.353400 -43.088600 -13.321600
O -6.986200 -40.522900 -12.509600
H -6.905800 -38.839600 -10.056400
N -6.651300 -39.574900 -9.586000
C -6.590900 -41.188200 -11.540900
H -6.468700 -39.072800 -7.641800
H -6.435900 -44.166400 -7.958000
C -6.428400 -40.787900 -10.203700
C -6.403400 -43.066100 -13.083300
C -6.394300 -39.761900 -8.291900
N -6.254000 -42.544300 -11.722200
C -6.054400 -41.639300 -9.209600
H -6.032300 -43.972100 -13.128800
N -6.021000 -41.014600 -7.996500
H -5.923500 -42.484900 -13.710300
C -5.920500 -43.472300 -10.718800
N -5.793600 -42.969900 -9.448700
O -5.758200 -44.654200 -10.985700
C -5.573200 -43.916400 -8.352000
H -5.127000 -44.718200 -8.696000
H -5.011200 -43.497900 -7.667200
16
Fragment
O -3.492000 -40.085000 -12.316800
H -3.463800 -41.518500 -14.220800
H -3.298300 -39.728200 -10.488300
C -3.179400 -41.278100 -12.300600
O -3.154600 -42.020400 -13.395700
O -3.097100 -40.001300 -9.694700
C -2.827300 -41.992700 -11.060500
C -2.818400 -41.321400 -9.835800
H -2.525800 -43.827000 -11.905700
C -2.518400 -43.363000 -11.077400
C -2.510700 -42.021200 -8.663600
H -2.506400 -41.572900 -7.826100
C -2.213600 -43.366900 -8.730700
C -2.209500 -44.041800 -9.941500
H -2.007300 -43.839900 -7.932500
H -1.994000 -44.967000 -9.977000
37
Fragment
H -7.353400 -43.088600 -13.321600
O -6.986200 -40.522900 -12.509600
H -6.905800 -38.839600 -10.056400
N -6.651300 -39.574900 -9.586000
C -6.590900 -41.188200 -11.540900
H -6.468700 -39.072800 -7.641800
H -6.435900 -44.166400 -7.958000
C -6.428400 -40.787900 -10.203700
C -6.403400 -43.066100 -13.083300
C -6.394300 -39.761900 -8.291900
N -6.254000 -42.544300 -11.722200
C -6.054400 -41.639300 -9.209600
H -6.032300 -43.972100 -13.128800
N -6.021000 -41.014600 -7.996500
H -5.923500 -42.484900 -13.710300
C -5.920500 -43.472300 -10.718800
N -5.793600 -42.969900 -9.448700
O -5.758200 -44.654200 -10.985700
C -5.573200 -43.916400 -8.352000
H -5.127000 -44.718200 -8.696000
H -5.011200 -43.497900 -7.667200
O -3.492000 -40.085000 -12.316800
H -3.463800 -41.518500 -14.220800
H -3.298300 -39.728200 -10.488300
C -3.179400 -41.278100 -12.300600
O -3.154600 -42.020400 -13.395700
O -3.097100 -40.001300 -9.694700
C -2.827300 -41.992700 -11.060500
C -2.818400 -41.321400 -9.835800
H -2.525800 -43.827000 -11.905700
C -2.518400 -43.363000 -11.077400
C -2.510700 -42.021200 -8.663600
H -2.506400 -41.572900 -7.826100
C -2.213600 -43.366900 -8.730700
C -2.209500 -44.041800 -9.941500
H -2.007300 -43.839900 -7.932500
H -1.994000 -44.967000 -9.977000
