21
Fragment
H -7.353400 -43.088600 -13.321600
O -6.986200 -40.522900 -12.509600
H -6.905800 -38.839600 -10.056400
N -6.651300 -39.574900 -9.586000
C -6.590900 -41.188200 -11.540900
H -6.468700 -39.072800 -7.641800
H -6.435900 -44.166400 -7.958000
C -6.428400 -40.787900 -10.203700
C -6.403400 -43.066100 -13.083300
C -6.394300 -39.761900 -8.291900
N -6.254000 -42.544300 -11.722200
C -6.054400 -41.639300 -9.209600
H -6.032300 -43.972100 -13.128800
N -6.021000 -41.014600 -7.996500
H -5.923500 -42.484900 -13.710300
C -5.920500 -43.472300 -10.718800
N -5.793600 -42.969900 -9.448700
O -5.758200 -44.654200 -10.985700
C -5.573200 -43.916400 -8.352000
H -5.127000 -44.718200 -8.696000
H -5.011200 -43.497900 -7.667200
21
Fragment
H -9.650800 -34.227900 -15.468600
H -9.535000 -33.007600 -14.439900
C -9.088800 -33.809400 -14.783800
O -8.903800 -33.071600 -12.150200
N -8.868400 -34.755900 -13.687200
C -8.741500 -34.253500 -12.417000
H -8.738500 -35.240900 -9.425500
N -8.641000 -36.711200 -15.139300
H -8.629700 -33.753700 -10.007000
C -8.607600 -36.086500 -13.926200
N -8.408000 -35.181500 -11.413700
C -8.267700 -37.963900 -14.844000
C -8.258600 -34.659700 -10.052500
C -8.233600 -36.937900 -12.932200
H -8.226100 -33.559400 -15.177900
H -8.193300 -38.653000 -15.494100
C -8.071100 -36.537600 -11.594900
N -8.010800 -38.150900 -13.549900
H -7.756200 -38.886200 -13.079500
O -7.675800 -37.202900 -10.626300
H -7.308600 -34.637200 -9.814200
42
Fragment
H -7.353400 -43.088600 -13.321600
O -6.986200 -40.522900 -12.509600
H -6.905800 -38.839600 -10.056400
N -6.651300 -39.574900 -9.586000
C -6.590900 -41.188200 -11.540900
H -6.468700 -39.072800 -7.641800
H -6.435900 -44.166400 -7.958000
C -6.428400 -40.787900 -10.203700
C -6.403400 -43.066100 -13.083300
C -6.394300 -39.761900 -8.291900
N -6.254000 -42.544300 -11.722200
C -6.054400 -41.639300 -9.209600
H -6.032300 -43.972100 -13.128800
N -6.021000 -41.014600 -7.996500
H -5.923500 -42.484900 -13.710300
C -5.920500 -43.472300 -10.718800
N -5.793600 -42.969900 -9.448700
O -5.758200 -44.654200 -10.985700
C -5.573200 -43.916400 -8.352000
H -5.127000 -44.718200 -8.696000
H -5.011200 -43.497900 -7.667200
H -9.650800 -34.227900 -15.468600
H -9.535000 -33.007600 -14.439900
C -9.088800 -33.809400 -14.783800
O -8.903800 -33.071600 -12.150200
N -8.868400 -34.755900 -13.687200
C -8.741500 -34.253500 -12.417000
H -8.738500 -35.240900 -9.425500
N -8.641000 -36.711200 -15.139300
H -8.629700 -33.753700 -10.007000
C -8.607600 -36.086500 -13.926200
N -8.408000 -35.181500 -11.413700
C -8.267700 -37.963900 -14.844000
C -8.258600 -34.659700 -10.052500
C -8.233600 -36.937900 -12.932200
H -8.226100 -33.559400 -15.177900
H -8.193300 -38.653000 -15.494100
C -8.071100 -36.537600 -11.594900
N -8.010800 -38.150900 -13.549900
H -7.756200 -38.886200 -13.079500
O -7.675800 -37.202900 -10.626300
H -7.308600 -34.637200 -9.814200
