16
Fragment
H -8.310400 -12.795800 -37.302200
O -8.104200 -12.267800 -38.201200
H -7.869800 -11.337000 -40.465600
C -7.532000 -11.112700 -37.849200
C -7.506900 -10.468100 -40.284900
H -7.428100 -9.822800 -42.193300
O -7.264800 -10.866100 -36.675700
C -7.252400 -10.193800 -38.945800
C -7.236800 -9.540600 -41.277400
H -6.793300 -7.539500 -42.723000
C -6.728700 -8.933300 -38.638800
C -6.713300 -8.303800 -40.938300
H -6.546800 -8.847600 -37.715500
C -6.454800 -8.013600 -39.614100
O -6.395000 -7.342900 -41.849000
H -6.077700 -7.198600 -39.408600
16
Fragment
H -6.010500 -8.657400 -34.849200
O -5.693100 -8.513100 -32.408800
C -5.633400 -7.842400 -34.643700
H -5.541300 -7.008400 -36.542300
C -5.374800 -7.552200 -33.319500
C -5.359500 -6.922700 -35.619000
H -5.294800 -8.316500 -31.534800
C -4.851400 -6.315400 -32.980400
C -4.835800 -5.662200 -35.312100
O -4.823400 -4.989900 -37.582100
H -4.660000 -6.033200 -32.064500
C -4.581200 -5.387900 -33.973000
C -4.556200 -4.743300 -36.408600
H -4.218400 -4.519000 -33.792300
O -3.984000 -3.588200 -36.056600
H -3.777800 -3.060200 -36.955600
32
Fragment
H -8.310400 -12.795800 -37.302200
O -8.104200 -12.267800 -38.201200
H -7.869800 -11.337000 -40.465600
C -7.532000 -11.112700 -37.849200
C -7.506900 -10.468100 -40.284900
H -7.428100 -9.822800 -42.193300
O -7.264800 -10.866100 -36.675700
C -7.252400 -10.193800 -38.945800
C -7.236800 -9.540600 -41.277400
H -6.793300 -7.539500 -42.723000
C -6.728700 -8.933300 -38.638800
C -6.713300 -8.303800 -40.938300
H -6.546800 -8.847600 -37.715500
C -6.454800 -8.013600 -39.614100
O -6.395000 -7.342900 -41.849000
H -6.077700 -7.198600 -39.408600
H -6.010500 -8.657400 -34.849200
O -5.693100 -8.513100 -32.408800
C -5.633400 -7.842400 -34.643700
H -5.541300 -7.008400 -36.542300
C -5.374800 -7.552200 -33.319500
C -5.359500 -6.922700 -35.619000
H -5.294800 -8.316500 -31.534800
C -4.851400 -6.315400 -32.980400
C -4.835800 -5.662200 -35.312100
O -4.823400 -4.989900 -37.582100
H -4.660000 -6.033200 -32.064500
C -4.581200 -5.387900 -33.973000
C -4.556200 -4.743300 -36.408600
H -4.218400 -4.519000 -33.792300
O -3.984000 -3.588200 -36.056600
H -3.777800 -3.060200 -36.955600
