21
Fragment
H -7.353400 -43.088600 -13.321600
O -6.986200 -40.522900 -12.509600
H -6.905800 -38.839600 -10.056400
N -6.651300 -39.574900 -9.586000
C -6.590900 -41.188200 -11.540900
H -6.468700 -39.072800 -7.641800
H -6.435900 -44.166400 -7.958000
C -6.428400 -40.787900 -10.203700
C -6.403400 -43.066100 -13.083300
C -6.394300 -39.761900 -8.291900
N -6.254000 -42.544300 -11.722200
C -6.054400 -41.639300 -9.209600
H -6.032300 -43.972100 -13.128800
N -6.021000 -41.014600 -7.996500
H -5.923500 -42.484900 -13.710300
C -5.920500 -43.472300 -10.718800
N -5.793600 -42.969900 -9.448700
O -5.758200 -44.654200 -10.985700
C -5.573200 -43.916400 -8.352000
H -5.127000 -44.718200 -8.696000
H -5.011200 -43.497900 -7.667200
16
Fragment
H -7.780700 -32.758800 -5.447000
H -7.767400 -33.885900 -7.491400
C -7.565200 -33.684000 -5.482400
C -7.561100 -34.358900 -6.693200
H -7.268200 -36.152900 -7.597800
C -7.264000 -35.704600 -6.760300
C -7.256200 -34.362800 -4.346500
H -7.248800 -33.898800 -3.518200
C -6.956200 -36.404400 -5.588100
C -6.947400 -35.733100 -4.363400
O -6.677600 -37.724500 -5.729200
O -6.620100 -35.705400 -2.028200
C -6.595300 -36.447700 -3.123300
H -6.476400 -37.997600 -4.935600
H -6.310900 -36.207300 -1.203100
O -6.282700 -37.640800 -3.107100
37
Fragment
H -7.353400 -43.088600 -13.321600
O -6.986200 -40.522900 -12.509600
H -6.905800 -38.839600 -10.056400
N -6.651300 -39.574900 -9.586000
C -6.590900 -41.188200 -11.540900
H -6.468700 -39.072800 -7.641800
H -6.435900 -44.166400 -7.958000
C -6.428400 -40.787900 -10.203700
C -6.403400 -43.066100 -13.083300
C -6.394300 -39.761900 -8.291900
N -6.254000 -42.544300 -11.722200
C -6.054400 -41.639300 -9.209600
H -6.032300 -43.972100 -13.128800
N -6.021000 -41.014600 -7.996500
H -5.923500 -42.484900 -13.710300
C -5.920500 -43.472300 -10.718800
N -5.793600 -42.969900 -9.448700
O -5.758200 -44.654200 -10.985700
C -5.573200 -43.916400 -8.352000
H -5.127000 -44.718200 -8.696000
H -5.011200 -43.497900 -7.667200
H -7.780700 -32.758800 -5.447000
H -7.767400 -33.885900 -7.491400
C -7.565200 -33.684000 -5.482400
C -7.561100 -34.358900 -6.693200
H -7.268200 -36.152900 -7.597800
C -7.264000 -35.704600 -6.760300
C -7.256200 -34.362800 -4.346500
H -7.248800 -33.898800 -3.518200
C -6.956200 -36.404400 -5.588100
C -6.947400 -35.733100 -4.363400
O -6.677600 -37.724500 -5.729200
O -6.620100 -35.705400 -2.028200
C -6.595300 -36.447700 -3.123300
H -6.476400 -37.997600 -4.935600
H -6.310900 -36.207300 -1.203100
O -6.282700 -37.640800 -3.107100
