43
Fragment
H -21.388200 -59.875500 -6.696100
H -20.893400 -57.459400 -7.069700
H -20.890500 -62.110800 -7.057400
C -20.664900 -60.110800 -7.264900
C -20.377100 -61.435500 -7.486600
C -20.173700 -57.708600 -7.637600
C -19.898500 -59.092000 -7.870700
H -19.612300 -55.836000 -8.064200
C -19.414300 -56.753600 -8.219600
C -19.335800 -61.790300 -8.339700
H -19.154900 -62.710100 -8.498700
C -18.836900 -59.472200 -8.725600
C -18.571000 -60.841600 -8.950900
H -18.343300 -50.604400 -8.906700
C -18.323700 -57.104300 -9.062100
H -18.270100 -52.104100 -9.464900
C -18.062600 -58.435700 -9.312100
H -17.862000 -61.099400 -9.526700
C -17.752500 -51.368500 -9.074500
O -17.739300 -54.827700 -9.334100
C -17.454700 -56.074800 -9.641500
H -17.352400 -51.663400 -8.230200
O -17.172500 -48.765700 -9.698900
O -17.050800 -58.830400 -10.106900
H -16.848600 -54.060400 -9.900300
N -16.694500 -50.971500 -10.003600
H -16.592700 -58.163300 -10.329500
O -16.487500 -56.357900 -10.355100
C -16.487100 -49.620500 -10.216400
N -15.991100 -53.235400 -10.539700
C -15.900100 -51.890400 -10.623600
H -15.896800 -47.503400 -11.929800
N -15.429500 -49.283100 -11.084600
H -15.353400 -47.367100 -10.430100
C -15.236800 -47.834400 -11.285000
C -15.006300 -53.686600 -11.302700
C -14.880600 -51.510900 -11.439600
H -14.812500 -54.609000 -11.420200
C -14.573700 -50.163600 -11.754000
H -14.334100 -47.668300 -11.627700
N -14.313700 -52.705300 -11.888200
O -13.674700 -49.754000 -12.495000
H -13.417800 -52.865100 -12.199100
22
Fragment
H -14.754700 -59.786700 -10.894700
H -14.455400 -57.507000 -11.155200
H -14.154800 -62.142500 -11.534100
C -14.097900 -59.468100 -11.502300
C -13.918400 -58.112900 -11.651600
C -13.498700 -61.796900 -12.128500
C -13.326000 -60.388500 -12.230000
C -12.949900 -57.624300 -12.533000
H -12.891900 -63.588400 -12.758200
H -12.840600 -56.685800 -12.637200
C -12.758000 -62.652400 -12.852700
C -12.341700 -59.875200 -13.114100
C -12.160300 -58.479100 -13.243900
C -11.776700 -62.170800 -13.757900
C -11.574700 -60.802600 -13.874500
H -11.490700 -58.138000 -13.825000
O -11.239700 -64.375000 -14.412300
C -11.006700 -63.091500 -14.605700
O -10.668400 -60.281300 -14.741700
H -10.668300 -64.939100 -15.075600
O -10.187400 -62.703800 -15.450900
H -10.082700 -60.858400 -14.914800
65
Fragment
H -21.388200 -59.875500 -6.696100
H -20.893400 -57.459400 -7.069700
H -20.890500 -62.110800 -7.057400
C -20.664900 -60.110800 -7.264900
C -20.377100 -61.435500 -7.486600
C -20.173700 -57.708600 -7.637600
C -19.898500 -59.092000 -7.870700
H -19.612300 -55.836000 -8.064200
C -19.414300 -56.753600 -8.219600
C -19.335800 -61.790300 -8.339700
H -19.154900 -62.710100 -8.498700
C -18.836900 -59.472200 -8.725600
C -18.571000 -60.841600 -8.950900
H -18.343300 -50.604400 -8.906700
C -18.323700 -57.104300 -9.062100
H -18.270100 -52.104100 -9.464900
C -18.062600 -58.435700 -9.312100
H -17.862000 -61.099400 -9.526700
C -17.752500 -51.368500 -9.074500
O -17.739300 -54.827700 -9.334100
C -17.454700 -56.074800 -9.641500
H -17.352400 -51.663400 -8.230200
O -17.172500 -48.765700 -9.698900
O -17.050800 -58.830400 -10.106900
H -16.848600 -54.060400 -9.900300
N -16.694500 -50.971500 -10.003600
H -16.592700 -58.163300 -10.329500
O -16.487500 -56.357900 -10.355100
C -16.487100 -49.620500 -10.216400
N -15.991100 -53.235400 -10.539700
C -15.900100 -51.890400 -10.623600
H -15.896800 -47.503400 -11.929800
N -15.429500 -49.283100 -11.084600
H -15.353400 -47.367100 -10.430100
C -15.236800 -47.834400 -11.285000
C -15.006300 -53.686600 -11.302700
C -14.880600 -51.510900 -11.439600
H -14.812500 -54.609000 -11.420200
C -14.573700 -50.163600 -11.754000
H -14.334100 -47.668300 -11.627700
N -14.313700 -52.705300 -11.888200
O -13.674700 -49.754000 -12.495000
H -13.417800 -52.865100 -12.199100
H -14.754700 -59.786700 -10.894700
H -14.455400 -57.507000 -11.155200
H -14.154800 -62.142500 -11.534100
C -14.097900 -59.468100 -11.502300
C -13.918400 -58.112900 -11.651600
C -13.498700 -61.796900 -12.128500
C -13.326000 -60.388500 -12.230000
C -12.949900 -57.624300 -12.533000
H -12.891900 -63.588400 -12.758200
H -12.840600 -56.685800 -12.637200
C -12.758000 -62.652400 -12.852700
C -12.341700 -59.875200 -13.114100
C -12.160300 -58.479100 -13.243900
C -11.776700 -62.170800 -13.757900
C -11.574700 -60.802600 -13.874500
H -11.490700 -58.138000 -13.825000
O -11.239700 -64.375000 -14.412300
C -11.006700 -63.091500 -14.605700
O -10.668400 -60.281300 -14.741700
H -10.668300 -64.939100 -15.075600
O -10.187400 -62.703800 -15.450900
H -10.082700 -60.858400 -14.914800
