16
Fragment
H -8.310400 -12.795800 -37.302200
O -8.104200 -12.267800 -38.201200
H -7.869800 -11.337000 -40.465600
C -7.532000 -11.112700 -37.849200
C -7.506900 -10.468100 -40.284900
H -7.428100 -9.822800 -42.193300
O -7.264800 -10.866100 -36.675700
C -7.252400 -10.193800 -38.945800
C -7.236800 -9.540600 -41.277400
H -6.793300 -7.539500 -42.723000
C -6.728700 -8.933300 -38.638800
C -6.713300 -8.303800 -40.938300
H -6.546800 -8.847600 -37.715500
C -6.454800 -8.013600 -39.614100
O -6.395000 -7.342900 -41.849000
H -6.077700 -7.198600 -39.408600
21
Fragment
H -9.928300 -16.133500 -36.015000
H -9.760100 -17.181600 -34.817000
C -9.315200 -16.474400 -35.329400
O -9.178600 -16.812900 -32.647900
H -9.126900 -15.671300 -30.552100
N -8.930600 -15.378700 -34.424900
C -8.904000 -15.694300 -33.059600
H -8.704400 -14.155400 -30.265000
O -8.621600 -14.018300 -36.244000
C -8.575700 -14.156200 -35.002700
N -8.545700 -14.674700 -32.204100
H -8.514600 -16.839100 -35.760100
C -8.484000 -14.964900 -30.771000
C -8.209900 -13.199300 -34.037300
C -8.171600 -13.451400 -32.705600
N -7.760200 -11.903100 -34.200700
N -7.727800 -12.373200 -32.001400
H -7.580100 -15.260600 -30.537300
H -7.556800 -11.511500 -35.049700
C -7.471800 -11.463100 -32.970500
H -7.164900 -10.472900 -32.849200
37
Fragment
H -8.310400 -12.795800 -37.302200
O -8.104200 -12.267800 -38.201200
H -7.869800 -11.337000 -40.465600
C -7.532000 -11.112700 -37.849200
C -7.506900 -10.468100 -40.284900
H -7.428100 -9.822800 -42.193300
O -7.264800 -10.866100 -36.675700
C -7.252400 -10.193800 -38.945800
C -7.236800 -9.540600 -41.277400
H -6.793300 -7.539500 -42.723000
C -6.728700 -8.933300 -38.638800
C -6.713300 -8.303800 -40.938300
H -6.546800 -8.847600 -37.715500
C -6.454800 -8.013600 -39.614100
O -6.395000 -7.342900 -41.849000
H -6.077700 -7.198600 -39.408600
H -9.928300 -16.133500 -36.015000
H -9.760100 -17.181600 -34.817000
C -9.315200 -16.474400 -35.329400
O -9.178600 -16.812900 -32.647900
H -9.126900 -15.671300 -30.552100
N -8.930600 -15.378700 -34.424900
C -8.904000 -15.694300 -33.059600
H -8.704400 -14.155400 -30.265000
O -8.621600 -14.018300 -36.244000
C -8.575700 -14.156200 -35.002700
N -8.545700 -14.674700 -32.204100
H -8.514600 -16.839100 -35.760100
C -8.484000 -14.964900 -30.771000
C -8.209900 -13.199300 -34.037300
C -8.171600 -13.451400 -32.705600
N -7.760200 -11.903100 -34.200700
N -7.727800 -12.373200 -32.001400
H -7.580100 -15.260600 -30.537300
H -7.556800 -11.511500 -35.049700
C -7.471800 -11.463100 -32.970500
H -7.164900 -10.472900 -32.849200
