16
Fragment
H -8.310400 -12.795800 -37.302200
O -8.104200 -12.267800 -38.201200
H -7.869800 -11.337000 -40.465600
C -7.532000 -11.112700 -37.849200
C -7.506900 -10.468100 -40.284900
H -7.428100 -9.822800 -42.193300
O -7.264800 -10.866100 -36.675700
C -7.252400 -10.193800 -38.945800
C -7.236800 -9.540600 -41.277400
H -6.793300 -7.539500 -42.723000
C -6.728700 -8.933300 -38.638800
C -6.713300 -8.303800 -40.938300
H -6.546800 -8.847600 -37.715500
C -6.454800 -8.013600 -39.614100
O -6.395000 -7.342900 -41.849000
H -6.077700 -7.198600 -39.408600
21
Fragment
H -9.569700 -11.614500 -48.391300
H -9.401500 -10.566400 -47.193300
C -8.956600 -11.273600 -47.705700
O -8.820000 -10.935100 -45.024300
H -8.768200 -12.076700 -42.928400
N -8.571900 -12.369300 -46.801200
C -8.545300 -12.053700 -45.435900
H -8.345700 -13.592600 -42.641300
O -8.262900 -13.729700 -48.620300
C -8.217000 -13.591800 -47.379000
N -8.187000 -13.073300 -44.580400
H -8.155900 -10.908900 -48.136400
C -8.125300 -12.783100 -43.147300
C -7.851200 -14.548700 -46.413600
C -7.812900 -14.296600 -45.081900
N -7.401500 -15.844900 -46.577000
N -7.369100 -15.374800 -44.377700
H -7.221400 -12.487400 -42.913600
H -7.198200 -16.236500 -47.426000
C -7.113200 -16.284900 -45.346800
H -6.806300 -17.275100 -45.225500
37
Fragment
H -8.310400 -12.795800 -37.302200
O -8.104200 -12.267800 -38.201200
H -7.869800 -11.337000 -40.465600
C -7.532000 -11.112700 -37.849200
C -7.506900 -10.468100 -40.284900
H -7.428100 -9.822800 -42.193300
O -7.264800 -10.866100 -36.675700
C -7.252400 -10.193800 -38.945800
C -7.236800 -9.540600 -41.277400
H -6.793300 -7.539500 -42.723000
C -6.728700 -8.933300 -38.638800
C -6.713300 -8.303800 -40.938300
H -6.546800 -8.847600 -37.715500
C -6.454800 -8.013600 -39.614100
O -6.395000 -7.342900 -41.849000
H -6.077700 -7.198600 -39.408600
H -9.569700 -11.614500 -48.391300
H -9.401500 -10.566400 -47.193300
C -8.956600 -11.273600 -47.705700
O -8.820000 -10.935100 -45.024300
H -8.768200 -12.076700 -42.928400
N -8.571900 -12.369300 -46.801200
C -8.545300 -12.053700 -45.435900
H -8.345700 -13.592600 -42.641300
O -8.262900 -13.729700 -48.620300
C -8.217000 -13.591800 -47.379000
N -8.187000 -13.073300 -44.580400
H -8.155900 -10.908900 -48.136400
C -8.125300 -12.783100 -43.147300
C -7.851200 -14.548700 -46.413600
C -7.812900 -14.296600 -45.081900
N -7.401500 -15.844900 -46.577000
N -7.369100 -15.374800 -44.377700
H -7.221400 -12.487400 -42.913600
H -7.198200 -16.236500 -47.426000
C -7.113200 -16.284900 -45.346800
H -6.806300 -17.275100 -45.225500
