21
Fragment
H -7.353400 -43.088600 -13.321600
O -6.986200 -40.522900 -12.509600
H -6.905800 -38.839600 -10.056400
N -6.651300 -39.574900 -9.586000
C -6.590900 -41.188200 -11.540900
H -6.468700 -39.072800 -7.641800
H -6.435900 -44.166400 -7.958000
C -6.428400 -40.787900 -10.203700
C -6.403400 -43.066100 -13.083300
C -6.394300 -39.761900 -8.291900
N -6.254000 -42.544300 -11.722200
C -6.054400 -41.639300 -9.209600
H -6.032300 -43.972100 -13.128800
N -6.021000 -41.014600 -7.996500
H -5.923500 -42.484900 -13.710300
C -5.920500 -43.472300 -10.718800
N -5.793600 -42.969900 -9.448700
O -5.758200 -44.654200 -10.985700
C -5.573200 -43.916400 -8.352000
H -5.127000 -44.718200 -8.696000
H -5.011200 -43.497900 -7.667200
21
Fragment
H -9.384400 -43.088600 -5.609700
O -9.017100 -40.522900 -4.797600
H -8.936800 -38.839600 -2.344400
N -8.682200 -39.574900 -1.874000
C -8.621900 -41.188200 -3.829000
H -8.499600 -39.072800 0.070200
H -8.466900 -44.166400 -0.246000
C -8.459300 -40.787900 -2.491700
C -8.434300 -43.066100 -5.371400
C -8.425300 -39.761900 -0.579900
N -8.285000 -42.544300 -4.010200
C -8.085300 -41.639300 -1.497700
H -8.063300 -43.972100 -5.416900
N -8.052000 -41.014600 -0.284600
H -7.954400 -42.484900 -5.998400
C -7.951500 -43.472300 -3.006900
N -7.824500 -42.969900 -1.736700
O -7.789200 -44.654200 -3.273700
C -7.604100 -43.916400 -0.640100
H -7.158000 -44.718200 -0.984000
H -7.042200 -43.497900 0.044700
42
Fragment
H -7.353400 -43.088600 -13.321600
O -6.986200 -40.522900 -12.509600
H -6.905800 -38.839600 -10.056400
N -6.651300 -39.574900 -9.586000
C -6.590900 -41.188200 -11.540900
H -6.468700 -39.072800 -7.641800
H -6.435900 -44.166400 -7.958000
C -6.428400 -40.787900 -10.203700
C -6.403400 -43.066100 -13.083300
C -6.394300 -39.761900 -8.291900
N -6.254000 -42.544300 -11.722200
C -6.054400 -41.639300 -9.209600
H -6.032300 -43.972100 -13.128800
N -6.021000 -41.014600 -7.996500
H -5.923500 -42.484900 -13.710300
C -5.920500 -43.472300 -10.718800
N -5.793600 -42.969900 -9.448700
O -5.758200 -44.654200 -10.985700
C -5.573200 -43.916400 -8.352000
H -5.127000 -44.718200 -8.696000
H -5.011200 -43.497900 -7.667200
H -9.384400 -43.088600 -5.609700
O -9.017100 -40.522900 -4.797600
H -8.936800 -38.839600 -2.344400
N -8.682200 -39.574900 -1.874000
C -8.621900 -41.188200 -3.829000
H -8.499600 -39.072800 0.070200
H -8.466900 -44.166400 -0.246000
C -8.459300 -40.787900 -2.491700
C -8.434300 -43.066100 -5.371400
C -8.425300 -39.761900 -0.579900
N -8.285000 -42.544300 -4.010200
C -8.085300 -41.639300 -1.497700
H -8.063300 -43.972100 -5.416900
N -8.052000 -41.014600 -0.284600
H -7.954400 -42.484900 -5.998400
C -7.951500 -43.472300 -3.006900
N -7.824500 -42.969900 -1.736700
O -7.789200 -44.654200 -3.273700
C -7.604100 -43.916400 -0.640100
H -7.158000 -44.718200 -0.984000
H -7.042200 -43.497900 0.044700
