16
Fragment
H -8.310400 -12.795800 -37.302200
O -8.104200 -12.267800 -38.201200
H -7.869800 -11.337000 -40.465600
C -7.532000 -11.112700 -37.849200
C -7.506900 -10.468100 -40.284900
H -7.428100 -9.822800 -42.193300
O -7.264800 -10.866100 -36.675700
C -7.252400 -10.193800 -38.945800
C -7.236800 -9.540600 -41.277400
H -6.793300 -7.539500 -42.723000
C -6.728700 -8.933300 -38.638800
C -6.713300 -8.303800 -40.938300
H -6.546800 -8.847600 -37.715500
C -6.454800 -8.013600 -39.614100
O -6.395000 -7.342900 -41.849000
H -6.077700 -7.198600 -39.408600
21
Fragment
H -12.043300 -13.311100 -41.408600
C -11.736400 -12.320900 -41.287300
H -11.651400 -12.272500 -39.208100
H -11.628200 -8.523400 -43.720500
N -11.480500 -11.410800 -42.256400
N -11.448100 -11.880900 -40.057100
C -11.036700 -10.332600 -41.552200
C -10.998400 -10.584700 -40.220500
C -10.724300 -8.819100 -43.486900
H -10.693700 -6.944900 -38.497700
N -10.662600 -9.109300 -42.053700
C -10.632600 -9.627800 -39.255200
O -10.586700 -9.765700 -38.013800
H -10.503800 -9.628600 -43.992800
C -10.304300 -8.089700 -41.198200
N -10.277700 -8.405300 -39.832900
H -10.081400 -8.112700 -43.705700
O -10.029600 -6.971100 -41.609900
C -9.893000 -7.309600 -38.928400
H -9.448100 -6.602400 -39.440800
H -9.279900 -7.650500 -38.242800
37
Fragment
H -8.310400 -12.795800 -37.302200
O -8.104200 -12.267800 -38.201200
H -7.869800 -11.337000 -40.465600
C -7.532000 -11.112700 -37.849200
C -7.506900 -10.468100 -40.284900
H -7.428100 -9.822800 -42.193300
O -7.264800 -10.866100 -36.675700
C -7.252400 -10.193800 -38.945800
C -7.236800 -9.540600 -41.277400
H -6.793300 -7.539500 -42.723000
C -6.728700 -8.933300 -38.638800
C -6.713300 -8.303800 -40.938300
H -6.546800 -8.847600 -37.715500
C -6.454800 -8.013600 -39.614100
O -6.395000 -7.342900 -41.849000
H -6.077700 -7.198600 -39.408600
H -12.043300 -13.311100 -41.408600
C -11.736400 -12.320900 -41.287300
H -11.651400 -12.272500 -39.208100
H -11.628200 -8.523400 -43.720500
N -11.480500 -11.410800 -42.256400
N -11.448100 -11.880900 -40.057100
C -11.036700 -10.332600 -41.552200
C -10.998400 -10.584700 -40.220500
C -10.724300 -8.819100 -43.486900
H -10.693700 -6.944900 -38.497700
N -10.662600 -9.109300 -42.053700
C -10.632600 -9.627800 -39.255200
O -10.586700 -9.765700 -38.013800
H -10.503800 -9.628600 -43.992800
C -10.304300 -8.089700 -41.198200
N -10.277700 -8.405300 -39.832900
H -10.081400 -8.112700 -43.705700
O -10.029600 -6.971100 -41.609900
C -9.893000 -7.309600 -38.928400
H -9.448100 -6.602400 -39.440800
H -9.279900 -7.650500 -38.242800
