21
Fragment
H -7.353400 -43.088600 -13.321600
O -6.986200 -40.522900 -12.509600
H -6.905800 -38.839600 -10.056400
N -6.651300 -39.574900 -9.586000
C -6.590900 -41.188200 -11.540900
H -6.468700 -39.072800 -7.641800
H -6.435900 -44.166400 -7.958000
C -6.428400 -40.787900 -10.203700
C -6.403400 -43.066100 -13.083300
C -6.394300 -39.761900 -8.291900
N -6.254000 -42.544300 -11.722200
C -6.054400 -41.639300 -9.209600
H -6.032300 -43.972100 -13.128800
N -6.021000 -41.014600 -7.996500
H -5.923500 -42.484900 -13.710300
C -5.920500 -43.472300 -10.718800
N -5.793600 -42.969900 -9.448700
O -5.758200 -44.654200 -10.985700
C -5.573200 -43.916400 -8.352000
H -5.127000 -44.718200 -8.696000
H -5.011200 -43.497900 -7.667200
16
Fragment
O -8.379300 -40.085000 -20.028700
H -8.351100 -41.518500 -21.932800
H -8.185700 -39.728200 -18.200200
C -8.066700 -41.278100 -20.012500
O -8.041900 -42.020400 -21.107600
O -7.984400 -40.001300 -17.406600
C -7.714600 -41.992700 -18.772400
C -7.705800 -41.321400 -17.547800
H -7.413200 -43.827000 -19.617700
C -7.405800 -43.363000 -18.789400
C -7.398100 -42.021200 -16.375600
H -7.393800 -41.572900 -15.538000
C -7.100900 -43.366900 -16.442700
C -7.096800 -44.041800 -17.653400
H -6.894600 -43.839900 -15.644500
H -6.881300 -44.967000 -17.688900
37
Fragment
H -7.353400 -43.088600 -13.321600
O -6.986200 -40.522900 -12.509600
H -6.905800 -38.839600 -10.056400
N -6.651300 -39.574900 -9.586000
C -6.590900 -41.188200 -11.540900
H -6.468700 -39.072800 -7.641800
H -6.435900 -44.166400 -7.958000
C -6.428400 -40.787900 -10.203700
C -6.403400 -43.066100 -13.083300
C -6.394300 -39.761900 -8.291900
N -6.254000 -42.544300 -11.722200
C -6.054400 -41.639300 -9.209600
H -6.032300 -43.972100 -13.128800
N -6.021000 -41.014600 -7.996500
H -5.923500 -42.484900 -13.710300
C -5.920500 -43.472300 -10.718800
N -5.793600 -42.969900 -9.448700
O -5.758200 -44.654200 -10.985700
C -5.573200 -43.916400 -8.352000
H -5.127000 -44.718200 -8.696000
H -5.011200 -43.497900 -7.667200
O -8.379300 -40.085000 -20.028700
H -8.351100 -41.518500 -21.932800
H -8.185700 -39.728200 -18.200200
C -8.066700 -41.278100 -20.012500
O -8.041900 -42.020400 -21.107600
O -7.984400 -40.001300 -17.406600
C -7.714600 -41.992700 -18.772400
C -7.705800 -41.321400 -17.547800
H -7.413200 -43.827000 -19.617700
C -7.405800 -43.363000 -18.789400
C -7.398100 -42.021200 -16.375600
H -7.393800 -41.572900 -15.538000
C -7.100900 -43.366900 -16.442700
C -7.096800 -44.041800 -17.653400
H -6.894600 -43.839900 -15.644500
H -6.881300 -44.967000 -17.688900
