21
Fragment
H -7.353400 -43.088600 -13.321600
O -6.986200 -40.522900 -12.509600
H -6.905800 -38.839600 -10.056400
N -6.651300 -39.574900 -9.586000
C -6.590900 -41.188200 -11.540900
H -6.468700 -39.072800 -7.641800
H -6.435900 -44.166400 -7.958000
C -6.428400 -40.787900 -10.203700
C -6.403400 -43.066100 -13.083300
C -6.394300 -39.761900 -8.291900
N -6.254000 -42.544300 -11.722200
C -6.054400 -41.639300 -9.209600
H -6.032300 -43.972100 -13.128800
N -6.021000 -41.014600 -7.996500
H -5.923500 -42.484900 -13.710300
C -5.920500 -43.472300 -10.718800
N -5.793600 -42.969900 -9.448700
O -5.758200 -44.654200 -10.985700
C -5.573200 -43.916400 -8.352000
H -5.127000 -44.718200 -8.696000
H -5.011200 -43.497900 -7.667200
21
Fragment
H -9.797100 -47.591500 -17.177600
O -9.429800 -50.157200 -16.365500
H -9.349500 -51.840500 -13.912400
N -9.094900 -51.105200 -13.441900
C -9.034600 -49.491900 -15.396900
H -8.912300 -51.607300 -11.497800
H -8.879600 -46.513700 -11.813900
C -8.872100 -49.892200 -14.059700
C -8.847000 -47.614000 -16.939300
C -8.838000 -50.918200 -12.147900
N -8.697700 -48.135800 -15.578100
C -8.498100 -49.040800 -13.065600
H -8.476000 -46.708000 -16.984800
N -8.464700 -49.665500 -11.852500
H -8.367100 -48.195200 -17.566300
C -8.364200 -47.207800 -14.574800
N -8.237200 -47.710200 -13.304700
O -8.201900 -46.025900 -14.841700
C -8.016800 -46.763700 -12.208000
H -7.570700 -45.961900 -12.552000
H -7.454900 -47.182200 -11.523200
42
Fragment
H -7.353400 -43.088600 -13.321600
O -6.986200 -40.522900 -12.509600
H -6.905800 -38.839600 -10.056400
N -6.651300 -39.574900 -9.586000
C -6.590900 -41.188200 -11.540900
H -6.468700 -39.072800 -7.641800
H -6.435900 -44.166400 -7.958000
C -6.428400 -40.787900 -10.203700
C -6.403400 -43.066100 -13.083300
C -6.394300 -39.761900 -8.291900
N -6.254000 -42.544300 -11.722200
C -6.054400 -41.639300 -9.209600
H -6.032300 -43.972100 -13.128800
N -6.021000 -41.014600 -7.996500
H -5.923500 -42.484900 -13.710300
C -5.920500 -43.472300 -10.718800
N -5.793600 -42.969900 -9.448700
O -5.758200 -44.654200 -10.985700
C -5.573200 -43.916400 -8.352000
H -5.127000 -44.718200 -8.696000
H -5.011200 -43.497900 -7.667200
H -9.797100 -47.591500 -17.177600
O -9.429800 -50.157200 -16.365500
H -9.349500 -51.840500 -13.912400
N -9.094900 -51.105200 -13.441900
C -9.034600 -49.491900 -15.396900
H -8.912300 -51.607300 -11.497800
H -8.879600 -46.513700 -11.813900
C -8.872100 -49.892200 -14.059700
C -8.847000 -47.614000 -16.939300
C -8.838000 -50.918200 -12.147900
N -8.697700 -48.135800 -15.578100
C -8.498100 -49.040800 -13.065600
H -8.476000 -46.708000 -16.984800
N -8.464700 -49.665500 -11.852500
H -8.367100 -48.195200 -17.566300
C -8.364200 -47.207800 -14.574800
N -8.237200 -47.710200 -13.304700
O -8.201900 -46.025900 -14.841700
C -8.016800 -46.763700 -12.208000
H -7.570700 -45.961900 -12.552000
H -7.454900 -47.182200 -11.523200
