43
Fragment
H -21.388200 -59.875500 -6.696100
H -20.893400 -57.459400 -7.069700
H -20.890500 -62.110800 -7.057400
C -20.664900 -60.110800 -7.264900
C -20.377100 -61.435500 -7.486600
C -20.173700 -57.708600 -7.637600
C -19.898500 -59.092000 -7.870700
H -19.612300 -55.836000 -8.064200
C -19.414300 -56.753600 -8.219600
C -19.335800 -61.790300 -8.339700
H -19.154900 -62.710100 -8.498700
C -18.836900 -59.472200 -8.725600
C -18.571000 -60.841600 -8.950900
H -18.343300 -50.604400 -8.906700
C -18.323700 -57.104300 -9.062100
H -18.270100 -52.104100 -9.464900
C -18.062600 -58.435700 -9.312100
H -17.862000 -61.099400 -9.526700
C -17.752500 -51.368500 -9.074500
O -17.739300 -54.827700 -9.334100
C -17.454700 -56.074800 -9.641500
H -17.352400 -51.663400 -8.230200
O -17.172500 -48.765700 -9.698900
O -17.050800 -58.830400 -10.106900
H -16.848600 -54.060400 -9.900300
N -16.694500 -50.971500 -10.003600
H -16.592700 -58.163300 -10.329500
O -16.487500 -56.357900 -10.355100
C -16.487100 -49.620500 -10.216400
N -15.991100 -53.235400 -10.539700
C -15.900100 -51.890400 -10.623600
H -15.896800 -47.503400 -11.929800
N -15.429500 -49.283100 -11.084600
H -15.353400 -47.367100 -10.430100
C -15.236800 -47.834400 -11.285000
C -15.006300 -53.686600 -11.302700
C -14.880600 -51.510900 -11.439600
H -14.812500 -54.609000 -11.420200
C -14.573700 -50.163600 -11.754000
H -14.334100 -47.668300 -11.627700
N -14.313700 -52.705300 -11.888200
O -13.674700 -49.754000 -12.495000
H -13.417800 -52.865100 -12.199100
22
Fragment
H -14.128400 -51.187800 -15.310500
H -13.829200 -53.467500 -15.571000
H -13.528500 -48.832000 -15.949900
C -13.471600 -51.506400 -15.918100
C -13.292100 -52.861600 -16.067400
C -12.872400 -49.177600 -16.544300
C -12.699700 -50.586000 -16.645800
C -12.323600 -53.350200 -16.948800
H -12.265700 -47.386100 -17.174000
H -12.214300 -54.288700 -17.053000
C -12.131800 -48.322100 -17.268500
C -11.715500 -51.099300 -17.529900
C -11.534000 -52.495400 -17.659700
C -11.150400 -48.803700 -18.173700
C -10.948400 -50.171900 -18.290300
H -10.864500 -52.836500 -18.240800
O -10.613400 -46.599500 -18.828100
C -10.380400 -47.883000 -19.021600
O -10.042100 -50.693200 -19.157600
H -10.042100 -46.035400 -19.491400
O -9.561200 -48.270700 -19.866700
H -9.456400 -50.116100 -19.330700
65
Fragment
H -21.388200 -59.875500 -6.696100
H -20.893400 -57.459400 -7.069700
H -20.890500 -62.110800 -7.057400
C -20.664900 -60.110800 -7.264900
C -20.377100 -61.435500 -7.486600
C -20.173700 -57.708600 -7.637600
C -19.898500 -59.092000 -7.870700
H -19.612300 -55.836000 -8.064200
C -19.414300 -56.753600 -8.219600
C -19.335800 -61.790300 -8.339700
H -19.154900 -62.710100 -8.498700
C -18.836900 -59.472200 -8.725600
C -18.571000 -60.841600 -8.950900
H -18.343300 -50.604400 -8.906700
C -18.323700 -57.104300 -9.062100
H -18.270100 -52.104100 -9.464900
C -18.062600 -58.435700 -9.312100
H -17.862000 -61.099400 -9.526700
C -17.752500 -51.368500 -9.074500
O -17.739300 -54.827700 -9.334100
C -17.454700 -56.074800 -9.641500
H -17.352400 -51.663400 -8.230200
O -17.172500 -48.765700 -9.698900
O -17.050800 -58.830400 -10.106900
H -16.848600 -54.060400 -9.900300
N -16.694500 -50.971500 -10.003600
H -16.592700 -58.163300 -10.329500
O -16.487500 -56.357900 -10.355100
C -16.487100 -49.620500 -10.216400
N -15.991100 -53.235400 -10.539700
C -15.900100 -51.890400 -10.623600
H -15.896800 -47.503400 -11.929800
N -15.429500 -49.283100 -11.084600
H -15.353400 -47.367100 -10.430100
C -15.236800 -47.834400 -11.285000
C -15.006300 -53.686600 -11.302700
C -14.880600 -51.510900 -11.439600
H -14.812500 -54.609000 -11.420200
C -14.573700 -50.163600 -11.754000
H -14.334100 -47.668300 -11.627700
N -14.313700 -52.705300 -11.888200
O -13.674700 -49.754000 -12.495000
H -13.417800 -52.865100 -12.199100
H -14.128400 -51.187800 -15.310500
H -13.829200 -53.467500 -15.571000
H -13.528500 -48.832000 -15.949900
C -13.471600 -51.506400 -15.918100
C -13.292100 -52.861600 -16.067400
C -12.872400 -49.177600 -16.544300
C -12.699700 -50.586000 -16.645800
C -12.323600 -53.350200 -16.948800
H -12.265700 -47.386100 -17.174000
H -12.214300 -54.288700 -17.053000
C -12.131800 -48.322100 -17.268500
C -11.715500 -51.099300 -17.529900
C -11.534000 -52.495400 -17.659700
C -11.150400 -48.803700 -18.173700
C -10.948400 -50.171900 -18.290300
H -10.864500 -52.836500 -18.240800
O -10.613400 -46.599500 -18.828100
C -10.380400 -47.883000 -19.021600
O -10.042100 -50.693200 -19.157600
H -10.042100 -46.035400 -19.491400
O -9.561200 -48.270700 -19.866700
H -9.456400 -50.116100 -19.330700
