43
Fragment
H -21.388200 -59.875500 -6.696100
H -20.893400 -57.459400 -7.069700
H -20.890500 -62.110800 -7.057400
C -20.664900 -60.110800 -7.264900
C -20.377100 -61.435500 -7.486600
C -20.173700 -57.708600 -7.637600
C -19.898500 -59.092000 -7.870700
H -19.612300 -55.836000 -8.064200
C -19.414300 -56.753600 -8.219600
C -19.335800 -61.790300 -8.339700
H -19.154900 -62.710100 -8.498700
C -18.836900 -59.472200 -8.725600
C -18.571000 -60.841600 -8.950900
H -18.343300 -50.604400 -8.906700
C -18.323700 -57.104300 -9.062100
H -18.270100 -52.104100 -9.464900
C -18.062600 -58.435700 -9.312100
H -17.862000 -61.099400 -9.526700
C -17.752500 -51.368500 -9.074500
O -17.739300 -54.827700 -9.334100
C -17.454700 -56.074800 -9.641500
H -17.352400 -51.663400 -8.230200
O -17.172500 -48.765700 -9.698900
O -17.050800 -58.830400 -10.106900
H -16.848600 -54.060400 -9.900300
N -16.694500 -50.971500 -10.003600
H -16.592700 -58.163300 -10.329500
O -16.487500 -56.357900 -10.355100
C -16.487100 -49.620500 -10.216400
N -15.991100 -53.235400 -10.539700
C -15.900100 -51.890400 -10.623600
H -15.896800 -47.503400 -11.929800
N -15.429500 -49.283100 -11.084600
H -15.353400 -47.367100 -10.430100
C -15.236800 -47.834400 -11.285000
C -15.006300 -53.686600 -11.302700
C -14.880600 -51.510900 -11.439600
H -14.812500 -54.609000 -11.420200
C -14.573700 -50.163600 -11.754000
H -14.334100 -47.668300 -11.627700
N -14.313700 -52.705300 -11.888200
O -13.674700 -49.754000 -12.495000
H -13.417800 -52.865100 -12.199100
21
Fragment
O -24.374900 -57.483800 -8.636400
H -24.266800 -60.747400 -8.682400
H -23.768600 -55.433300 -9.446300
N -23.651100 -60.424300 -9.199900
C -23.447000 -57.896700 -9.356200
H -23.124700 -62.323300 -9.671500
C -23.096000 -59.232200 -9.623800
C -22.945800 -61.399000 -9.791600
H -22.906500 -55.132100 -10.760500
C -22.897000 -55.556100 -9.877300
N -22.620600 -56.989200 -10.027400
H -22.199300 -55.144800 -9.324400
C -22.085900 -59.583200 -10.448700
N -21.972200 -60.935500 -10.559100
C -21.552500 -57.306300 -10.877900
N -21.304600 -58.655700 -11.059800
O -20.906400 -56.445800 -11.426400
H -20.551500 -59.431600 -12.779400
C -20.248400 -59.060300 -11.992500
H -19.901700 -58.334500 -12.196500
H -19.811500 -59.701100 -11.666600
64
Fragment
H -21.388200 -59.875500 -6.696100
H -20.893400 -57.459400 -7.069700
H -20.890500 -62.110800 -7.057400
C -20.664900 -60.110800 -7.264900
C -20.377100 -61.435500 -7.486600
C -20.173700 -57.708600 -7.637600
C -19.898500 -59.092000 -7.870700
H -19.612300 -55.836000 -8.064200
C -19.414300 -56.753600 -8.219600
C -19.335800 -61.790300 -8.339700
H -19.154900 -62.710100 -8.498700
C -18.836900 -59.472200 -8.725600
C -18.571000 -60.841600 -8.950900
H -18.343300 -50.604400 -8.906700
C -18.323700 -57.104300 -9.062100
H -18.270100 -52.104100 -9.464900
C -18.062600 -58.435700 -9.312100
H -17.862000 -61.099400 -9.526700
C -17.752500 -51.368500 -9.074500
O -17.739300 -54.827700 -9.334100
C -17.454700 -56.074800 -9.641500
H -17.352400 -51.663400 -8.230200
O -17.172500 -48.765700 -9.698900
O -17.050800 -58.830400 -10.106900
H -16.848600 -54.060400 -9.900300
N -16.694500 -50.971500 -10.003600
H -16.592700 -58.163300 -10.329500
O -16.487500 -56.357900 -10.355100
C -16.487100 -49.620500 -10.216400
N -15.991100 -53.235400 -10.539700
C -15.900100 -51.890400 -10.623600
H -15.896800 -47.503400 -11.929800
N -15.429500 -49.283100 -11.084600
H -15.353400 -47.367100 -10.430100
C -15.236800 -47.834400 -11.285000
C -15.006300 -53.686600 -11.302700
C -14.880600 -51.510900 -11.439600
H -14.812500 -54.609000 -11.420200
C -14.573700 -50.163600 -11.754000
H -14.334100 -47.668300 -11.627700
N -14.313700 -52.705300 -11.888200
O -13.674700 -49.754000 -12.495000
H -13.417800 -52.865100 -12.199100
O -24.374900 -57.483800 -8.636400
H -24.266800 -60.747400 -8.682400
H -23.768600 -55.433300 -9.446300
N -23.651100 -60.424300 -9.199900
C -23.447000 -57.896700 -9.356200
H -23.124700 -62.323300 -9.671500
C -23.096000 -59.232200 -9.623800
C -22.945800 -61.399000 -9.791600
H -22.906500 -55.132100 -10.760500
C -22.897000 -55.556100 -9.877300
N -22.620600 -56.989200 -10.027400
H -22.199300 -55.144800 -9.324400
C -22.085900 -59.583200 -10.448700
N -21.972200 -60.935500 -10.559100
C -21.552500 -57.306300 -10.877900
N -21.304600 -58.655700 -11.059800
O -20.906400 -56.445800 -11.426400
H -20.551500 -59.431600 -12.779400
C -20.248400 -59.060300 -11.992500
H -19.901700 -58.334500 -12.196500
H -19.811500 -59.701100 -11.666600
