21
Fragment
H -7.353400 -43.088600 -13.321600
O -6.986200 -40.522900 -12.509600
H -6.905800 -38.839600 -10.056400
N -6.651300 -39.574900 -9.586000
C -6.590900 -41.188200 -11.540900
H -6.468700 -39.072800 -7.641800
H -6.435900 -44.166400 -7.958000
C -6.428400 -40.787900 -10.203700
C -6.403400 -43.066100 -13.083300
C -6.394300 -39.761900 -8.291900
N -6.254000 -42.544300 -11.722200
C -6.054400 -41.639300 -9.209600
H -6.032300 -43.972100 -13.128800
N -6.021000 -41.014600 -7.996500
H -5.923500 -42.484900 -13.710300
C -5.920500 -43.472300 -10.718800
N -5.793600 -42.969900 -9.448700
O -5.758200 -44.654200 -10.985700
C -5.573200 -43.916400 -8.352000
H -5.127000 -44.718200 -8.696000
H -5.011200 -43.497900 -7.667200
16
Fragment
O -5.935700 -50.595100 -16.172700
H -5.907400 -49.161600 -18.076800
H -5.742000 -50.951900 -14.344200
C -5.623100 -49.402000 -16.156500
O -5.598300 -48.659700 -17.251600
O -5.540700 -50.678800 -13.550700
C -5.271000 -48.687400 -14.916500
C -5.262100 -49.358700 -13.691800
H -4.969500 -46.853100 -15.761700
C -4.962100 -47.317100 -14.933400
C -4.954400 -48.658900 -12.519600
H -4.950100 -49.107200 -11.682100
C -4.657200 -47.313200 -12.586700
C -4.653100 -46.638300 -13.797500
H -4.450900 -46.840200 -11.788500
H -4.437600 -45.713100 -13.832900
37
Fragment
H -7.353400 -43.088600 -13.321600
O -6.986200 -40.522900 -12.509600
H -6.905800 -38.839600 -10.056400
N -6.651300 -39.574900 -9.586000
C -6.590900 -41.188200 -11.540900
H -6.468700 -39.072800 -7.641800
H -6.435900 -44.166400 -7.958000
C -6.428400 -40.787900 -10.203700
C -6.403400 -43.066100 -13.083300
C -6.394300 -39.761900 -8.291900
N -6.254000 -42.544300 -11.722200
C -6.054400 -41.639300 -9.209600
H -6.032300 -43.972100 -13.128800
N -6.021000 -41.014600 -7.996500
H -5.923500 -42.484900 -13.710300
C -5.920500 -43.472300 -10.718800
N -5.793600 -42.969900 -9.448700
O -5.758200 -44.654200 -10.985700
C -5.573200 -43.916400 -8.352000
H -5.127000 -44.718200 -8.696000
H -5.011200 -43.497900 -7.667200
O -5.935700 -50.595100 -16.172700
H -5.907400 -49.161600 -18.076800
H -5.742000 -50.951900 -14.344200
C -5.623100 -49.402000 -16.156500
O -5.598300 -48.659700 -17.251600
O -5.540700 -50.678800 -13.550700
C -5.271000 -48.687400 -14.916500
C -5.262100 -49.358700 -13.691800
H -4.969500 -46.853100 -15.761700
C -4.962100 -47.317100 -14.933400
C -4.954400 -48.658900 -12.519600
H -4.950100 -49.107200 -11.682100
C -4.657200 -47.313200 -12.586700
C -4.653100 -46.638300 -13.797500
H -4.450900 -46.840200 -11.788500
H -4.437600 -45.713100 -13.832900
