42
Fragment
H -30.702400 -18.856200 -18.422500
H -30.426200 -18.581400 -21.056300
H -30.347900 -20.182400 -19.251400
H -30.331600 -17.237400 -20.186100
C -29.959700 -19.428900 -18.739300
H -29.824200 -20.368000 -16.928600
C -29.801700 -17.967500 -20.593900
H -29.305100 -16.790600 -22.196300
C -29.200900 -19.953100 -17.576400
O -29.099400 -18.674700 -19.578600
C -28.836100 -17.401100 -21.574200
H -28.729300 -19.211200 -17.121600
O -28.268800 -20.909800 -18.021000
O -28.244500 -18.465800 -22.296200
H -28.136500 -16.885300 -21.099800
H -27.859300 -21.624600 -16.221800
H -27.697200 -17.448200 -23.912700
H -27.369700 -19.826700 -24.197900
C -27.361900 -21.302100 -17.014500
C -27.271600 -18.026800 -23.231200
H -27.046500 -23.121400 -17.877500
H -26.809900 -20.527200 -16.740000
C -26.660200 -19.211000 -23.885000
H -26.573500 -17.499700 -22.768000
C -26.490700 -22.378400 -17.531300
H -26.128700 -18.925000 -24.669800
H -26.033900 -21.745000 -23.610700
H -25.923500 -22.730300 -16.800500
O -25.821700 -19.875800 -22.949900
O -25.675900 -21.868200 -18.566600
H -25.363000 -23.635800 -19.389200
C -25.299700 -21.097100 -23.468700
O -24.994900 -22.011000 -21.312100
H -24.857100 -20.932000 -24.339000
C -24.828100 -22.855100 -19.099200
C -24.320300 -21.647200 -22.500400
H -24.188800 -23.157400 -18.406100
C -24.090400 -22.296600 -20.251400
H -23.872800 -22.439700 -22.889500
H -23.628700 -20.967600 -22.299900
H -23.623400 -21.467600 -19.978900
H -23.410500 -22.947400 -20.559300
42
Fragment
H -27.466300 -23.854100 -25.574000
H -27.253300 -25.333800 -26.154300
H -27.248000 -25.833900 -23.833400
H -27.004000 -24.361700 -23.243800
C -26.786400 -24.504800 -25.881900
H -26.688000 -23.644100 -27.727100
C -26.556500 -25.154200 -23.632900
C -26.048700 -23.946400 -27.034100
H -26.019700 -25.869400 -21.794300
O -25.881900 -24.790400 -24.821200
C -25.577100 -25.704300 -22.664600
H -25.513800 -23.165600 -26.744000
O -25.200900 -24.933300 -27.566700
O -25.055000 -26.925700 -23.183400
H -24.953200 -24.071100 -29.332800
H -24.842900 -25.056500 -22.522600
H -24.748100 -27.876500 -21.463500
C -24.386100 -24.423000 -28.601900
H -24.303300 -29.301700 -23.365200
C -24.216600 -27.590500 -22.248200
H -24.066800 -26.274300 -29.393200
H -23.830300 -23.680100 -28.255800
C -23.605200 -28.774600 -22.902100
C -23.514800 -25.499300 -29.118800
H -23.507100 -26.974800 -21.935300
H -23.179600 -29.353200 -22.220600
H -23.017500 -25.176900 -29.911400
H -22.740300 -29.916200 -25.033500
O -22.632300 -28.335700 -23.837100
O -22.608000 -25.891600 -28.112200
H -22.147500 -27.590200 -29.011700
C -22.040700 -29.400300 -24.559100
O -21.777400 -28.126800 -26.554700
C -21.675900 -26.848300 -28.556900
H -21.571700 -30.010900 -23.936900
C -21.075100 -28.833900 -25.539400
H -21.052600 -26.433400 -29.204700
C -20.917100 -27.372600 -27.393900
H -20.545200 -29.564000 -25.947200
H -20.528900 -26.619100 -26.881900
H -20.450500 -28.220100 -25.077000
H -20.174400 -27.945300 -27.710800
84
Fragment
H -30.702400 -18.856200 -18.422500
H -30.426200 -18.581400 -21.056300
H -30.347900 -20.182400 -19.251400
H -30.331600 -17.237400 -20.186100
C -29.959700 -19.428900 -18.739300
H -29.824200 -20.368000 -16.928600
C -29.801700 -17.967500 -20.593900
H -29.305100 -16.790600 -22.196300
C -29.200900 -19.953100 -17.576400
O -29.099400 -18.674700 -19.578600
C -28.836100 -17.401100 -21.574200
H -28.729300 -19.211200 -17.121600
O -28.268800 -20.909800 -18.021000
O -28.244500 -18.465800 -22.296200
H -28.136500 -16.885300 -21.099800
H -27.859300 -21.624600 -16.221800
H -27.697200 -17.448200 -23.912700
H -27.369700 -19.826700 -24.197900
C -27.361900 -21.302100 -17.014500
C -27.271600 -18.026800 -23.231200
H -27.046500 -23.121400 -17.877500
H -26.809900 -20.527200 -16.740000
C -26.660200 -19.211000 -23.885000
H -26.573500 -17.499700 -22.768000
C -26.490700 -22.378400 -17.531300
H -26.128700 -18.925000 -24.669800
H -26.033900 -21.745000 -23.610700
H -25.923500 -22.730300 -16.800500
O -25.821700 -19.875800 -22.949900
O -25.675900 -21.868200 -18.566600
H -25.363000 -23.635800 -19.389200
C -25.299700 -21.097100 -23.468700
O -24.994900 -22.011000 -21.312100
H -24.857100 -20.932000 -24.339000
C -24.828100 -22.855100 -19.099200
C -24.320300 -21.647200 -22.500400
H -24.188800 -23.157400 -18.406100
C -24.090400 -22.296600 -20.251400
H -23.872800 -22.439700 -22.889500
H -23.628700 -20.967600 -22.299900
H -23.623400 -21.467600 -19.978900
H -23.410500 -22.947400 -20.559300
H -27.466300 -23.854100 -25.574000
H -27.253300 -25.333800 -26.154300
H -27.248000 -25.833900 -23.833400
H -27.004000 -24.361700 -23.243800
C -26.786400 -24.504800 -25.881900
H -26.688000 -23.644100 -27.727100
C -26.556500 -25.154200 -23.632900
C -26.048700 -23.946400 -27.034100
H -26.019700 -25.869400 -21.794300
O -25.881900 -24.790400 -24.821200
C -25.577100 -25.704300 -22.664600
H -25.513800 -23.165600 -26.744000
O -25.200900 -24.933300 -27.566700
O -25.055000 -26.925700 -23.183400
H -24.953200 -24.071100 -29.332800
H -24.842900 -25.056500 -22.522600
H -24.748100 -27.876500 -21.463500
C -24.386100 -24.423000 -28.601900
H -24.303300 -29.301700 -23.365200
C -24.216600 -27.590500 -22.248200
H -24.066800 -26.274300 -29.393200
H -23.830300 -23.680100 -28.255800
C -23.605200 -28.774600 -22.902100
C -23.514800 -25.499300 -29.118800
H -23.507100 -26.974800 -21.935300
H -23.179600 -29.353200 -22.220600
H -23.017500 -25.176900 -29.911400
H -22.740300 -29.916200 -25.033500
O -22.632300 -28.335700 -23.837100
O -22.608000 -25.891600 -28.112200
H -22.147500 -27.590200 -29.011700
C -22.040700 -29.400300 -24.559100
O -21.777400 -28.126800 -26.554700
C -21.675900 -26.848300 -28.556900
H -21.571700 -30.010900 -23.936900
C -21.075100 -28.833900 -25.539400
H -21.052600 -26.433400 -29.204700
C -20.917100 -27.372600 -27.393900
H -20.545200 -29.564000 -25.947200
H -20.528900 -26.619100 -26.881900
H -20.450500 -28.220100 -25.077000
H -20.174400 -27.945300 -27.710800
