42
Fragment
H -30.702400 -18.856200 -18.422500
H -30.426200 -18.581400 -21.056300
H -30.347900 -20.182400 -19.251400
H -30.331600 -17.237400 -20.186100
C -29.959700 -19.428900 -18.739300
H -29.824200 -20.368000 -16.928600
C -29.801700 -17.967500 -20.593900
H -29.305100 -16.790600 -22.196300
C -29.200900 -19.953100 -17.576400
O -29.099400 -18.674700 -19.578600
C -28.836100 -17.401100 -21.574200
H -28.729300 -19.211200 -17.121600
O -28.268800 -20.909800 -18.021000
O -28.244500 -18.465800 -22.296200
H -28.136500 -16.885300 -21.099800
H -27.859300 -21.624600 -16.221800
H -27.697200 -17.448200 -23.912700
H -27.369700 -19.826700 -24.197900
C -27.361900 -21.302100 -17.014500
C -27.271600 -18.026800 -23.231200
H -27.046500 -23.121400 -17.877500
H -26.809900 -20.527200 -16.740000
C -26.660200 -19.211000 -23.885000
H -26.573500 -17.499700 -22.768000
C -26.490700 -22.378400 -17.531300
H -26.128700 -18.925000 -24.669800
H -26.033900 -21.745000 -23.610700
H -25.923500 -22.730300 -16.800500
O -25.821700 -19.875800 -22.949900
O -25.675900 -21.868200 -18.566600
H -25.363000 -23.635800 -19.389200
C -25.299700 -21.097100 -23.468700
O -24.994900 -22.011000 -21.312100
H -24.857100 -20.932000 -24.339000
C -24.828100 -22.855100 -19.099200
C -24.320300 -21.647200 -22.500400
H -24.188800 -23.157400 -18.406100
C -24.090400 -22.296600 -20.251400
H -23.872800 -22.439700 -22.889500
H -23.628700 -20.967600 -22.299900
H -23.623400 -21.467600 -19.978900
H -23.410500 -22.947400 -20.559300
42
Fragment
H -36.334400 -20.816700 -14.040700
H -36.121500 -22.296500 -14.621000
H -36.116200 -22.796500 -12.300100
H -35.872200 -21.324400 -11.710500
C -35.654500 -21.467500 -14.348600
H -35.556200 -20.606700 -16.193800
C -35.424700 -22.116900 -12.099600
C -34.916900 -20.909000 -15.500800
H -34.887800 -22.832100 -10.261000
O -34.750000 -21.753100 -13.287900
C -34.445300 -22.666900 -11.131300
H -34.381900 -20.128200 -15.210700
O -34.069100 -21.895900 -16.033400
O -33.923200 -23.888300 -11.650000
H -33.821400 -21.033700 -17.799500
H -33.711000 -22.019100 -10.989300
H -33.616300 -24.839100 -9.930200
C -33.254300 -21.385700 -17.068600
H -33.171400 -26.264300 -11.831900
C -33.084700 -24.553100 -10.714900
H -32.935000 -23.236900 -17.859900
H -32.698400 -20.642700 -16.722500
C -32.473400 -25.737300 -11.368700
C -32.383000 -22.462000 -17.585400
H -32.375300 -23.937400 -10.402000
H -32.047700 -26.315900 -10.687200
H -31.885600 -22.139500 -18.378100
H -31.608500 -26.878800 -13.500200
O -31.500500 -25.298300 -12.303700
O -31.476200 -22.854300 -16.578900
H -31.015600 -24.552900 -17.478400
C -30.908800 -26.363000 -13.025700
O -30.645600 -25.089400 -15.021300
C -30.544100 -23.811000 -17.023500
H -30.439800 -26.973500 -12.403600
C -29.943300 -25.796500 -14.006100
H -29.920700 -23.396100 -17.671400
C -29.785200 -24.335200 -15.860600
H -29.413400 -26.526600 -14.413900
H -29.397100 -23.581700 -15.348500
H -29.318700 -25.182700 -13.543700
H -29.042600 -24.907900 -16.177400
84
Fragment
H -30.702400 -18.856200 -18.422500
H -30.426200 -18.581400 -21.056300
H -30.347900 -20.182400 -19.251400
H -30.331600 -17.237400 -20.186100
C -29.959700 -19.428900 -18.739300
H -29.824200 -20.368000 -16.928600
C -29.801700 -17.967500 -20.593900
H -29.305100 -16.790600 -22.196300
C -29.200900 -19.953100 -17.576400
O -29.099400 -18.674700 -19.578600
C -28.836100 -17.401100 -21.574200
H -28.729300 -19.211200 -17.121600
O -28.268800 -20.909800 -18.021000
O -28.244500 -18.465800 -22.296200
H -28.136500 -16.885300 -21.099800
H -27.859300 -21.624600 -16.221800
H -27.697200 -17.448200 -23.912700
H -27.369700 -19.826700 -24.197900
C -27.361900 -21.302100 -17.014500
C -27.271600 -18.026800 -23.231200
H -27.046500 -23.121400 -17.877500
H -26.809900 -20.527200 -16.740000
C -26.660200 -19.211000 -23.885000
H -26.573500 -17.499700 -22.768000
C -26.490700 -22.378400 -17.531300
H -26.128700 -18.925000 -24.669800
H -26.033900 -21.745000 -23.610700
H -25.923500 -22.730300 -16.800500
O -25.821700 -19.875800 -22.949900
O -25.675900 -21.868200 -18.566600
H -25.363000 -23.635800 -19.389200
C -25.299700 -21.097100 -23.468700
O -24.994900 -22.011000 -21.312100
H -24.857100 -20.932000 -24.339000
C -24.828100 -22.855100 -19.099200
C -24.320300 -21.647200 -22.500400
H -24.188800 -23.157400 -18.406100
C -24.090400 -22.296600 -20.251400
H -23.872800 -22.439700 -22.889500
H -23.628700 -20.967600 -22.299900
H -23.623400 -21.467600 -19.978900
H -23.410500 -22.947400 -20.559300
H -36.334400 -20.816700 -14.040700
H -36.121500 -22.296500 -14.621000
H -36.116200 -22.796500 -12.300100
H -35.872200 -21.324400 -11.710500
C -35.654500 -21.467500 -14.348600
H -35.556200 -20.606700 -16.193800
C -35.424700 -22.116900 -12.099600
C -34.916900 -20.909000 -15.500800
H -34.887800 -22.832100 -10.261000
O -34.750000 -21.753100 -13.287900
C -34.445300 -22.666900 -11.131300
H -34.381900 -20.128200 -15.210700
O -34.069100 -21.895900 -16.033400
O -33.923200 -23.888300 -11.650000
H -33.821400 -21.033700 -17.799500
H -33.711000 -22.019100 -10.989300
H -33.616300 -24.839100 -9.930200
C -33.254300 -21.385700 -17.068600
H -33.171400 -26.264300 -11.831900
C -33.084700 -24.553100 -10.714900
H -32.935000 -23.236900 -17.859900
H -32.698400 -20.642700 -16.722500
C -32.473400 -25.737300 -11.368700
C -32.383000 -22.462000 -17.585400
H -32.375300 -23.937400 -10.402000
H -32.047700 -26.315900 -10.687200
H -31.885600 -22.139500 -18.378100
H -31.608500 -26.878800 -13.500200
O -31.500500 -25.298300 -12.303700
O -31.476200 -22.854300 -16.578900
H -31.015600 -24.552900 -17.478400
C -30.908800 -26.363000 -13.025700
O -30.645600 -25.089400 -15.021300
C -30.544100 -23.811000 -17.023500
H -30.439800 -26.973500 -12.403600
C -29.943300 -25.796500 -14.006100
H -29.920700 -23.396100 -17.671400
C -29.785200 -24.335200 -15.860600
H -29.413400 -26.526600 -14.413900
H -29.397100 -23.581700 -15.348500
H -29.318700 -25.182700 -13.543700
H -29.042600 -24.907900 -16.177400
