42
Fragment
H -31.004500 -16.562500 -19.560200
H -30.854100 -18.018200 -20.133200
H -30.785900 -18.542400 -17.824700
H -30.514600 -17.104100 -17.251400
C -30.366100 -17.218700 -19.880400
H -30.282300 -16.382500 -21.723000
C -30.095000 -17.886800 -17.642100
C -29.644200 -16.681400 -21.056200
H -29.527700 -18.618900 -15.835300
O -29.439600 -17.528200 -18.851300
H -29.106200 -15.919800 -20.789400
C -29.105000 -18.451600 -16.692000
O -28.814200 -17.679400 -21.607300
O -28.592800 -19.670300 -17.225500
H -28.591600 -16.839800 -23.373100
H -28.380700 -17.821000 -16.556400
H -28.272800 -20.633300 -15.530000
C -28.020100 -17.170100 -22.662000
H -27.826100 -22.044700 -17.418400
C -27.752300 -20.345300 -16.296400
H -27.679700 -19.012200 -23.441200
H -27.479500 -16.432400 -22.339400
C -27.142800 -18.247500 -23.181700
C -27.139600 -21.528200 -16.967300
H -27.056900 -19.745700 -15.984500
H -26.713300 -22.097900 -16.308400
H -26.664400 -17.932300 -23.964600
H -26.265700 -22.652400 -19.087900
O -26.225300 -18.625000 -22.181400
O -26.179300 -21.073200 -17.908800
H -25.742500 -20.302100 -23.083600
C -25.581000 -22.135500 -18.634900
O -25.362900 -20.855200 -20.631500
C -25.283600 -19.573600 -22.636800
H -25.106500 -22.724400 -18.027800
H -24.681800 -19.158300 -23.273700
C -24.632900 -21.564100 -19.633400
C -24.512300 -20.099400 -21.490800
H -24.121500 -19.361700 -20.995800
H -24.121200 -22.277900 -20.045100
H -24.013500 -20.963100 -19.190300
H -23.791400 -20.661800 -21.813700
18
Fragment
H -32.618000 -23.155800 -13.885000
F -32.305200 -22.220300 -11.641800
N -31.800000 -23.073800 -14.205200
H -31.589000 -23.460900 -14.972700
H -31.285000 -21.668900 -9.698900
C -31.019800 -22.326500 -12.059100
C -30.806500 -22.756100 -13.353900
N -30.413600 -21.618600 -9.898400
C -30.031400 -21.994800 -11.140700
H -29.757700 -21.477900 -9.332900
C -29.457200 -22.806600 -13.750500
F -29.187200 -23.182900 -15.019200
C -28.682800 -22.087700 -11.580800
C -28.440000 -22.492600 -12.914400
O -27.836400 -21.435600 -9.544400
N -27.607300 -21.812000 -10.701300
F -27.202800 -22.586000 -13.414100
O -26.452800 -21.951100 -11.086200
60
Fragment
H -31.004500 -16.562500 -19.560200
H -30.854100 -18.018200 -20.133200
H -30.785900 -18.542400 -17.824700
H -30.514600 -17.104100 -17.251400
C -30.366100 -17.218700 -19.880400
H -30.282300 -16.382500 -21.723000
C -30.095000 -17.886800 -17.642100
C -29.644200 -16.681400 -21.056200
H -29.527700 -18.618900 -15.835300
O -29.439600 -17.528200 -18.851300
H -29.106200 -15.919800 -20.789400
C -29.105000 -18.451600 -16.692000
O -28.814200 -17.679400 -21.607300
O -28.592800 -19.670300 -17.225500
H -28.591600 -16.839800 -23.373100
H -28.380700 -17.821000 -16.556400
H -28.272800 -20.633300 -15.530000
C -28.020100 -17.170100 -22.662000
H -27.826100 -22.044700 -17.418400
C -27.752300 -20.345300 -16.296400
H -27.679700 -19.012200 -23.441200
H -27.479500 -16.432400 -22.339400
C -27.142800 -18.247500 -23.181700
C -27.139600 -21.528200 -16.967300
H -27.056900 -19.745700 -15.984500
H -26.713300 -22.097900 -16.308400
H -26.664400 -17.932300 -23.964600
H -26.265700 -22.652400 -19.087900
O -26.225300 -18.625000 -22.181400
O -26.179300 -21.073200 -17.908800
H -25.742500 -20.302100 -23.083600
C -25.581000 -22.135500 -18.634900
O -25.362900 -20.855200 -20.631500
C -25.283600 -19.573600 -22.636800
H -25.106500 -22.724400 -18.027800
H -24.681800 -19.158300 -23.273700
C -24.632900 -21.564100 -19.633400
C -24.512300 -20.099400 -21.490800
H -24.121500 -19.361700 -20.995800
H -24.121200 -22.277900 -20.045100
H -24.013500 -20.963100 -19.190300
H -23.791400 -20.661800 -21.813700
H -32.618000 -23.155800 -13.885000
F -32.305200 -22.220300 -11.641800
N -31.800000 -23.073800 -14.205200
H -31.589000 -23.460900 -14.972700
H -31.285000 -21.668900 -9.698900
C -31.019800 -22.326500 -12.059100
C -30.806500 -22.756100 -13.353900
N -30.413600 -21.618600 -9.898400
C -30.031400 -21.994800 -11.140700
H -29.757700 -21.477900 -9.332900
C -29.457200 -22.806600 -13.750500
F -29.187200 -23.182900 -15.019200
C -28.682800 -22.087700 -11.580800
C -28.440000 -22.492600 -12.914400
O -27.836400 -21.435600 -9.544400
N -27.607300 -21.812000 -10.701300
F -27.202800 -22.586000 -13.414100
O -26.452800 -21.951100 -11.086200
