42
Fragment
H -31.004500 -16.562500 -19.560200
H -30.854100 -18.018200 -20.133200
H -30.785900 -18.542400 -17.824700
H -30.514600 -17.104100 -17.251400
C -30.366100 -17.218700 -19.880400
H -30.282300 -16.382500 -21.723000
C -30.095000 -17.886800 -17.642100
C -29.644200 -16.681400 -21.056200
H -29.527700 -18.618900 -15.835300
O -29.439600 -17.528200 -18.851300
H -29.106200 -15.919800 -20.789400
C -29.105000 -18.451600 -16.692000
O -28.814200 -17.679400 -21.607300
O -28.592800 -19.670300 -17.225500
H -28.591600 -16.839800 -23.373100
H -28.380700 -17.821000 -16.556400
H -28.272800 -20.633300 -15.530000
C -28.020100 -17.170100 -22.662000
H -27.826100 -22.044700 -17.418400
C -27.752300 -20.345300 -16.296400
H -27.679700 -19.012200 -23.441200
H -27.479500 -16.432400 -22.339400
C -27.142800 -18.247500 -23.181700
C -27.139600 -21.528200 -16.967300
H -27.056900 -19.745700 -15.984500
H -26.713300 -22.097900 -16.308400
H -26.664400 -17.932300 -23.964600
H -26.265700 -22.652400 -19.087900
O -26.225300 -18.625000 -22.181400
O -26.179300 -21.073200 -17.908800
H -25.742500 -20.302100 -23.083600
C -25.581000 -22.135500 -18.634900
O -25.362900 -20.855200 -20.631500
C -25.283600 -19.573600 -22.636800
H -25.106500 -22.724400 -18.027800
H -24.681800 -19.158300 -23.273700
C -24.632900 -21.564100 -19.633400
C -24.512300 -20.099400 -21.490800
H -24.121500 -19.361700 -20.995800
H -24.121200 -22.277900 -20.045100
H -24.013500 -20.963100 -19.190300
H -23.791400 -20.661800 -21.813700
18
Fragment
O -31.184100 -18.777600 -11.788500
F -30.434200 -18.142700 -9.460700
N -30.029700 -18.916600 -12.173500
O -29.800500 -19.293000 -13.330400
C -29.197000 -18.236100 -9.960400
C -28.954200 -18.641000 -11.293900
F -28.449700 -17.545700 -7.855500
C -28.179700 -17.922100 -9.124300
H -27.879200 -19.250700 -13.541800
C -27.605500 -18.733900 -11.734100
N -27.223400 -19.110100 -12.976400
C -26.830500 -17.972500 -9.520800
C -26.617100 -18.402100 -10.815600
H -26.351900 -19.059800 -13.175900
H -26.047900 -17.267700 -7.902100
N -25.836900 -17.654900 -8.669500
F -25.331700 -18.508300 -11.233000
H -25.019000 -17.572800 -8.989800
60
Fragment
H -31.004500 -16.562500 -19.560200
H -30.854100 -18.018200 -20.133200
H -30.785900 -18.542400 -17.824700
H -30.514600 -17.104100 -17.251400
C -30.366100 -17.218700 -19.880400
H -30.282300 -16.382500 -21.723000
C -30.095000 -17.886800 -17.642100
C -29.644200 -16.681400 -21.056200
H -29.527700 -18.618900 -15.835300
O -29.439600 -17.528200 -18.851300
H -29.106200 -15.919800 -20.789400
C -29.105000 -18.451600 -16.692000
O -28.814200 -17.679400 -21.607300
O -28.592800 -19.670300 -17.225500
H -28.591600 -16.839800 -23.373100
H -28.380700 -17.821000 -16.556400
H -28.272800 -20.633300 -15.530000
C -28.020100 -17.170100 -22.662000
H -27.826100 -22.044700 -17.418400
C -27.752300 -20.345300 -16.296400
H -27.679700 -19.012200 -23.441200
H -27.479500 -16.432400 -22.339400
C -27.142800 -18.247500 -23.181700
C -27.139600 -21.528200 -16.967300
H -27.056900 -19.745700 -15.984500
H -26.713300 -22.097900 -16.308400
H -26.664400 -17.932300 -23.964600
H -26.265700 -22.652400 -19.087900
O -26.225300 -18.625000 -22.181400
O -26.179300 -21.073200 -17.908800
H -25.742500 -20.302100 -23.083600
C -25.581000 -22.135500 -18.634900
O -25.362900 -20.855200 -20.631500
C -25.283600 -19.573600 -22.636800
H -25.106500 -22.724400 -18.027800
H -24.681800 -19.158300 -23.273700
C -24.632900 -21.564100 -19.633400
C -24.512300 -20.099400 -21.490800
H -24.121500 -19.361700 -20.995800
H -24.121200 -22.277900 -20.045100
H -24.013500 -20.963100 -19.190300
H -23.791400 -20.661800 -21.813700
O -31.184100 -18.777600 -11.788500
F -30.434200 -18.142700 -9.460700
N -30.029700 -18.916600 -12.173500
O -29.800500 -19.293000 -13.330400
C -29.197000 -18.236100 -9.960400
C -28.954200 -18.641000 -11.293900
F -28.449700 -17.545700 -7.855500
C -28.179700 -17.922100 -9.124300
H -27.879200 -19.250700 -13.541800
C -27.605500 -18.733900 -11.734100
N -27.223400 -19.110100 -12.976400
C -26.830500 -17.972500 -9.520800
C -26.617100 -18.402100 -10.815600
H -26.351900 -19.059800 -13.175900
H -26.047900 -17.267700 -7.902100
N -25.836900 -17.654900 -8.669500
F -25.331700 -18.508300 -11.233000
H -25.019000 -17.572800 -8.989800
