42
Fragment
H -30.702400 -18.856200 -18.422500
H -30.426200 -18.581400 -21.056300
H -30.347900 -20.182400 -19.251400
H -30.331600 -17.237400 -20.186100
C -29.959700 -19.428900 -18.739300
H -29.824200 -20.368000 -16.928600
C -29.801700 -17.967500 -20.593900
H -29.305100 -16.790600 -22.196300
C -29.200900 -19.953100 -17.576400
O -29.099400 -18.674700 -19.578600
C -28.836100 -17.401100 -21.574200
H -28.729300 -19.211200 -17.121600
O -28.268800 -20.909800 -18.021000
O -28.244500 -18.465800 -22.296200
H -28.136500 -16.885300 -21.099800
H -27.859300 -21.624600 -16.221800
H -27.697200 -17.448200 -23.912700
H -27.369700 -19.826700 -24.197900
C -27.361900 -21.302100 -17.014500
C -27.271600 -18.026800 -23.231200
H -27.046500 -23.121400 -17.877500
H -26.809900 -20.527200 -16.740000
C -26.660200 -19.211000 -23.885000
H -26.573500 -17.499700 -22.768000
C -26.490700 -22.378400 -17.531300
H -26.128700 -18.925000 -24.669800
H -26.033900 -21.745000 -23.610700
H -25.923500 -22.730300 -16.800500
O -25.821700 -19.875800 -22.949900
O -25.675900 -21.868200 -18.566600
H -25.363000 -23.635800 -19.389200
C -25.299700 -21.097100 -23.468700
O -24.994900 -22.011000 -21.312100
H -24.857100 -20.932000 -24.339000
C -24.828100 -22.855100 -19.099200
C -24.320300 -21.647200 -22.500400
H -24.188800 -23.157400 -18.406100
C -24.090400 -22.296600 -20.251400
H -23.872800 -22.439700 -22.889500
H -23.628700 -20.967600 -22.299900
H -23.623400 -21.467600 -19.978900
H -23.410500 -22.947400 -20.559300
18
Fragment
O -21.946300 -24.715500 -21.308700
N -20.855900 -25.046000 -20.822700
H -20.851000 -22.676600 -21.823600
O -20.726500 -26.129700 -20.224100
C -19.979200 -22.915700 -21.531400
C -19.746600 -24.177700 -20.952500
F -19.169700 -20.835900 -22.241100
C -18.957700 -22.050800 -21.668200
H -18.816700 -26.293400 -19.756600
C -18.449400 -24.553300 -20.531500
N -18.122100 -25.748000 -19.982200
C -17.632200 -22.341700 -21.271400
C -17.456500 -23.596300 -20.732000
H -17.321500 -25.833100 -19.627400
H -16.852200 -20.687600 -21.738000
N -16.624400 -21.463100 -21.429400
F -16.198000 -23.937200 -20.351000
H -15.829700 -21.636900 -21.106000
60
Fragment
H -30.702400 -18.856200 -18.422500
H -30.426200 -18.581400 -21.056300
H -30.347900 -20.182400 -19.251400
H -30.331600 -17.237400 -20.186100
C -29.959700 -19.428900 -18.739300
H -29.824200 -20.368000 -16.928600
C -29.801700 -17.967500 -20.593900
H -29.305100 -16.790600 -22.196300
C -29.200900 -19.953100 -17.576400
O -29.099400 -18.674700 -19.578600
C -28.836100 -17.401100 -21.574200
H -28.729300 -19.211200 -17.121600
O -28.268800 -20.909800 -18.021000
O -28.244500 -18.465800 -22.296200
H -28.136500 -16.885300 -21.099800
H -27.859300 -21.624600 -16.221800
H -27.697200 -17.448200 -23.912700
H -27.369700 -19.826700 -24.197900
C -27.361900 -21.302100 -17.014500
C -27.271600 -18.026800 -23.231200
H -27.046500 -23.121400 -17.877500
H -26.809900 -20.527200 -16.740000
C -26.660200 -19.211000 -23.885000
H -26.573500 -17.499700 -22.768000
C -26.490700 -22.378400 -17.531300
H -26.128700 -18.925000 -24.669800
H -26.033900 -21.745000 -23.610700
H -25.923500 -22.730300 -16.800500
O -25.821700 -19.875800 -22.949900
O -25.675900 -21.868200 -18.566600
H -25.363000 -23.635800 -19.389200
C -25.299700 -21.097100 -23.468700
O -24.994900 -22.011000 -21.312100
H -24.857100 -20.932000 -24.339000
C -24.828100 -22.855100 -19.099200
C -24.320300 -21.647200 -22.500400
H -24.188800 -23.157400 -18.406100
C -24.090400 -22.296600 -20.251400
H -23.872800 -22.439700 -22.889500
H -23.628700 -20.967600 -22.299900
H -23.623400 -21.467600 -19.978900
H -23.410500 -22.947400 -20.559300
O -21.946300 -24.715500 -21.308700
N -20.855900 -25.046000 -20.822700
H -20.851000 -22.676600 -21.823600
O -20.726500 -26.129700 -20.224100
C -19.979200 -22.915700 -21.531400
C -19.746600 -24.177700 -20.952500
F -19.169700 -20.835900 -22.241100
C -18.957700 -22.050800 -21.668200
H -18.816700 -26.293400 -19.756600
C -18.449400 -24.553300 -20.531500
N -18.122100 -25.748000 -19.982200
C -17.632200 -22.341700 -21.271400
C -17.456500 -23.596300 -20.732000
H -17.321500 -25.833100 -19.627400
H -16.852200 -20.687600 -21.738000
N -16.624400 -21.463100 -21.429400
F -16.198000 -23.937200 -20.351000
H -15.829700 -21.636900 -21.106000
