42
Fragment
H -10.028500 -17.338300 -22.703800
H -9.750600 -15.592100 -24.118400
H -9.213800 -19.384200 -21.730200
C -9.126900 -16.987900 -22.778400
H -9.008200 -16.798500 -24.799200
C -8.999800 -16.200300 -24.035200
H -8.962300 -16.412500 -22.015600
H -8.403000 -18.372200 -20.841800
H -8.399200 -14.079300 -25.272300
C -8.374700 -18.904600 -21.652500
O -8.200500 -18.057200 -22.776400
O -7.791700 -15.468300 -24.015900
C -7.631900 -14.663700 -25.168700
H -7.567900 -15.225100 -25.956900
H -7.418100 -20.524600 -20.885600
C -7.247300 -19.870100 -21.580400
H -7.162000 -20.339900 -22.425600
H -6.405200 -13.375600 -24.177700
C -6.391400 -13.849500 -25.023000
H -6.340500 -13.196100 -25.738400
O -6.044400 -19.168900 -21.296900
O -5.266700 -14.707300 -25.075700
H -4.957100 -20.630400 -20.555500
C -4.912800 -20.017000 -21.305800
H -4.901500 -20.539700 -22.123300
H -4.111100 -13.537800 -23.982500
C -4.046900 -14.016300 -24.824200
H -3.888200 -13.368300 -25.528500
H -3.731600 -18.591500 -20.462700
C -3.670600 -19.200600 -21.214700
O -3.502400 -18.468300 -22.412200
O -3.094600 -15.844100 -23.649500
C -2.922000 -14.977400 -24.767400
H -2.905200 -19.780600 -21.074300
H -2.894000 -15.498400 -25.585300
H -2.412100 -17.511400 -24.447000
C -2.294000 -17.730300 -22.428100
H -2.267400 -17.131100 -21.665900
C -2.197100 -16.942600 -23.690500
H -2.083700 -14.497200 -24.684300
H -1.539900 -18.337300 -22.362200
H -1.289900 -16.619300 -23.804400
42
Fragment
H -2.999700 -11.814900 -22.703800
H -2.721800 -10.068700 -24.118400
H -2.185000 -13.860800 -21.730200
C -2.098100 -11.464500 -22.778400
H -1.979400 -11.275000 -24.799200
C -1.971000 -10.676800 -24.035200
H -1.933500 -10.889000 -22.015600
H -1.374200 -12.848800 -20.841800
H -1.370400 -8.555800 -25.272300
C -1.345900 -13.381100 -21.652500
O -1.171700 -12.533700 -22.776400
O -0.762900 -9.944900 -24.015900
C -0.603100 -9.140200 -25.168700
H -0.539100 -9.701600 -25.956900
H -0.389300 -15.001100 -20.885600
C -0.218500 -14.346600 -21.580400
H -0.133200 -14.816400 -22.425600
H 0.623600 -7.852100 -24.177700
C 0.637400 -8.326000 -25.023000
H 0.688300 -7.672600 -25.738400
O 0.984400 -13.645500 -21.296900
O 1.762100 -9.183800 -25.075700
H 2.071700 -15.107000 -20.555500
C 2.116000 -14.493500 -21.305800
H 2.127300 -15.016300 -22.123300
H 2.917700 -8.014300 -23.982500
C 2.981900 -8.492900 -24.824200
H 3.140600 -7.844800 -25.528500
H 3.297200 -13.068000 -20.462700
C 3.358200 -13.677200 -21.214700
O 3.526400 -12.944900 -22.412200
O 3.934200 -10.320700 -23.649500
C 4.106800 -9.453900 -24.767400
H 4.123600 -14.257100 -21.074300
H 4.134800 -9.974900 -25.585300
H 4.616700 -11.988000 -24.447000
C 4.734800 -12.206800 -22.428100
H 4.761400 -11.607600 -21.665900
C 4.831700 -11.419200 -23.690500
H 4.945100 -8.973700 -24.684300
H 5.488900 -12.813900 -22.362200
H 5.738900 -11.095800 -23.804400
84
Fragment
H -10.028500 -17.338300 -22.703800
H -9.750600 -15.592100 -24.118400
H -9.213800 -19.384200 -21.730200
C -9.126900 -16.987900 -22.778400
H -9.008200 -16.798500 -24.799200
C -8.999800 -16.200300 -24.035200
H -8.962300 -16.412500 -22.015600
H -8.403000 -18.372200 -20.841800
H -8.399200 -14.079300 -25.272300
C -8.374700 -18.904600 -21.652500
O -8.200500 -18.057200 -22.776400
O -7.791700 -15.468300 -24.015900
C -7.631900 -14.663700 -25.168700
H -7.567900 -15.225100 -25.956900
H -7.418100 -20.524600 -20.885600
C -7.247300 -19.870100 -21.580400
H -7.162000 -20.339900 -22.425600
H -6.405200 -13.375600 -24.177700
C -6.391400 -13.849500 -25.023000
H -6.340500 -13.196100 -25.738400
O -6.044400 -19.168900 -21.296900
O -5.266700 -14.707300 -25.075700
H -4.957100 -20.630400 -20.555500
C -4.912800 -20.017000 -21.305800
H -4.901500 -20.539700 -22.123300
H -4.111100 -13.537800 -23.982500
C -4.046900 -14.016300 -24.824200
H -3.888200 -13.368300 -25.528500
H -3.731600 -18.591500 -20.462700
C -3.670600 -19.200600 -21.214700
O -3.502400 -18.468300 -22.412200
O -3.094600 -15.844100 -23.649500
C -2.922000 -14.977400 -24.767400
H -2.905200 -19.780600 -21.074300
H -2.894000 -15.498400 -25.585300
H -2.412100 -17.511400 -24.447000
C -2.294000 -17.730300 -22.428100
H -2.267400 -17.131100 -21.665900
C -2.197100 -16.942600 -23.690500
H -2.083700 -14.497200 -24.684300
H -1.539900 -18.337300 -22.362200
H -1.289900 -16.619300 -23.804400
H -2.999700 -11.814900 -22.703800
H -2.721800 -10.068700 -24.118400
H -2.185000 -13.860800 -21.730200
C -2.098100 -11.464500 -22.778400
H -1.979400 -11.275000 -24.799200
C -1.971000 -10.676800 -24.035200
H -1.933500 -10.889000 -22.015600
H -1.374200 -12.848800 -20.841800
H -1.370400 -8.555800 -25.272300
C -1.345900 -13.381100 -21.652500
O -1.171700 -12.533700 -22.776400
O -0.762900 -9.944900 -24.015900
C -0.603100 -9.140200 -25.168700
H -0.539100 -9.701600 -25.956900
H -0.389300 -15.001100 -20.885600
C -0.218500 -14.346600 -21.580400
H -0.133200 -14.816400 -22.425600
H 0.623600 -7.852100 -24.177700
C 0.637400 -8.326000 -25.023000
H 0.688300 -7.672600 -25.738400
O 0.984400 -13.645500 -21.296900
O 1.762100 -9.183800 -25.075700
H 2.071700 -15.107000 -20.555500
C 2.116000 -14.493500 -21.305800
H 2.127300 -15.016300 -22.123300
H 2.917700 -8.014300 -23.982500
C 2.981900 -8.492900 -24.824200
H 3.140600 -7.844800 -25.528500
H 3.297200 -13.068000 -20.462700
C 3.358200 -13.677200 -21.214700
O 3.526400 -12.944900 -22.412200
O 3.934200 -10.320700 -23.649500
C 4.106800 -9.453900 -24.767400
H 4.123600 -14.257100 -21.074300
H 4.134800 -9.974900 -25.585300
H 4.616700 -11.988000 -24.447000
C 4.734800 -12.206800 -22.428100
H 4.761400 -11.607600 -21.665900
C 4.831700 -11.419200 -23.690500
H 4.945100 -8.973700 -24.684300
H 5.488900 -12.813900 -22.362200
H 5.738900 -11.095800 -23.804400
