42
Fragment
H -10.028500 -17.338300 -22.703800
H -9.750600 -15.592100 -24.118400
H -9.213800 -19.384200 -21.730200
C -9.126900 -16.987900 -22.778400
H -9.008200 -16.798500 -24.799200
C -8.999800 -16.200300 -24.035200
H -8.962300 -16.412500 -22.015600
H -8.403000 -18.372200 -20.841800
H -8.399200 -14.079300 -25.272300
C -8.374700 -18.904600 -21.652500
O -8.200500 -18.057200 -22.776400
O -7.791700 -15.468300 -24.015900
C -7.631900 -14.663700 -25.168700
H -7.567900 -15.225100 -25.956900
H -7.418100 -20.524600 -20.885600
C -7.247300 -19.870100 -21.580400
H -7.162000 -20.339900 -22.425600
H -6.405200 -13.375600 -24.177700
C -6.391400 -13.849500 -25.023000
H -6.340500 -13.196100 -25.738400
O -6.044400 -19.168900 -21.296900
O -5.266700 -14.707300 -25.075700
H -4.957100 -20.630400 -20.555500
C -4.912800 -20.017000 -21.305800
H -4.901500 -20.539700 -22.123300
H -4.111100 -13.537800 -23.982500
C -4.046900 -14.016300 -24.824200
H -3.888200 -13.368300 -25.528500
H -3.731600 -18.591500 -20.462700
C -3.670600 -19.200600 -21.214700
O -3.502400 -18.468300 -22.412200
O -3.094600 -15.844100 -23.649500
C -2.922000 -14.977400 -24.767400
H -2.905200 -19.780600 -21.074300
H -2.894000 -15.498400 -25.585300
H -2.412100 -17.511400 -24.447000
C -2.294000 -17.730300 -22.428100
H -2.267400 -17.131100 -21.665900
C -2.197100 -16.942600 -23.690500
H -2.083700 -14.497200 -24.684300
H -1.539900 -18.337300 -22.362200
H -1.289900 -16.619300 -23.804400
18
Fragment
O -2.069500 -18.250600 -17.703600
H -2.002400 -20.226900 -17.612400
N -1.657200 -20.823400 -18.179300
H -1.610900 -21.704900 -18.074700
N -1.157900 -17.933600 -18.479100
O -0.830700 -16.752700 -18.639400
C -0.753800 -20.316100 -19.049200
C -0.479100 -18.928900 -19.210500
H -0.239000 -22.100600 -19.821000
C -0.049600 -21.192200 -19.882600
C 0.497500 -18.509100 -20.120700
H 0.683100 -17.602600 -20.215100
C 0.907800 -20.791400 -20.789300
C 1.163100 -19.402800 -20.853200
H 1.270600 -22.498100 -21.563600
N 1.611900 -21.657400 -21.555400
H 2.113300 -21.254200 -22.173100
F 2.132000 -18.987500 -21.711500
60
Fragment
H -10.028500 -17.338300 -22.703800
H -9.750600 -15.592100 -24.118400
H -9.213800 -19.384200 -21.730200
C -9.126900 -16.987900 -22.778400
H -9.008200 -16.798500 -24.799200
C -8.999800 -16.200300 -24.035200
H -8.962300 -16.412500 -22.015600
H -8.403000 -18.372200 -20.841800
H -8.399200 -14.079300 -25.272300
C -8.374700 -18.904600 -21.652500
O -8.200500 -18.057200 -22.776400
O -7.791700 -15.468300 -24.015900
C -7.631900 -14.663700 -25.168700
H -7.567900 -15.225100 -25.956900
H -7.418100 -20.524600 -20.885600
C -7.247300 -19.870100 -21.580400
H -7.162000 -20.339900 -22.425600
H -6.405200 -13.375600 -24.177700
C -6.391400 -13.849500 -25.023000
H -6.340500 -13.196100 -25.738400
O -6.044400 -19.168900 -21.296900
O -5.266700 -14.707300 -25.075700
H -4.957100 -20.630400 -20.555500
C -4.912800 -20.017000 -21.305800
H -4.901500 -20.539700 -22.123300
H -4.111100 -13.537800 -23.982500
C -4.046900 -14.016300 -24.824200
H -3.888200 -13.368300 -25.528500
H -3.731600 -18.591500 -20.462700
C -3.670600 -19.200600 -21.214700
O -3.502400 -18.468300 -22.412200
O -3.094600 -15.844100 -23.649500
C -2.922000 -14.977400 -24.767400
H -2.905200 -19.780600 -21.074300
H -2.894000 -15.498400 -25.585300
H -2.412100 -17.511400 -24.447000
C -2.294000 -17.730300 -22.428100
H -2.267400 -17.131100 -21.665900
C -2.197100 -16.942600 -23.690500
H -2.083700 -14.497200 -24.684300
H -1.539900 -18.337300 -22.362200
H -1.289900 -16.619300 -23.804400
O -2.069500 -18.250600 -17.703600
H -2.002400 -20.226900 -17.612400
N -1.657200 -20.823400 -18.179300
H -1.610900 -21.704900 -18.074700
N -1.157900 -17.933600 -18.479100
O -0.830700 -16.752700 -18.639400
C -0.753800 -20.316100 -19.049200
C -0.479100 -18.928900 -19.210500
H -0.239000 -22.100600 -19.821000
C -0.049600 -21.192200 -19.882600
C 0.497500 -18.509100 -20.120700
H 0.683100 -17.602600 -20.215100
C 0.907800 -20.791400 -20.789300
C 1.163100 -19.402800 -20.853200
H 1.270600 -22.498100 -21.563600
N 1.611900 -21.657400 -21.555400
H 2.113300 -21.254200 -22.173100
F 2.132000 -18.987500 -21.711500
