42
Fragment
H -10.028500 -17.338300 -22.703800
H -9.750600 -15.592100 -24.118400
H -9.213800 -19.384200 -21.730200
C -9.126900 -16.987900 -22.778400
H -9.008200 -16.798500 -24.799200
C -8.999800 -16.200300 -24.035200
H -8.962300 -16.412500 -22.015600
H -8.403000 -18.372200 -20.841800
H -8.399200 -14.079300 -25.272300
C -8.374700 -18.904600 -21.652500
O -8.200500 -18.057200 -22.776400
O -7.791700 -15.468300 -24.015900
C -7.631900 -14.663700 -25.168700
H -7.567900 -15.225100 -25.956900
H -7.418100 -20.524600 -20.885600
C -7.247300 -19.870100 -21.580400
H -7.162000 -20.339900 -22.425600
H -6.405200 -13.375600 -24.177700
C -6.391400 -13.849500 -25.023000
H -6.340500 -13.196100 -25.738400
O -6.044400 -19.168900 -21.296900
O -5.266700 -14.707300 -25.075700
H -4.957100 -20.630400 -20.555500
C -4.912800 -20.017000 -21.305800
H -4.901500 -20.539700 -22.123300
H -4.111100 -13.537800 -23.982500
C -4.046900 -14.016300 -24.824200
H -3.888200 -13.368300 -25.528500
H -3.731600 -18.591500 -20.462700
C -3.670600 -19.200600 -21.214700
O -3.502400 -18.468300 -22.412200
O -3.094600 -15.844100 -23.649500
C -2.922000 -14.977400 -24.767400
H -2.905200 -19.780600 -21.074300
H -2.894000 -15.498400 -25.585300
H -2.412100 -17.511400 -24.447000
C -2.294000 -17.730300 -22.428100
H -2.267400 -17.131100 -21.665900
C -2.197100 -16.942600 -23.690500
H -2.083700 -14.497200 -24.684300
H -1.539900 -18.337300 -22.362200
H -1.289900 -16.619300 -23.804400
42
Fragment
H -7.291100 -15.802400 -29.709500
H -7.013100 -17.548600 -31.124100
H -6.476300 -13.756500 -28.735900
C -6.389400 -16.152800 -29.784100
H -6.270700 -16.342200 -31.804900
C -6.262400 -16.940400 -31.040900
H -6.224800 -16.728200 -29.021300
H -5.665500 -14.768500 -27.847600
H -5.661700 -19.061400 -32.278000
C -5.637200 -14.236100 -28.658300
O -5.463100 -15.083500 -29.782100
O -5.054200 -17.672400 -31.021600
C -4.894500 -18.477000 -32.174400
H -4.830400 -17.915600 -32.962600
H -4.680600 -12.616100 -27.891300
C -4.509900 -13.270600 -28.586100
H -4.424500 -12.800800 -29.431300
H -3.667700 -19.765100 -31.183400
C -3.653900 -19.291200 -32.028700
H -3.603000 -19.944600 -32.744100
O -3.306900 -13.971800 -28.302600
O -2.529200 -18.433400 -32.081400
H -2.219600 -12.510300 -27.561200
C -2.175400 -13.123700 -28.311500
H -2.164100 -12.601000 -29.129000
H -1.373600 -19.602900 -30.988200
C -1.309400 -19.124400 -31.829900
H -1.150800 -19.772400 -32.534200
H -0.994200 -14.549200 -27.468400
C -0.933100 -13.940100 -28.220400
O -0.764900 -14.672400 -29.418000
O -0.357100 -17.296600 -30.655200
C -0.184500 -18.163300 -31.773100
H -0.167700 -13.360100 -28.080000
H -0.156500 -17.642300 -32.591000
H 0.325400 -15.629300 -31.452700
C 0.443500 -15.410400 -29.433800
H 0.470100 -16.009600 -28.671600
C 0.540400 -16.198100 -30.696200
H 0.653700 -18.643500 -31.690000
H 1.197500 -14.803400 -29.367900
H 1.447600 -16.521400 -30.810100
84
Fragment
H -10.028500 -17.338300 -22.703800
H -9.750600 -15.592100 -24.118400
H -9.213800 -19.384200 -21.730200
C -9.126900 -16.987900 -22.778400
H -9.008200 -16.798500 -24.799200
C -8.999800 -16.200300 -24.035200
H -8.962300 -16.412500 -22.015600
H -8.403000 -18.372200 -20.841800
H -8.399200 -14.079300 -25.272300
C -8.374700 -18.904600 -21.652500
O -8.200500 -18.057200 -22.776400
O -7.791700 -15.468300 -24.015900
C -7.631900 -14.663700 -25.168700
H -7.567900 -15.225100 -25.956900
H -7.418100 -20.524600 -20.885600
C -7.247300 -19.870100 -21.580400
H -7.162000 -20.339900 -22.425600
H -6.405200 -13.375600 -24.177700
C -6.391400 -13.849500 -25.023000
H -6.340500 -13.196100 -25.738400
O -6.044400 -19.168900 -21.296900
O -5.266700 -14.707300 -25.075700
H -4.957100 -20.630400 -20.555500
C -4.912800 -20.017000 -21.305800
H -4.901500 -20.539700 -22.123300
H -4.111100 -13.537800 -23.982500
C -4.046900 -14.016300 -24.824200
H -3.888200 -13.368300 -25.528500
H -3.731600 -18.591500 -20.462700
C -3.670600 -19.200600 -21.214700
O -3.502400 -18.468300 -22.412200
O -3.094600 -15.844100 -23.649500
C -2.922000 -14.977400 -24.767400
H -2.905200 -19.780600 -21.074300
H -2.894000 -15.498400 -25.585300
H -2.412100 -17.511400 -24.447000
C -2.294000 -17.730300 -22.428100
H -2.267400 -17.131100 -21.665900
C -2.197100 -16.942600 -23.690500
H -2.083700 -14.497200 -24.684300
H -1.539900 -18.337300 -22.362200
H -1.289900 -16.619300 -23.804400
H -7.291100 -15.802400 -29.709500
H -7.013100 -17.548600 -31.124100
H -6.476300 -13.756500 -28.735900
C -6.389400 -16.152800 -29.784100
H -6.270700 -16.342200 -31.804900
C -6.262400 -16.940400 -31.040900
H -6.224800 -16.728200 -29.021300
H -5.665500 -14.768500 -27.847600
H -5.661700 -19.061400 -32.278000
C -5.637200 -14.236100 -28.658300
O -5.463100 -15.083500 -29.782100
O -5.054200 -17.672400 -31.021600
C -4.894500 -18.477000 -32.174400
H -4.830400 -17.915600 -32.962600
H -4.680600 -12.616100 -27.891300
C -4.509900 -13.270600 -28.586100
H -4.424500 -12.800800 -29.431300
H -3.667700 -19.765100 -31.183400
C -3.653900 -19.291200 -32.028700
H -3.603000 -19.944600 -32.744100
O -3.306900 -13.971800 -28.302600
O -2.529200 -18.433400 -32.081400
H -2.219600 -12.510300 -27.561200
C -2.175400 -13.123700 -28.311500
H -2.164100 -12.601000 -29.129000
H -1.373600 -19.602900 -30.988200
C -1.309400 -19.124400 -31.829900
H -1.150800 -19.772400 -32.534200
H -0.994200 -14.549200 -27.468400
C -0.933100 -13.940100 -28.220400
O -0.764900 -14.672400 -29.418000
O -0.357100 -17.296600 -30.655200
C -0.184500 -18.163300 -31.773100
H -0.167700 -13.360100 -28.080000
H -0.156500 -17.642300 -32.591000
H 0.325400 -15.629300 -31.452700
C 0.443500 -15.410400 -29.433800
H 0.470100 -16.009600 -28.671600
C 0.540400 -16.198100 -30.696200
H 0.653700 -18.643500 -31.690000
H 1.197500 -14.803400 -29.367900
H 1.447600 -16.521400 -30.810100
