42
Fragment
H -10.028500 -17.338300 -22.703800
H -9.750600 -15.592100 -24.118400
H -9.213800 -19.384200 -21.730200
C -9.126900 -16.987900 -22.778400
H -9.008200 -16.798500 -24.799200
C -8.999800 -16.200300 -24.035200
H -8.962300 -16.412500 -22.015600
H -8.403000 -18.372200 -20.841800
H -8.399200 -14.079300 -25.272300
C -8.374700 -18.904600 -21.652500
O -8.200500 -18.057200 -22.776400
O -7.791700 -15.468300 -24.015900
C -7.631900 -14.663700 -25.168700
H -7.567900 -15.225100 -25.956900
H -7.418100 -20.524600 -20.885600
C -7.247300 -19.870100 -21.580400
H -7.162000 -20.339900 -22.425600
H -6.405200 -13.375600 -24.177700
C -6.391400 -13.849500 -25.023000
H -6.340500 -13.196100 -25.738400
O -6.044400 -19.168900 -21.296900
O -5.266700 -14.707300 -25.075700
H -4.957100 -20.630400 -20.555500
C -4.912800 -20.017000 -21.305800
H -4.901500 -20.539700 -22.123300
H -4.111100 -13.537800 -23.982500
C -4.046900 -14.016300 -24.824200
H -3.888200 -13.368300 -25.528500
H -3.731600 -18.591500 -20.462700
C -3.670600 -19.200600 -21.214700
O -3.502400 -18.468300 -22.412200
O -3.094600 -15.844100 -23.649500
C -2.922000 -14.977400 -24.767400
H -2.905200 -19.780600 -21.074300
H -2.894000 -15.498400 -25.585300
H -2.412100 -17.511400 -24.447000
C -2.294000 -17.730300 -22.428100
H -2.267400 -17.131100 -21.665900
C -2.197100 -16.942600 -23.690500
H -2.083700 -14.497200 -24.684300
H -1.539900 -18.337300 -22.362200
H -1.289900 -16.619300 -23.804400
42
Fragment
H -17.057300 -22.861800 -22.703800
H -16.779400 -21.115600 -24.118400
H -16.242600 -24.907700 -21.730200
C -16.155700 -22.511400 -22.778400
H -16.037000 -22.321900 -24.799200
C -16.028600 -21.723700 -24.035200
H -15.991100 -21.935900 -22.015600
H -15.431800 -23.895700 -20.841800
H -15.428000 -19.602700 -25.272300
C -15.403500 -24.428000 -21.652500
O -15.229300 -23.580600 -22.776400
O -14.820500 -20.991800 -24.015900
C -14.660700 -20.187100 -25.168700
H -14.596700 -20.748500 -25.956900
H -14.446900 -26.048000 -20.885600
C -14.276100 -25.393500 -21.580400
H -14.190800 -25.863300 -22.425600
H -13.434000 -18.899000 -24.177700
C -13.420200 -19.372900 -25.023000
H -13.369300 -18.719500 -25.738400
O -13.073200 -24.692400 -21.296900
O -12.295500 -20.230700 -25.075700
H -11.985900 -26.153900 -20.555500
C -11.941600 -25.540400 -21.305800
H -11.930300 -26.063200 -22.123300
H -11.139900 -19.061200 -23.982500
C -11.075700 -19.539800 -24.824200
H -10.917000 -18.891700 -25.528500
H -10.760400 -24.114900 -20.462700
C -10.699400 -24.724100 -21.214700
O -10.531200 -23.991800 -22.412200
O -10.123400 -21.367600 -23.649500
C -9.950800 -20.500800 -24.767400
H -9.934000 -25.304000 -21.074300
H -9.922800 -21.021800 -25.585300
H -9.440900 -23.034900 -24.447000
C -9.322800 -23.253700 -22.428100
H -9.296200 -22.654500 -21.665900
C -9.225900 -22.466100 -23.690500
H -9.112500 -20.020600 -24.684300
H -8.568700 -23.860800 -22.362200
H -8.318700 -22.142700 -23.804400
84
Fragment
H -10.028500 -17.338300 -22.703800
H -9.750600 -15.592100 -24.118400
H -9.213800 -19.384200 -21.730200
C -9.126900 -16.987900 -22.778400
H -9.008200 -16.798500 -24.799200
C -8.999800 -16.200300 -24.035200
H -8.962300 -16.412500 -22.015600
H -8.403000 -18.372200 -20.841800
H -8.399200 -14.079300 -25.272300
C -8.374700 -18.904600 -21.652500
O -8.200500 -18.057200 -22.776400
O -7.791700 -15.468300 -24.015900
C -7.631900 -14.663700 -25.168700
H -7.567900 -15.225100 -25.956900
H -7.418100 -20.524600 -20.885600
C -7.247300 -19.870100 -21.580400
H -7.162000 -20.339900 -22.425600
H -6.405200 -13.375600 -24.177700
C -6.391400 -13.849500 -25.023000
H -6.340500 -13.196100 -25.738400
O -6.044400 -19.168900 -21.296900
O -5.266700 -14.707300 -25.075700
H -4.957100 -20.630400 -20.555500
C -4.912800 -20.017000 -21.305800
H -4.901500 -20.539700 -22.123300
H -4.111100 -13.537800 -23.982500
C -4.046900 -14.016300 -24.824200
H -3.888200 -13.368300 -25.528500
H -3.731600 -18.591500 -20.462700
C -3.670600 -19.200600 -21.214700
O -3.502400 -18.468300 -22.412200
O -3.094600 -15.844100 -23.649500
C -2.922000 -14.977400 -24.767400
H -2.905200 -19.780600 -21.074300
H -2.894000 -15.498400 -25.585300
H -2.412100 -17.511400 -24.447000
C -2.294000 -17.730300 -22.428100
H -2.267400 -17.131100 -21.665900
C -2.197100 -16.942600 -23.690500
H -2.083700 -14.497200 -24.684300
H -1.539900 -18.337300 -22.362200
H -1.289900 -16.619300 -23.804400
H -17.057300 -22.861800 -22.703800
H -16.779400 -21.115600 -24.118400
H -16.242600 -24.907700 -21.730200
C -16.155700 -22.511400 -22.778400
H -16.037000 -22.321900 -24.799200
C -16.028600 -21.723700 -24.035200
H -15.991100 -21.935900 -22.015600
H -15.431800 -23.895700 -20.841800
H -15.428000 -19.602700 -25.272300
C -15.403500 -24.428000 -21.652500
O -15.229300 -23.580600 -22.776400
O -14.820500 -20.991800 -24.015900
C -14.660700 -20.187100 -25.168700
H -14.596700 -20.748500 -25.956900
H -14.446900 -26.048000 -20.885600
C -14.276100 -25.393500 -21.580400
H -14.190800 -25.863300 -22.425600
H -13.434000 -18.899000 -24.177700
C -13.420200 -19.372900 -25.023000
H -13.369300 -18.719500 -25.738400
O -13.073200 -24.692400 -21.296900
O -12.295500 -20.230700 -25.075700
H -11.985900 -26.153900 -20.555500
C -11.941600 -25.540400 -21.305800
H -11.930300 -26.063200 -22.123300
H -11.139900 -19.061200 -23.982500
C -11.075700 -19.539800 -24.824200
H -10.917000 -18.891700 -25.528500
H -10.760400 -24.114900 -20.462700
C -10.699400 -24.724100 -21.214700
O -10.531200 -23.991800 -22.412200
O -10.123400 -21.367600 -23.649500
C -9.950800 -20.500800 -24.767400
H -9.934000 -25.304000 -21.074300
H -9.922800 -21.021800 -25.585300
H -9.440900 -23.034900 -24.447000
C -9.322800 -23.253700 -22.428100
H -9.296200 -22.654500 -21.665900
C -9.225900 -22.466100 -23.690500
H -9.112500 -20.020600 -24.684300
H -8.568700 -23.860800 -22.362200
H -8.318700 -22.142700 -23.804400
