15
Fragment
H -18.294300 -10.273400 -35.781900
C -17.753400 -9.673300 -36.243800
H -17.674800 -10.679900 -37.960400
H -17.543900 -8.327200 -34.776100
C -17.372100 -9.904700 -37.544500
C -17.298300 -8.517500 -35.653300
H -17.289900 -6.226500 -34.281100
N -16.592100 -9.075200 -38.244400
N -16.519000 -5.924100 -34.606100
C -16.488600 -7.635600 -36.333500
C -16.151900 -7.946600 -37.629200
H -16.123200 -5.039600 -34.289000
C -15.955300 -6.395600 -35.713600
H -15.604300 -7.363100 -38.103300
O -14.983400 -5.825300 -36.235300
20
Fragment
H -22.288300 -13.003400 -40.903800
O -22.185900 -11.909300 -38.701000
N -21.796100 -12.191100 -40.896100
C -21.690300 -11.526000 -39.760300
H -21.462700 -11.909300 -41.523200
N -21.068500 -9.335800 -37.492400
C -20.933700 -10.258200 -39.824600
N -20.753900 -8.313900 -36.797800
C -20.715900 -9.357700 -38.808200
N -20.353000 -9.795300 -40.984000
H -20.328600 -5.384400 -36.766600
H -20.102500 -6.379700 -35.575400
N -20.061600 -7.272200 -37.364000
N -19.994800 -8.320600 -39.382100
C -19.825300 -6.144300 -36.465100
C -19.801700 -8.648200 -40.689100
C -19.608300 -7.192600 -38.658600
H -19.335300 -8.121000 -41.295600
O -18.966100 -6.286200 -39.107000
H -18.890000 -5.927500 -36.462200
35
Fragment
H -18.294300 -10.273400 -35.781900
C -17.753400 -9.673300 -36.243800
H -17.674800 -10.679900 -37.960400
H -17.543900 -8.327200 -34.776100
C -17.372100 -9.904700 -37.544500
C -17.298300 -8.517500 -35.653300
H -17.289900 -6.226500 -34.281100
N -16.592100 -9.075200 -38.244400
N -16.519000 -5.924100 -34.606100
C -16.488600 -7.635600 -36.333500
C -16.151900 -7.946600 -37.629200
H -16.123200 -5.039600 -34.289000
C -15.955300 -6.395600 -35.713600
H -15.604300 -7.363100 -38.103300
O -14.983400 -5.825300 -36.235300
H -22.288300 -13.003400 -40.903800
O -22.185900 -11.909300 -38.701000
N -21.796100 -12.191100 -40.896100
C -21.690300 -11.526000 -39.760300
H -21.462700 -11.909300 -41.523200
N -21.068500 -9.335800 -37.492400
C -20.933700 -10.258200 -39.824600
N -20.753900 -8.313900 -36.797800
C -20.715900 -9.357700 -38.808200
N -20.353000 -9.795300 -40.984000
H -20.328600 -5.384400 -36.766600
H -20.102500 -6.379700 -35.575400
N -20.061600 -7.272200 -37.364000
N -19.994800 -8.320600 -39.382100
C -19.825300 -6.144300 -36.465100
C -19.801700 -8.648200 -40.689100
C -19.608300 -7.192600 -38.658600
H -19.335300 -8.121000 -41.295600
O -18.966100 -6.286200 -39.107000
H -18.890000 -5.927500 -36.462200
