17
Fragment
O -5.238500 -16.423600 -22.228900
H -5.104600 -14.640400 -23.709300
H -4.969200 -13.602600 -22.768200
H -4.965800 -16.580600 -19.777900
C -4.932500 -15.247900 -21.998400
C -4.849700 -15.681400 -19.570300
C -4.793800 -14.766200 -20.592200
H -4.788500 -15.951700 -17.568300
C -4.739000 -15.312300 -18.242300
N -4.686500 -14.385500 -22.998800
C -4.615800 -13.423200 -20.256500
H -4.566700 -12.782900 -20.929300
H -4.562000 -14.118400 -16.133800
C -4.551800 -13.957700 -17.928200
C -4.513300 -13.038500 -18.943400
H -4.415500 -12.136100 -18.738500
O -4.402000 -13.509400 -16.659600
20
Fragment
H -7.633300 -14.856200 -32.476500
H -7.383500 -18.980200 -29.135700
O -7.314900 -17.389800 -31.544900
C -7.045900 -18.224200 -28.713700
C -6.926600 -16.662700 -30.676700
N -6.771700 -18.145000 -27.443700
N -6.770000 -17.038900 -29.342000
C -6.736600 -14.724200 -32.161100
N -6.591400 -15.334900 -30.856000
H -6.553100 -13.785300 -32.096300
C -6.287100 -16.882400 -27.211800
C -6.278800 -16.173100 -28.382100
H -6.157800 -18.124000 -25.069600
H -6.119100 -15.129900 -32.773100
N -6.065800 -14.485900 -29.908200
N -5.928000 -14.895300 -28.704300
N -5.925200 -17.313700 -24.895700
C -5.889300 -16.419000 -25.859600
H -5.714800 -17.090200 -24.092100
O -5.564700 -15.244700 -25.674900
37
Fragment
O -5.238500 -16.423600 -22.228900
H -5.104600 -14.640400 -23.709300
H -4.969200 -13.602600 -22.768200
H -4.965800 -16.580600 -19.777900
C -4.932500 -15.247900 -21.998400
C -4.849700 -15.681400 -19.570300
C -4.793800 -14.766200 -20.592200
H -4.788500 -15.951700 -17.568300
C -4.739000 -15.312300 -18.242300
N -4.686500 -14.385500 -22.998800
C -4.615800 -13.423200 -20.256500
H -4.566700 -12.782900 -20.929300
H -4.562000 -14.118400 -16.133800
C -4.551800 -13.957700 -17.928200
C -4.513300 -13.038500 -18.943400
H -4.415500 -12.136100 -18.738500
O -4.402000 -13.509400 -16.659600
H -7.633300 -14.856200 -32.476500
H -7.383500 -18.980200 -29.135700
O -7.314900 -17.389800 -31.544900
C -7.045900 -18.224200 -28.713700
C -6.926600 -16.662700 -30.676700
N -6.771700 -18.145000 -27.443700
N -6.770000 -17.038900 -29.342000
C -6.736600 -14.724200 -32.161100
N -6.591400 -15.334900 -30.856000
H -6.553100 -13.785300 -32.096300
C -6.287100 -16.882400 -27.211800
C -6.278800 -16.173100 -28.382100
H -6.157800 -18.124000 -25.069600
H -6.119100 -15.129900 -32.773100
N -6.065800 -14.485900 -29.908200
N -5.928000 -14.895300 -28.704300
N -5.925200 -17.313700 -24.895700
C -5.889300 -16.419000 -25.859600
H -5.714800 -17.090200 -24.092100
O -5.564700 -15.244700 -25.674900
