15
Fragment
H -18.294300 -10.273400 -35.781900
C -17.753400 -9.673300 -36.243800
H -17.674800 -10.679900 -37.960400
H -17.543900 -8.327200 -34.776100
C -17.372100 -9.904700 -37.544500
C -17.298300 -8.517500 -35.653300
H -17.289900 -6.226500 -34.281100
N -16.592100 -9.075200 -38.244400
N -16.519000 -5.924100 -34.606100
C -16.488600 -7.635600 -36.333500
C -16.151900 -7.946600 -37.629200
H -16.123200 -5.039600 -34.289000
C -15.955300 -6.395600 -35.713600
H -15.604300 -7.363100 -38.103300
O -14.983400 -5.825300 -36.235300
20
Fragment
H -14.294700 -7.334500 -42.947300
O -14.218600 -6.975800 -40.302400
H -13.849400 -5.141000 -38.113900
C -13.576400 -6.069400 -40.750800
C -13.383000 -4.613800 -38.720300
C -13.359400 -7.117700 -42.944400
N -13.189900 -4.941400 -40.027400
N -13.123100 -5.989800 -42.045500
H -13.082200 -6.882300 -43.834000
H -12.856100 -7.877600 -42.642900
N -12.831600 -3.466700 -38.425400
C -12.468800 -3.904300 -40.601300
N -12.430800 -4.948100 -42.611700
C -12.251000 -3.003800 -39.584800
N -12.116200 -3.926200 -41.917100
H -11.721900 -1.352700 -37.886300
C -11.494400 -1.736000 -39.649100
N -11.388600 -1.070900 -38.513300
O -10.998800 -1.352700 -40.708500
H -10.896400 -0.258600 -38.505700
35
Fragment
H -18.294300 -10.273400 -35.781900
C -17.753400 -9.673300 -36.243800
H -17.674800 -10.679900 -37.960400
H -17.543900 -8.327200 -34.776100
C -17.372100 -9.904700 -37.544500
C -17.298300 -8.517500 -35.653300
H -17.289900 -6.226500 -34.281100
N -16.592100 -9.075200 -38.244400
N -16.519000 -5.924100 -34.606100
C -16.488600 -7.635600 -36.333500
C -16.151900 -7.946600 -37.629200
H -16.123200 -5.039600 -34.289000
C -15.955300 -6.395600 -35.713600
H -15.604300 -7.363100 -38.103300
O -14.983400 -5.825300 -36.235300
H -14.294700 -7.334500 -42.947300
O -14.218600 -6.975800 -40.302400
H -13.849400 -5.141000 -38.113900
C -13.576400 -6.069400 -40.750800
C -13.383000 -4.613800 -38.720300
C -13.359400 -7.117700 -42.944400
N -13.189900 -4.941400 -40.027400
N -13.123100 -5.989800 -42.045500
H -13.082200 -6.882300 -43.834000
H -12.856100 -7.877600 -42.642900
N -12.831600 -3.466700 -38.425400
C -12.468800 -3.904300 -40.601300
N -12.430800 -4.948100 -42.611700
C -12.251000 -3.003800 -39.584800
N -12.116200 -3.926200 -41.917100
H -11.721900 -1.352700 -37.886300
C -11.494400 -1.736000 -39.649100
N -11.388600 -1.070900 -38.513300
O -10.998800 -1.352700 -40.708500
H -10.896400 -0.258600 -38.505700
