20
Fragment
H -22.799200 -15.408900 -9.766300
C -22.274200 -15.078700 -10.459300
O -22.223800 -17.988300 -10.818600
N -22.081300 -13.806600 -10.703600
H -21.893200 -11.435700 -11.115500
N -21.604600 -15.850100 -11.352300
C -21.602000 -17.232600 -11.519800
H -21.598500 -19.327300 -13.166300
N -21.330100 -11.345500 -11.769700
C -21.252200 -13.719000 -11.790500
H -21.074600 -10.567600 -12.024400
C -20.935400 -14.991000 -12.211900
N -20.804700 -17.590100 -12.570700
C -20.802200 -12.420700 -12.345400
C -20.725000 -19.006900 -12.934300
H -20.387200 -19.509200 -12.189100
N -20.152500 -15.484900 -13.225000
H -20.135400 -19.111800 -13.684200
N -20.086700 -16.740800 -13.391600
O -20.002400 -12.375500 -13.267100
20
Fragment
O -18.242800 -25.242000 -15.137000
N -18.158500 -20.876800 -15.012500
H -18.109800 -18.505800 -14.720000
N -18.092700 -22.132600 -15.179200
H -17.858000 -18.108400 -16.215000
C -17.520200 -18.610700 -15.469800
C -17.443000 -25.196900 -16.058700
N -17.440500 -20.027400 -15.833400
C -17.309800 -22.626600 -16.192200
H -17.170600 -27.050000 -16.379700
C -16.993000 -23.898600 -16.613600
N -16.915100 -26.272100 -16.634400
H -16.646700 -18.290300 -15.237900
C -16.643200 -20.385000 -16.884300
N -16.640600 -21.767500 -17.051800
H -16.352000 -26.181900 -17.288600
N -16.163900 -23.811000 -17.700500
O -16.021400 -19.629200 -17.585600
C -15.971000 -22.538900 -17.944800
H -15.446000 -22.208700 -18.637800
40
Fragment
H -22.799200 -15.408900 -9.766300
C -22.274200 -15.078700 -10.459300
O -22.223800 -17.988300 -10.818600
N -22.081300 -13.806600 -10.703600
H -21.893200 -11.435700 -11.115500
N -21.604600 -15.850100 -11.352300
C -21.602000 -17.232600 -11.519800
H -21.598500 -19.327300 -13.166300
N -21.330100 -11.345500 -11.769700
C -21.252200 -13.719000 -11.790500
H -21.074600 -10.567600 -12.024400
C -20.935400 -14.991000 -12.211900
N -20.804700 -17.590100 -12.570700
C -20.802200 -12.420700 -12.345400
C -20.725000 -19.006900 -12.934300
H -20.387200 -19.509200 -12.189100
N -20.152500 -15.484900 -13.225000
H -20.135400 -19.111800 -13.684200
N -20.086700 -16.740800 -13.391600
O -20.002400 -12.375500 -13.267100
O -18.242800 -25.242000 -15.137000
N -18.158500 -20.876800 -15.012500
H -18.109800 -18.505800 -14.720000
N -18.092700 -22.132600 -15.179200
H -17.858000 -18.108400 -16.215000
C -17.520200 -18.610700 -15.469800
C -17.443000 -25.196900 -16.058700
N -17.440500 -20.027400 -15.833400
C -17.309800 -22.626600 -16.192200
H -17.170600 -27.050000 -16.379700
C -16.993000 -23.898600 -16.613600
N -16.915100 -26.272100 -16.634400
H -16.646700 -18.290300 -15.237900
C -16.643200 -20.385000 -16.884300
N -16.640600 -21.767500 -17.051800
H -16.352000 -26.181900 -17.288600
N -16.163900 -23.811000 -17.700500
O -16.021400 -19.629200 -17.585600
C -15.971000 -22.538900 -17.944800
H -15.446000 -22.208700 -18.637800
