20
Fragment
H -22.799200 -15.408900 -9.766300
C -22.274200 -15.078700 -10.459300
O -22.223800 -17.988300 -10.818600
N -22.081300 -13.806600 -10.703600
H -21.893200 -11.435700 -11.115500
N -21.604600 -15.850100 -11.352300
C -21.602000 -17.232600 -11.519800
H -21.598500 -19.327300 -13.166300
N -21.330100 -11.345500 -11.769700
C -21.252200 -13.719000 -11.790500
H -21.074600 -10.567600 -12.024400
C -20.935400 -14.991000 -12.211900
N -20.804700 -17.590100 -12.570700
C -20.802200 -12.420700 -12.345400
C -20.725000 -19.006900 -12.934300
H -20.387200 -19.509200 -12.189100
N -20.152500 -15.484900 -13.225000
H -20.135400 -19.111800 -13.684200
N -20.086700 -16.740800 -13.391600
O -20.002400 -12.375500 -13.267100
14
Fragment
H -23.541900 -4.130500 -9.382800
O -23.531000 -6.522200 -9.210200
N -22.975800 -4.499000 -10.000100
C -22.896200 -5.813600 -9.979300
H -22.417000 -4.018900 -10.613700
H -22.369200 -8.326200 -10.570100
C -21.990600 -6.424700 -11.014200
C -21.885400 -7.779400 -11.145800
N -21.317400 -5.576400 -11.799100
N -21.101600 -8.351000 -12.084100
C -20.539600 -6.142300 -12.721300
C -20.436000 -7.506300 -12.862300
H -20.049300 -5.595000 -13.290300
H -19.881700 -7.847900 -13.526000
34
Fragment
H -22.799200 -15.408900 -9.766300
C -22.274200 -15.078700 -10.459300
O -22.223800 -17.988300 -10.818600
N -22.081300 -13.806600 -10.703600
H -21.893200 -11.435700 -11.115500
N -21.604600 -15.850100 -11.352300
C -21.602000 -17.232600 -11.519800
H -21.598500 -19.327300 -13.166300
N -21.330100 -11.345500 -11.769700
C -21.252200 -13.719000 -11.790500
H -21.074600 -10.567600 -12.024400
C -20.935400 -14.991000 -12.211900
N -20.804700 -17.590100 -12.570700
C -20.802200 -12.420700 -12.345400
C -20.725000 -19.006900 -12.934300
H -20.387200 -19.509200 -12.189100
N -20.152500 -15.484900 -13.225000
H -20.135400 -19.111800 -13.684200
N -20.086700 -16.740800 -13.391600
O -20.002400 -12.375500 -13.267100
H -23.541900 -4.130500 -9.382800
O -23.531000 -6.522200 -9.210200
N -22.975800 -4.499000 -10.000100
C -22.896200 -5.813600 -9.979300
H -22.417000 -4.018900 -10.613700
H -22.369200 -8.326200 -10.570100
C -21.990600 -6.424700 -11.014200
C -21.885400 -7.779400 -11.145800
N -21.317400 -5.576400 -11.799100
N -21.101600 -8.351000 -12.084100
C -20.539600 -6.142300 -12.721300
C -20.436000 -7.506300 -12.862300
H -20.049300 -5.595000 -13.290300
H -19.881700 -7.847900 -13.526000
