20
Fragment
H -22.799200 -15.408900 -9.766300
C -22.274200 -15.078700 -10.459300
O -22.223800 -17.988300 -10.818600
N -22.081300 -13.806600 -10.703600
H -21.893200 -11.435700 -11.115500
N -21.604600 -15.850100 -11.352300
C -21.602000 -17.232600 -11.519800
H -21.598500 -19.327300 -13.166300
N -21.330100 -11.345500 -11.769700
C -21.252200 -13.719000 -11.790500
H -21.074600 -10.567600 -12.024400
C -20.935400 -14.991000 -12.211900
N -20.804700 -17.590100 -12.570700
C -20.802200 -12.420700 -12.345400
C -20.725000 -19.006900 -12.934300
H -20.387200 -19.509200 -12.189100
N -20.152500 -15.484900 -13.225000
H -20.135400 -19.111800 -13.684200
N -20.086700 -16.740800 -13.391600
O -20.002400 -12.375500 -13.267100
20
Fragment
O -26.790900 -20.957400 -5.669000
N -26.706600 -16.592200 -5.544500
H -26.657900 -14.221100 -5.251900
N -26.640800 -17.848000 -5.711100
H -26.406100 -13.823800 -6.746900
C -26.068300 -14.326100 -6.001800
C -25.991100 -20.912200 -6.590700
N -25.988600 -15.742800 -6.365400
C -25.858000 -18.341900 -6.724200
H -25.718700 -22.765400 -6.911700
C -25.541100 -19.613900 -7.145500
N -25.463200 -21.987500 -7.166400
H -25.194800 -14.005600 -5.769800
C -25.191300 -16.100400 -7.416300
N -25.188700 -17.482800 -7.583800
H -24.900100 -21.897200 -7.820600
N -24.712000 -19.526300 -8.232500
O -24.569600 -15.344600 -8.117500
C -24.519100 -18.254300 -8.476700
H -23.994200 -17.924000 -9.169800
40
Fragment
H -22.799200 -15.408900 -9.766300
C -22.274200 -15.078700 -10.459300
O -22.223800 -17.988300 -10.818600
N -22.081300 -13.806600 -10.703600
H -21.893200 -11.435700 -11.115500
N -21.604600 -15.850100 -11.352300
C -21.602000 -17.232600 -11.519800
H -21.598500 -19.327300 -13.166300
N -21.330100 -11.345500 -11.769700
C -21.252200 -13.719000 -11.790500
H -21.074600 -10.567600 -12.024400
C -20.935400 -14.991000 -12.211900
N -20.804700 -17.590100 -12.570700
C -20.802200 -12.420700 -12.345400
C -20.725000 -19.006900 -12.934300
H -20.387200 -19.509200 -12.189100
N -20.152500 -15.484900 -13.225000
H -20.135400 -19.111800 -13.684200
N -20.086700 -16.740800 -13.391600
O -20.002400 -12.375500 -13.267100
O -26.790900 -20.957400 -5.669000
N -26.706600 -16.592200 -5.544500
H -26.657900 -14.221100 -5.251900
N -26.640800 -17.848000 -5.711100
H -26.406100 -13.823800 -6.746900
C -26.068300 -14.326100 -6.001800
C -25.991100 -20.912200 -6.590700
N -25.988600 -15.742800 -6.365400
C -25.858000 -18.341900 -6.724200
H -25.718700 -22.765400 -6.911700
C -25.541100 -19.613900 -7.145500
N -25.463200 -21.987500 -7.166400
H -25.194800 -14.005600 -5.769800
C -25.191300 -16.100400 -7.416300
N -25.188700 -17.482800 -7.583800
H -24.900100 -21.897200 -7.820600
N -24.712000 -19.526300 -8.232500
O -24.569600 -15.344600 -8.117500
C -24.519100 -18.254300 -8.476700
H -23.994200 -17.924000 -9.169800
