17
Fragment
O -5.238500 -16.423600 -22.228900
H -5.104600 -14.640400 -23.709300
H -4.969200 -13.602600 -22.768200
H -4.965800 -16.580600 -19.777900
C -4.932500 -15.247900 -21.998400
C -4.849700 -15.681400 -19.570300
C -4.793800 -14.766200 -20.592200
H -4.788500 -15.951700 -17.568300
C -4.739000 -15.312300 -18.242300
N -4.686500 -14.385500 -22.998800
C -4.615800 -13.423200 -20.256500
H -4.566700 -12.782900 -20.929300
H -4.562000 -14.118400 -16.133800
C -4.551800 -13.957700 -17.928200
C -4.513300 -13.038500 -18.943400
H -4.415500 -12.136100 -18.738500
O -4.402000 -13.509400 -16.659600
20
Fragment
O -9.786300 -16.436600 -28.252700
H -9.636200 -14.591000 -29.835400
C -9.461700 -15.262300 -28.067900
N -9.425700 -14.367500 -29.031900
N -9.423000 -16.786000 -25.223300
N -9.285100 -17.195400 -24.019300
H -9.231900 -16.551400 -21.154400
H -9.193200 -13.557300 -28.858000
C -9.072200 -15.508200 -25.545500
C -9.063900 -14.798900 -26.715700
H -8.797900 -17.896000 -21.831200
N -8.759600 -16.346400 -23.071600
C -8.614400 -16.957100 -21.766500
N -8.581000 -14.642300 -24.585600
N -8.579300 -13.536300 -26.483800
C -8.424400 -15.018600 -23.250900
C -8.305100 -13.457000 -25.213800
O -8.036100 -14.291500 -22.382600
H -7.967500 -12.701100 -24.791900
H -7.717700 -16.825100 -21.451000
37
Fragment
O -5.238500 -16.423600 -22.228900
H -5.104600 -14.640400 -23.709300
H -4.969200 -13.602600 -22.768200
H -4.965800 -16.580600 -19.777900
C -4.932500 -15.247900 -21.998400
C -4.849700 -15.681400 -19.570300
C -4.793800 -14.766200 -20.592200
H -4.788500 -15.951700 -17.568300
C -4.739000 -15.312300 -18.242300
N -4.686500 -14.385500 -22.998800
C -4.615800 -13.423200 -20.256500
H -4.566700 -12.782900 -20.929300
H -4.562000 -14.118400 -16.133800
C -4.551800 -13.957700 -17.928200
C -4.513300 -13.038500 -18.943400
H -4.415500 -12.136100 -18.738500
O -4.402000 -13.509400 -16.659600
O -9.786300 -16.436600 -28.252700
H -9.636200 -14.591000 -29.835400
C -9.461700 -15.262300 -28.067900
N -9.425700 -14.367500 -29.031900
N -9.423000 -16.786000 -25.223300
N -9.285100 -17.195400 -24.019300
H -9.231900 -16.551400 -21.154400
H -9.193200 -13.557300 -28.858000
C -9.072200 -15.508200 -25.545500
C -9.063900 -14.798900 -26.715700
H -8.797900 -17.896000 -21.831200
N -8.759600 -16.346400 -23.071600
C -8.614400 -16.957100 -21.766500
N -8.581000 -14.642300 -24.585600
N -8.579300 -13.536300 -26.483800
C -8.424400 -15.018600 -23.250900
C -8.305100 -13.457000 -25.213800
O -8.036100 -14.291500 -22.382600
H -7.967500 -12.701100 -24.791900
H -7.717700 -16.825100 -21.451000
