20
Fragment
H -22.799200 -15.408900 -9.766300
C -22.274200 -15.078700 -10.459300
O -22.223800 -17.988300 -10.818600
N -22.081300 -13.806600 -10.703600
H -21.893200 -11.435700 -11.115500
N -21.604600 -15.850100 -11.352300
C -21.602000 -17.232600 -11.519800
H -21.598500 -19.327300 -13.166300
N -21.330100 -11.345500 -11.769700
C -21.252200 -13.719000 -11.790500
H -21.074600 -10.567600 -12.024400
C -20.935400 -14.991000 -12.211900
N -20.804700 -17.590100 -12.570700
C -20.802200 -12.420700 -12.345400
C -20.725000 -19.006900 -12.934300
H -20.387200 -19.509200 -12.189100
N -20.152500 -15.484900 -13.225000
H -20.135400 -19.111800 -13.684200
N -20.086700 -16.740800 -13.391600
O -20.002400 -12.375500 -13.267100
14
Fragment
H -19.167400 -12.385100 -9.382800
O -19.156500 -14.776700 -9.210200
N -18.601300 -12.753600 -10.000100
C -18.521800 -14.068200 -9.979300
H -18.042500 -12.273500 -10.613700
H -17.994800 -16.580800 -10.570100
C -17.616200 -14.679300 -11.014200
C -17.510900 -16.034000 -11.145800
N -16.942900 -13.831000 -11.799100
N -16.727200 -16.605500 -12.084100
C -16.165100 -14.396900 -12.721300
C -16.061500 -15.760800 -12.862300
H -15.674800 -13.849600 -13.290300
H -15.507200 -16.102400 -13.526000
34
Fragment
H -22.799200 -15.408900 -9.766300
C -22.274200 -15.078700 -10.459300
O -22.223800 -17.988300 -10.818600
N -22.081300 -13.806600 -10.703600
H -21.893200 -11.435700 -11.115500
N -21.604600 -15.850100 -11.352300
C -21.602000 -17.232600 -11.519800
H -21.598500 -19.327300 -13.166300
N -21.330100 -11.345500 -11.769700
C -21.252200 -13.719000 -11.790500
H -21.074600 -10.567600 -12.024400
C -20.935400 -14.991000 -12.211900
N -20.804700 -17.590100 -12.570700
C -20.802200 -12.420700 -12.345400
C -20.725000 -19.006900 -12.934300
H -20.387200 -19.509200 -12.189100
N -20.152500 -15.484900 -13.225000
H -20.135400 -19.111800 -13.684200
N -20.086700 -16.740800 -13.391600
O -20.002400 -12.375500 -13.267100
H -19.167400 -12.385100 -9.382800
O -19.156500 -14.776700 -9.210200
N -18.601300 -12.753600 -10.000100
C -18.521800 -14.068200 -9.979300
H -18.042500 -12.273500 -10.613700
H -17.994800 -16.580800 -10.570100
C -17.616200 -14.679300 -11.014200
C -17.510900 -16.034000 -11.145800
N -16.942900 -13.831000 -11.799100
N -16.727200 -16.605500 -12.084100
C -16.165100 -14.396900 -12.721300
C -16.061500 -15.760800 -12.862300
H -15.674800 -13.849600 -13.290300
H -15.507200 -16.102400 -13.526000
