20
Fragment
H -22.799200 -15.408900 -9.766300
C -22.274200 -15.078700 -10.459300
O -22.223800 -17.988300 -10.818600
N -22.081300 -13.806600 -10.703600
H -21.893200 -11.435700 -11.115500
N -21.604600 -15.850100 -11.352300
C -21.602000 -17.232600 -11.519800
H -21.598500 -19.327300 -13.166300
N -21.330100 -11.345500 -11.769700
C -21.252200 -13.719000 -11.790500
H -21.074600 -10.567600 -12.024400
C -20.935400 -14.991000 -12.211900
N -20.804700 -17.590100 -12.570700
C -20.802200 -12.420700 -12.345400
C -20.725000 -19.006900 -12.934300
H -20.387200 -19.509200 -12.189100
N -20.152500 -15.484900 -13.225000
H -20.135400 -19.111800 -13.684200
N -20.086700 -16.740800 -13.391600
O -20.002400 -12.375500 -13.267100
14
Fragment
H -22.729200 -17.230500 -5.410000
H -22.561500 -19.483400 -5.645800
C -22.174800 -17.572100 -6.073700
C -22.071300 -18.936000 -6.214800
N -21.509200 -16.727400 -6.852000
N -21.293400 -19.502000 -7.137000
C -20.725400 -17.298900 -7.790300
C -20.620200 -18.653600 -7.921900
H -20.241600 -16.752200 -8.366000
H -20.193800 -21.059500 -8.322400
C -19.714600 -19.264800 -8.956800
N -19.635000 -20.579400 -8.935900
O -19.079800 -18.556200 -9.725900
H -19.068900 -20.947900 -9.553200
34
Fragment
H -22.799200 -15.408900 -9.766300
C -22.274200 -15.078700 -10.459300
O -22.223800 -17.988300 -10.818600
N -22.081300 -13.806600 -10.703600
H -21.893200 -11.435700 -11.115500
N -21.604600 -15.850100 -11.352300
C -21.602000 -17.232600 -11.519800
H -21.598500 -19.327300 -13.166300
N -21.330100 -11.345500 -11.769700
C -21.252200 -13.719000 -11.790500
H -21.074600 -10.567600 -12.024400
C -20.935400 -14.991000 -12.211900
N -20.804700 -17.590100 -12.570700
C -20.802200 -12.420700 -12.345400
C -20.725000 -19.006900 -12.934300
H -20.387200 -19.509200 -12.189100
N -20.152500 -15.484900 -13.225000
H -20.135400 -19.111800 -13.684200
N -20.086700 -16.740800 -13.391600
O -20.002400 -12.375500 -13.267100
H -22.729200 -17.230500 -5.410000
H -22.561500 -19.483400 -5.645800
C -22.174800 -17.572100 -6.073700
C -22.071300 -18.936000 -6.214800
N -21.509200 -16.727400 -6.852000
N -21.293400 -19.502000 -7.137000
C -20.725400 -17.298900 -7.790300
C -20.620200 -18.653600 -7.921900
H -20.241600 -16.752200 -8.366000
H -20.193800 -21.059500 -8.322400
C -19.714600 -19.264800 -8.956800
N -19.635000 -20.579400 -8.935900
O -19.079800 -18.556200 -9.725900
H -19.068900 -20.947900 -9.553200
