24
Fragment
H -27.598700 -20.675500 -15.542200
H -27.551400 -18.425800 -14.520200
H -27.040800 -20.446500 -16.989000
C -26.803500 -20.536900 -16.063100
C -26.684900 -18.384600 -14.853800
H -26.216000 -21.288400 -15.955400
N -26.144400 -19.348300 -15.621800
N -25.821000 -17.318000 -14.606800
C -24.884600 -18.903700 -15.893300
C -24.736100 -17.699900 -15.276400
H -23.973500 -15.033700 -15.312700
O -23.904200 -20.615300 -17.168100
C -23.843000 -19.525100 -16.603900
H -23.832300 -15.661000 -13.883400
N -23.580700 -16.991300 -15.350200
C -23.475900 -15.653800 -14.774200
N -22.674500 -18.761700 -16.605100
H -22.553700 -15.387400 -14.748500
C -22.488400 -17.499400 -16.025600
H -21.565100 -20.285800 -17.255900
C -21.518600 -19.327800 -17.288700
H -21.515100 -19.038500 -18.204100
O -21.454800 -16.905100 -16.132100
H -20.714300 -19.031800 -16.856700
20
Fragment
O -27.819200 -14.333800 -10.952200
H -27.060700 -16.373000 -12.010400
C -26.677400 -14.678900 -11.260100
N -26.430300 -11.850600 -9.698500
N -26.389900 -15.844600 -11.807900
N -26.077100 -10.742900 -9.181100
H -25.585500 -16.060400 -11.963600
C -25.546200 -13.772100 -11.048200
C -25.498100 -12.564200 -10.406700
H -25.337400 -8.527100 -8.538400
N -24.791300 -10.280400 -9.334400
C -24.514100 -9.002300 -8.674200
N -24.302300 -14.037900 -11.573800
N -24.215300 -12.093600 -10.560600
H -24.094700 -9.164300 -7.826700
H -23.929400 -8.477200 -9.225600
C -23.771700 -10.897500 -10.011000
C -23.548200 -13.024900 -11.272900
O -22.655300 -10.482600 -10.104400
H -22.654900 -12.950300 -11.519900
44
Fragment
H -27.598700 -20.675500 -15.542200
H -27.551400 -18.425800 -14.520200
H -27.040800 -20.446500 -16.989000
C -26.803500 -20.536900 -16.063100
C -26.684900 -18.384600 -14.853800
H -26.216000 -21.288400 -15.955400
N -26.144400 -19.348300 -15.621800
N -25.821000 -17.318000 -14.606800
C -24.884600 -18.903700 -15.893300
C -24.736100 -17.699900 -15.276400
H -23.973500 -15.033700 -15.312700
O -23.904200 -20.615300 -17.168100
C -23.843000 -19.525100 -16.603900
H -23.832300 -15.661000 -13.883400
N -23.580700 -16.991300 -15.350200
C -23.475900 -15.653800 -14.774200
N -22.674500 -18.761700 -16.605100
H -22.553700 -15.387400 -14.748500
C -22.488400 -17.499400 -16.025600
H -21.565100 -20.285800 -17.255900
C -21.518600 -19.327800 -17.288700
H -21.515100 -19.038500 -18.204100
O -21.454800 -16.905100 -16.132100
H -20.714300 -19.031800 -16.856700
O -27.819200 -14.333800 -10.952200
H -27.060700 -16.373000 -12.010400
C -26.677400 -14.678900 -11.260100
N -26.430300 -11.850600 -9.698500
N -26.389900 -15.844600 -11.807900
N -26.077100 -10.742900 -9.181100
H -25.585500 -16.060400 -11.963600
C -25.546200 -13.772100 -11.048200
C -25.498100 -12.564200 -10.406700
H -25.337400 -8.527100 -8.538400
N -24.791300 -10.280400 -9.334400
C -24.514100 -9.002300 -8.674200
N -24.302300 -14.037900 -11.573800
N -24.215300 -12.093600 -10.560600
H -24.094700 -9.164300 -7.826700
H -23.929400 -8.477200 -9.225600
C -23.771700 -10.897500 -10.011000
C -23.548200 -13.024900 -11.272900
O -22.655300 -10.482600 -10.104400
H -22.654900 -12.950300 -11.519900
