24
Fragment
H -27.598700 -20.675500 -15.542200
H -27.551400 -18.425800 -14.520200
H -27.040800 -20.446500 -16.989000
C -26.803500 -20.536900 -16.063100
C -26.684900 -18.384600 -14.853800
H -26.216000 -21.288400 -15.955400
N -26.144400 -19.348300 -15.621800
N -25.821000 -17.318000 -14.606800
C -24.884600 -18.903700 -15.893300
C -24.736100 -17.699900 -15.276400
H -23.973500 -15.033700 -15.312700
O -23.904200 -20.615300 -17.168100
C -23.843000 -19.525100 -16.603900
H -23.832300 -15.661000 -13.883400
N -23.580700 -16.991300 -15.350200
C -23.475900 -15.653800 -14.774200
N -22.674500 -18.761700 -16.605100
H -22.553700 -15.387400 -14.748500
C -22.488400 -17.499400 -16.025600
H -21.565100 -20.285800 -17.255900
C -21.518600 -19.327800 -17.288700
H -21.515100 -19.038500 -18.204100
O -21.454800 -16.905100 -16.132100
H -20.714300 -19.031800 -16.856700
24
Fragment
H -18.900700 -20.675500 -15.542200
H -18.853400 -18.425800 -14.520200
H -18.342800 -20.446500 -16.989000
C -18.105500 -20.536900 -16.063100
C -17.986900 -18.384600 -14.853800
H -17.518000 -21.288400 -15.955400
N -17.446400 -19.348300 -15.621800
N -17.123000 -17.318000 -14.606800
C -16.186600 -18.903700 -15.893300
C -16.038100 -17.699900 -15.276400
H -15.275500 -15.033700 -15.312700
O -15.206200 -20.615300 -17.168100
C -15.145000 -19.525100 -16.603900
H -15.134300 -15.661000 -13.883400
N -14.882700 -16.991300 -15.350200
C -14.777900 -15.653800 -14.774200
N -13.976500 -18.761700 -16.605100
H -13.855700 -15.387400 -14.748500
C -13.790400 -17.499400 -16.025600
H -12.867100 -20.285800 -17.255900
C -12.820600 -19.327800 -17.288700
H -12.817100 -19.038500 -18.204100
O -12.756800 -16.905100 -16.132100
H -12.016300 -19.031800 -16.856700
48
Fragment
H -27.598700 -20.675500 -15.542200
H -27.551400 -18.425800 -14.520200
H -27.040800 -20.446500 -16.989000
C -26.803500 -20.536900 -16.063100
C -26.684900 -18.384600 -14.853800
H -26.216000 -21.288400 -15.955400
N -26.144400 -19.348300 -15.621800
N -25.821000 -17.318000 -14.606800
C -24.884600 -18.903700 -15.893300
C -24.736100 -17.699900 -15.276400
H -23.973500 -15.033700 -15.312700
O -23.904200 -20.615300 -17.168100
C -23.843000 -19.525100 -16.603900
H -23.832300 -15.661000 -13.883400
N -23.580700 -16.991300 -15.350200
C -23.475900 -15.653800 -14.774200
N -22.674500 -18.761700 -16.605100
H -22.553700 -15.387400 -14.748500
C -22.488400 -17.499400 -16.025600
H -21.565100 -20.285800 -17.255900
C -21.518600 -19.327800 -17.288700
H -21.515100 -19.038500 -18.204100
O -21.454800 -16.905100 -16.132100
H -20.714300 -19.031800 -16.856700
H -18.900700 -20.675500 -15.542200
H -18.853400 -18.425800 -14.520200
H -18.342800 -20.446500 -16.989000
C -18.105500 -20.536900 -16.063100
C -17.986900 -18.384600 -14.853800
H -17.518000 -21.288400 -15.955400
N -17.446400 -19.348300 -15.621800
N -17.123000 -17.318000 -14.606800
C -16.186600 -18.903700 -15.893300
C -16.038100 -17.699900 -15.276400
H -15.275500 -15.033700 -15.312700
O -15.206200 -20.615300 -17.168100
C -15.145000 -19.525100 -16.603900
H -15.134300 -15.661000 -13.883400
N -14.882700 -16.991300 -15.350200
C -14.777900 -15.653800 -14.774200
N -13.976500 -18.761700 -16.605100
H -13.855700 -15.387400 -14.748500
C -13.790400 -17.499400 -16.025600
H -12.867100 -20.285800 -17.255900
C -12.820600 -19.327800 -17.288700
H -12.817100 -19.038500 -18.204100
O -12.756800 -16.905100 -16.132100
H -12.016300 -19.031800 -16.856700
