20
Fragment
H -24.944700 -17.477600 -19.061300
C -24.123100 -17.912700 -19.051800
N -23.838700 -18.962600 -19.770100
O -23.798500 -15.694100 -17.144800
H -23.342400 -20.763400 -21.195700
N -23.062700 -17.537700 -18.286700
C -22.924100 -16.474300 -17.397400
N -22.588700 -21.076300 -21.039500
C -22.536200 -19.295600 -19.483800
H -22.270600 -21.738400 -21.481100
C -22.025500 -18.417300 -18.557600
C -21.858300 -20.441000 -20.139600
H -21.855300 -15.574000 -15.067400
N -21.667700 -16.450300 -16.858100
H -21.589700 -14.551600 -16.225000
C -21.355100 -15.412100 -15.870900
N -20.799900 -18.279600 -17.954800
O -20.705500 -20.753300 -19.833000
N -20.627500 -17.320200 -17.132600
H -20.416000 -15.432000 -15.672100
20
Fragment
H -27.729900 -9.605300 -18.714600
H -27.181000 -9.555300 -17.247300
C -26.950200 -9.457400 -18.174400
H -26.615600 -8.571300 -18.329800
N -26.309300 -11.326800 -19.502300
N -25.917300 -10.439000 -18.526700
N -25.535600 -12.276300 -19.841400
H -25.037900 -14.352100 -20.878500
C -24.738500 -10.453600 -17.823400
O -24.448100 -9.692800 -16.938200
C -24.312400 -12.394100 -19.228500
H -24.294000 -15.575700 -21.565700
N -24.272000 -14.781900 -20.952500
N -23.910200 -11.488000 -18.257100
C -23.287100 -13.294500 -19.353100
C -23.198300 -14.497500 -20.222100
C -22.667600 -11.884800 -17.846700
N -22.281000 -12.953300 -18.484100
O -22.185600 -15.194800 -20.235000
H -22.164200 -11.448800 -17.197600
40
Fragment
H -24.944700 -17.477600 -19.061300
C -24.123100 -17.912700 -19.051800
N -23.838700 -18.962600 -19.770100
O -23.798500 -15.694100 -17.144800
H -23.342400 -20.763400 -21.195700
N -23.062700 -17.537700 -18.286700
C -22.924100 -16.474300 -17.397400
N -22.588700 -21.076300 -21.039500
C -22.536200 -19.295600 -19.483800
H -22.270600 -21.738400 -21.481100
C -22.025500 -18.417300 -18.557600
C -21.858300 -20.441000 -20.139600
H -21.855300 -15.574000 -15.067400
N -21.667700 -16.450300 -16.858100
H -21.589700 -14.551600 -16.225000
C -21.355100 -15.412100 -15.870900
N -20.799900 -18.279600 -17.954800
O -20.705500 -20.753300 -19.833000
N -20.627500 -17.320200 -17.132600
H -20.416000 -15.432000 -15.672100
H -27.729900 -9.605300 -18.714600
H -27.181000 -9.555300 -17.247300
C -26.950200 -9.457400 -18.174400
H -26.615600 -8.571300 -18.329800
N -26.309300 -11.326800 -19.502300
N -25.917300 -10.439000 -18.526700
N -25.535600 -12.276300 -19.841400
H -25.037900 -14.352100 -20.878500
C -24.738500 -10.453600 -17.823400
O -24.448100 -9.692800 -16.938200
C -24.312400 -12.394100 -19.228500
H -24.294000 -15.575700 -21.565700
N -24.272000 -14.781900 -20.952500
N -23.910200 -11.488000 -18.257100
C -23.287100 -13.294500 -19.353100
C -23.198300 -14.497500 -20.222100
C -22.667600 -11.884800 -17.846700
N -22.281000 -12.953300 -18.484100
O -22.185600 -15.194800 -20.235000
H -22.164200 -11.448800 -17.197600
