20
Fragment
H -24.944700 -17.477600 -19.061300
C -24.123100 -17.912700 -19.051800
N -23.838700 -18.962600 -19.770100
O -23.798500 -15.694100 -17.144800
H -23.342400 -20.763400 -21.195700
N -23.062700 -17.537700 -18.286700
C -22.924100 -16.474300 -17.397400
N -22.588700 -21.076300 -21.039500
C -22.536200 -19.295600 -19.483800
H -22.270600 -21.738400 -21.481100
C -22.025500 -18.417300 -18.557600
C -21.858300 -20.441000 -20.139600
H -21.855300 -15.574000 -15.067400
N -21.667700 -16.450300 -16.858100
H -21.589700 -14.551600 -16.225000
C -21.355100 -15.412100 -15.870900
N -20.799900 -18.279600 -17.954800
O -20.705500 -20.753300 -19.833000
N -20.627500 -17.320200 -17.132600
H -20.416000 -15.432000 -15.672100
20
Fragment
H -28.284600 -20.199800 -18.714600
H -27.735700 -20.149800 -17.247300
C -27.504900 -20.051900 -18.174400
H -27.170300 -19.165800 -18.329800
N -26.864000 -21.921200 -19.502300
N -26.472000 -21.033500 -18.526700
N -26.090300 -22.870800 -19.841400
H -25.592500 -24.946600 -20.878500
C -25.293200 -21.048100 -17.823400
O -25.002800 -20.287300 -16.938200
C -24.867100 -22.988600 -19.228500
H -24.848700 -26.170200 -21.565700
N -24.826700 -25.376400 -20.952500
N -24.464900 -22.082500 -18.257100
C -23.841800 -23.889000 -19.353100
C -23.752900 -25.092000 -20.222100
C -23.222300 -22.479200 -17.846700
N -22.835700 -23.547800 -18.484100
O -22.740300 -25.789200 -20.235000
H -22.718900 -22.043300 -17.197600
40
Fragment
H -24.944700 -17.477600 -19.061300
C -24.123100 -17.912700 -19.051800
N -23.838700 -18.962600 -19.770100
O -23.798500 -15.694100 -17.144800
H -23.342400 -20.763400 -21.195700
N -23.062700 -17.537700 -18.286700
C -22.924100 -16.474300 -17.397400
N -22.588700 -21.076300 -21.039500
C -22.536200 -19.295600 -19.483800
H -22.270600 -21.738400 -21.481100
C -22.025500 -18.417300 -18.557600
C -21.858300 -20.441000 -20.139600
H -21.855300 -15.574000 -15.067400
N -21.667700 -16.450300 -16.858100
H -21.589700 -14.551600 -16.225000
C -21.355100 -15.412100 -15.870900
N -20.799900 -18.279600 -17.954800
O -20.705500 -20.753300 -19.833000
N -20.627500 -17.320200 -17.132600
H -20.416000 -15.432000 -15.672100
H -28.284600 -20.199800 -18.714600
H -27.735700 -20.149800 -17.247300
C -27.504900 -20.051900 -18.174400
H -27.170300 -19.165800 -18.329800
N -26.864000 -21.921200 -19.502300
N -26.472000 -21.033500 -18.526700
N -26.090300 -22.870800 -19.841400
H -25.592500 -24.946600 -20.878500
C -25.293200 -21.048100 -17.823400
O -25.002800 -20.287300 -16.938200
C -24.867100 -22.988600 -19.228500
H -24.848700 -26.170200 -21.565700
N -24.826700 -25.376400 -20.952500
N -24.464900 -22.082500 -18.257100
C -23.841800 -23.889000 -19.353100
C -23.752900 -25.092000 -20.222100
C -23.222300 -22.479200 -17.846700
N -22.835700 -23.547800 -18.484100
O -22.740300 -25.789200 -20.235000
H -22.718900 -22.043300 -17.197600
