20
Fragment
H -24.944700 -17.477600 -19.061300
C -24.123100 -17.912700 -19.051800
N -23.838700 -18.962600 -19.770100
O -23.798500 -15.694100 -17.144800
H -23.342400 -20.763400 -21.195700
N -23.062700 -17.537700 -18.286700
C -22.924100 -16.474300 -17.397400
N -22.588700 -21.076300 -21.039500
C -22.536200 -19.295600 -19.483800
H -22.270600 -21.738400 -21.481100
C -22.025500 -18.417300 -18.557600
C -21.858300 -20.441000 -20.139600
H -21.855300 -15.574000 -15.067400
N -21.667700 -16.450300 -16.858100
H -21.589700 -14.551600 -16.225000
C -21.355100 -15.412100 -15.870900
N -20.799900 -18.279600 -17.954800
O -20.705500 -20.753300 -19.833000
N -20.627500 -17.320200 -17.132600
H -20.416000 -15.432000 -15.672100
20
Fragment
H -18.363700 -17.569300 -16.042100
N -18.152300 -15.681100 -14.581700
O -18.074200 -12.248000 -11.881200
N -17.979900 -14.721700 -13.759400
C -17.424700 -17.589200 -15.843400
H -17.190000 -18.449700 -15.489200
N -17.112000 -16.551000 -14.856100
H -16.924500 -17.427300 -16.646800
C -16.921400 -12.560300 -11.574600
C -16.754300 -14.584000 -13.156700
H -16.509200 -11.262900 -10.233100
C -16.243600 -13.705700 -12.230500
N -16.191000 -11.925100 -10.674700
C -15.855700 -16.527000 -14.316900
N -15.717000 -15.463600 -13.427500
H -15.437300 -12.238000 -10.518600
O -14.981200 -17.307200 -14.569400
N -14.941000 -14.038700 -11.944100
C -14.656700 -15.088600 -12.662400
H -13.835000 -15.523700 -12.652900
40
Fragment
H -24.944700 -17.477600 -19.061300
C -24.123100 -17.912700 -19.051800
N -23.838700 -18.962600 -19.770100
O -23.798500 -15.694100 -17.144800
H -23.342400 -20.763400 -21.195700
N -23.062700 -17.537700 -18.286700
C -22.924100 -16.474300 -17.397400
N -22.588700 -21.076300 -21.039500
C -22.536200 -19.295600 -19.483800
H -22.270600 -21.738400 -21.481100
C -22.025500 -18.417300 -18.557600
C -21.858300 -20.441000 -20.139600
H -21.855300 -15.574000 -15.067400
N -21.667700 -16.450300 -16.858100
H -21.589700 -14.551600 -16.225000
C -21.355100 -15.412100 -15.870900
N -20.799900 -18.279600 -17.954800
O -20.705500 -20.753300 -19.833000
N -20.627500 -17.320200 -17.132600
H -20.416000 -15.432000 -15.672100
H -18.363700 -17.569300 -16.042100
N -18.152300 -15.681100 -14.581700
O -18.074200 -12.248000 -11.881200
N -17.979900 -14.721700 -13.759400
C -17.424700 -17.589200 -15.843400
H -17.190000 -18.449700 -15.489200
N -17.112000 -16.551000 -14.856100
H -16.924500 -17.427300 -16.646800
C -16.921400 -12.560300 -11.574600
C -16.754300 -14.584000 -13.156700
H -16.509200 -11.262900 -10.233100
C -16.243600 -13.705700 -12.230500
N -16.191000 -11.925100 -10.674700
C -15.855700 -16.527000 -14.316900
N -15.717000 -15.463600 -13.427500
H -15.437300 -12.238000 -10.518600
O -14.981200 -17.307200 -14.569400
N -14.941000 -14.038700 -11.944100
C -14.656700 -15.088600 -12.662400
H -13.835000 -15.523700 -12.652900
