20
Fragment
H -24.944700 -17.477600 -19.061300
C -24.123100 -17.912700 -19.051800
N -23.838700 -18.962600 -19.770100
O -23.798500 -15.694100 -17.144800
H -23.342400 -20.763400 -21.195700
N -23.062700 -17.537700 -18.286700
C -22.924100 -16.474300 -17.397400
N -22.588700 -21.076300 -21.039500
C -22.536200 -19.295600 -19.483800
H -22.270600 -21.738400 -21.481100
C -22.025500 -18.417300 -18.557600
C -21.858300 -20.441000 -20.139600
H -21.855300 -15.574000 -15.067400
N -21.667700 -16.450300 -16.858100
H -21.589700 -14.551600 -16.225000
C -21.355100 -15.412100 -15.870900
N -20.799900 -18.279600 -17.954800
O -20.705500 -20.753300 -19.833000
N -20.627500 -17.320200 -17.132600
H -20.416000 -15.432000 -15.672100
15
Fragment
H -20.608000 -25.929200 -19.705100
H -20.452800 -24.194900 -18.492600
H -20.011300 -27.120200 -20.371100
H -19.996100 -22.509700 -17.011500
N -19.974900 -26.439900 -19.900700
C -19.636600 -24.173600 -18.047500
C -19.348900 -23.163300 -17.148900
C -18.838200 -26.300100 -19.237900
C -18.683700 -25.155900 -18.272700
N -18.211000 -23.062000 -16.466000
O -17.900600 -27.083700 -19.396200
C -17.495700 -25.052800 -17.575000
C -17.306400 -24.011500 -16.694400
H -16.825800 -25.685900 -17.699700
H -16.500200 -23.969400 -16.232400
35
Fragment
H -24.944700 -17.477600 -19.061300
C -24.123100 -17.912700 -19.051800
N -23.838700 -18.962600 -19.770100
O -23.798500 -15.694100 -17.144800
H -23.342400 -20.763400 -21.195700
N -23.062700 -17.537700 -18.286700
C -22.924100 -16.474300 -17.397400
N -22.588700 -21.076300 -21.039500
C -22.536200 -19.295600 -19.483800
H -22.270600 -21.738400 -21.481100
C -22.025500 -18.417300 -18.557600
C -21.858300 -20.441000 -20.139600
H -21.855300 -15.574000 -15.067400
N -21.667700 -16.450300 -16.858100
H -21.589700 -14.551600 -16.225000
C -21.355100 -15.412100 -15.870900
N -20.799900 -18.279600 -17.954800
O -20.705500 -20.753300 -19.833000
N -20.627500 -17.320200 -17.132600
H -20.416000 -15.432000 -15.672100
H -20.608000 -25.929200 -19.705100
H -20.452800 -24.194900 -18.492600
H -20.011300 -27.120200 -20.371100
H -19.996100 -22.509700 -17.011500
N -19.974900 -26.439900 -19.900700
C -19.636600 -24.173600 -18.047500
C -19.348900 -23.163300 -17.148900
C -18.838200 -26.300100 -19.237900
C -18.683700 -25.155900 -18.272700
N -18.211000 -23.062000 -16.466000
O -17.900600 -27.083700 -19.396200
C -17.495700 -25.052800 -17.575000
C -17.306400 -24.011500 -16.694400
H -16.825800 -25.685900 -17.699700
H -16.500200 -23.969400 -16.232400
