24
Fragment
H -27.598700 -20.675500 -15.542200
H -27.551400 -18.425800 -14.520200
H -27.040800 -20.446500 -16.989000
C -26.803500 -20.536900 -16.063100
C -26.684900 -18.384600 -14.853800
H -26.216000 -21.288400 -15.955400
N -26.144400 -19.348300 -15.621800
N -25.821000 -17.318000 -14.606800
C -24.884600 -18.903700 -15.893300
C -24.736100 -17.699900 -15.276400
H -23.973500 -15.033700 -15.312700
O -23.904200 -20.615300 -17.168100
C -23.843000 -19.525100 -16.603900
H -23.832300 -15.661000 -13.883400
N -23.580700 -16.991300 -15.350200
C -23.475900 -15.653800 -14.774200
N -22.674500 -18.761700 -16.605100
H -22.553700 -15.387400 -14.748500
C -22.488400 -17.499400 -16.025600
H -21.565100 -20.285800 -17.255900
C -21.518600 -19.327800 -17.288700
H -21.515100 -19.038500 -18.204100
O -21.454800 -16.905100 -16.132100
H -20.714300 -19.031800 -16.856700
24
Fragment
H -36.296700 -20.675500 -15.542200
H -36.249400 -18.425800 -14.520200
H -35.738800 -20.446500 -16.989000
C -35.501500 -20.536900 -16.063100
C -35.382900 -18.384600 -14.853800
H -34.914000 -21.288400 -15.955400
N -34.842400 -19.348300 -15.621800
N -34.519000 -17.318000 -14.606800
C -33.582600 -18.903700 -15.893300
C -33.434100 -17.699900 -15.276400
H -32.671500 -15.033700 -15.312700
O -32.602200 -20.615300 -17.168100
C -32.541000 -19.525100 -16.603900
H -32.530300 -15.661000 -13.883400
N -32.278700 -16.991300 -15.350200
C -32.173900 -15.653800 -14.774200
N -31.372500 -18.761700 -16.605100
H -31.251700 -15.387400 -14.748500
C -31.186400 -17.499400 -16.025600
H -30.263100 -20.285800 -17.255900
C -30.216600 -19.327800 -17.288700
H -30.213100 -19.038500 -18.204100
O -30.152800 -16.905100 -16.132100
H -29.412300 -19.031800 -16.856700
48
Fragment
H -27.598700 -20.675500 -15.542200
H -27.551400 -18.425800 -14.520200
H -27.040800 -20.446500 -16.989000
C -26.803500 -20.536900 -16.063100
C -26.684900 -18.384600 -14.853800
H -26.216000 -21.288400 -15.955400
N -26.144400 -19.348300 -15.621800
N -25.821000 -17.318000 -14.606800
C -24.884600 -18.903700 -15.893300
C -24.736100 -17.699900 -15.276400
H -23.973500 -15.033700 -15.312700
O -23.904200 -20.615300 -17.168100
C -23.843000 -19.525100 -16.603900
H -23.832300 -15.661000 -13.883400
N -23.580700 -16.991300 -15.350200
C -23.475900 -15.653800 -14.774200
N -22.674500 -18.761700 -16.605100
H -22.553700 -15.387400 -14.748500
C -22.488400 -17.499400 -16.025600
H -21.565100 -20.285800 -17.255900
C -21.518600 -19.327800 -17.288700
H -21.515100 -19.038500 -18.204100
O -21.454800 -16.905100 -16.132100
H -20.714300 -19.031800 -16.856700
H -36.296700 -20.675500 -15.542200
H -36.249400 -18.425800 -14.520200
H -35.738800 -20.446500 -16.989000
C -35.501500 -20.536900 -16.063100
C -35.382900 -18.384600 -14.853800
H -34.914000 -21.288400 -15.955400
N -34.842400 -19.348300 -15.621800
N -34.519000 -17.318000 -14.606800
C -33.582600 -18.903700 -15.893300
C -33.434100 -17.699900 -15.276400
H -32.671500 -15.033700 -15.312700
O -32.602200 -20.615300 -17.168100
C -32.541000 -19.525100 -16.603900
H -32.530300 -15.661000 -13.883400
N -32.278700 -16.991300 -15.350200
C -32.173900 -15.653800 -14.774200
N -31.372500 -18.761700 -16.605100
H -31.251700 -15.387400 -14.748500
C -31.186400 -17.499400 -16.025600
H -30.263100 -20.285800 -17.255900
C -30.216600 -19.327800 -17.288700
H -30.213100 -19.038500 -18.204100
O -30.152800 -16.905100 -16.132100
H -29.412300 -19.031800 -16.856700
