20
Fragment
H -24.944700 -17.477600 -19.061300
C -24.123100 -17.912700 -19.051800
N -23.838700 -18.962600 -19.770100
O -23.798500 -15.694100 -17.144800
H -23.342400 -20.763400 -21.195700
N -23.062700 -17.537700 -18.286700
C -22.924100 -16.474300 -17.397400
N -22.588700 -21.076300 -21.039500
C -22.536200 -19.295600 -19.483800
H -22.270600 -21.738400 -21.481100
C -22.025500 -18.417300 -18.557600
C -21.858300 -20.441000 -20.139600
H -21.855300 -15.574000 -15.067400
N -21.667700 -16.450300 -16.858100
H -21.589700 -14.551600 -16.225000
C -21.355100 -15.412100 -15.870900
N -20.799900 -18.279600 -17.954800
O -20.705500 -20.753300 -19.833000
N -20.627500 -17.320200 -17.132600
H -20.416000 -15.432000 -15.672100
20
Fragment
H -21.645300 -28.569800 -26.613500
N -21.433900 -26.681600 -25.153100
O -21.355800 -23.248500 -22.452600
N -21.261500 -25.722100 -24.330800
C -20.706200 -28.589700 -26.414800
H -20.471600 -29.450100 -26.060700
N -20.393600 -27.551400 -25.427500
H -20.206100 -28.427700 -27.218200
C -20.203000 -23.560800 -22.146100
C -20.035800 -25.584500 -23.728100
H -19.790800 -22.263300 -20.804500
C -19.525200 -24.706100 -22.801900
N -19.472600 -22.925500 -21.246100
C -19.137300 -27.527400 -24.888300
N -18.998600 -26.464000 -23.998900
H -18.718900 -23.238400 -21.090000
O -18.262800 -28.307700 -25.140800
N -18.222600 -25.039100 -22.515500
C -17.938300 -26.089100 -23.233900
H -17.116600 -26.524100 -23.224300
40
Fragment
H -24.944700 -17.477600 -19.061300
C -24.123100 -17.912700 -19.051800
N -23.838700 -18.962600 -19.770100
O -23.798500 -15.694100 -17.144800
H -23.342400 -20.763400 -21.195700
N -23.062700 -17.537700 -18.286700
C -22.924100 -16.474300 -17.397400
N -22.588700 -21.076300 -21.039500
C -22.536200 -19.295600 -19.483800
H -22.270600 -21.738400 -21.481100
C -22.025500 -18.417300 -18.557600
C -21.858300 -20.441000 -20.139600
H -21.855300 -15.574000 -15.067400
N -21.667700 -16.450300 -16.858100
H -21.589700 -14.551600 -16.225000
C -21.355100 -15.412100 -15.870900
N -20.799900 -18.279600 -17.954800
O -20.705500 -20.753300 -19.833000
N -20.627500 -17.320200 -17.132600
H -20.416000 -15.432000 -15.672100
H -21.645300 -28.569800 -26.613500
N -21.433900 -26.681600 -25.153100
O -21.355800 -23.248500 -22.452600
N -21.261500 -25.722100 -24.330800
C -20.706200 -28.589700 -26.414800
H -20.471600 -29.450100 -26.060700
N -20.393600 -27.551400 -25.427500
H -20.206100 -28.427700 -27.218200
C -20.203000 -23.560800 -22.146100
C -20.035800 -25.584500 -23.728100
H -19.790800 -22.263300 -20.804500
C -19.525200 -24.706100 -22.801900
N -19.472600 -22.925500 -21.246100
C -19.137300 -27.527400 -24.888300
N -18.998600 -26.464000 -23.998900
H -18.718900 -23.238400 -21.090000
O -18.262800 -28.307700 -25.140800
N -18.222600 -25.039100 -22.515500
C -17.938300 -26.089100 -23.233900
H -17.116600 -26.524100 -23.224300
