20
Fragment
H -24.944700 -17.477600 -19.061300
C -24.123100 -17.912700 -19.051800
N -23.838700 -18.962600 -19.770100
O -23.798500 -15.694100 -17.144800
H -23.342400 -20.763400 -21.195700
N -23.062700 -17.537700 -18.286700
C -22.924100 -16.474300 -17.397400
N -22.588700 -21.076300 -21.039500
C -22.536200 -19.295600 -19.483800
H -22.270600 -21.738400 -21.481100
C -22.025500 -18.417300 -18.557600
C -21.858300 -20.441000 -20.139600
H -21.855300 -15.574000 -15.067400
N -21.667700 -16.450300 -16.858100
H -21.589700 -14.551600 -16.225000
C -21.355100 -15.412100 -15.870900
N -20.799900 -18.279600 -17.954800
O -20.705500 -20.753300 -19.833000
N -20.627500 -17.320200 -17.132600
H -20.416000 -15.432000 -15.672100
20
Fragment
H -19.342400 -21.958500 -25.088100
O -19.321100 -18.212500 -22.050700
N -19.225700 -20.453900 -23.801500
C -18.839000 -21.522500 -24.439000
C -18.308400 -18.909800 -22.063600
C -18.219600 -20.112800 -22.932600
N -17.596500 -21.919300 -24.028500
N -17.234700 -18.625400 -21.333100
H -17.212700 -17.831600 -20.720000
C -17.194300 -21.013100 -23.057200
O -17.058500 -23.714400 -25.347500
C -16.768100 -22.953700 -24.462300
H -16.468800 -19.055200 -21.407100
N -15.971000 -21.130900 -22.444300
N -15.589400 -22.968300 -23.758900
N -15.197300 -22.080500 -22.783400
H -14.891000 -24.835900 -23.955900
C -14.556500 -23.949800 -24.111300
H -14.325700 -23.851900 -25.038400
H -13.776800 -23.802000 -23.571100
40
Fragment
H -24.944700 -17.477600 -19.061300
C -24.123100 -17.912700 -19.051800
N -23.838700 -18.962600 -19.770100
O -23.798500 -15.694100 -17.144800
H -23.342400 -20.763400 -21.195700
N -23.062700 -17.537700 -18.286700
C -22.924100 -16.474300 -17.397400
N -22.588700 -21.076300 -21.039500
C -22.536200 -19.295600 -19.483800
H -22.270600 -21.738400 -21.481100
C -22.025500 -18.417300 -18.557600
C -21.858300 -20.441000 -20.139600
H -21.855300 -15.574000 -15.067400
N -21.667700 -16.450300 -16.858100
H -21.589700 -14.551600 -16.225000
C -21.355100 -15.412100 -15.870900
N -20.799900 -18.279600 -17.954800
O -20.705500 -20.753300 -19.833000
N -20.627500 -17.320200 -17.132600
H -20.416000 -15.432000 -15.672100
H -19.342400 -21.958500 -25.088100
O -19.321100 -18.212500 -22.050700
N -19.225700 -20.453900 -23.801500
C -18.839000 -21.522500 -24.439000
C -18.308400 -18.909800 -22.063600
C -18.219600 -20.112800 -22.932600
N -17.596500 -21.919300 -24.028500
N -17.234700 -18.625400 -21.333100
H -17.212700 -17.831600 -20.720000
C -17.194300 -21.013100 -23.057200
O -17.058500 -23.714400 -25.347500
C -16.768100 -22.953700 -24.462300
H -16.468800 -19.055200 -21.407100
N -15.971000 -21.130900 -22.444300
N -15.589400 -22.968300 -23.758900
N -15.197300 -22.080500 -22.783400
H -14.891000 -24.835900 -23.955900
C -14.556500 -23.949800 -24.111300
H -14.325700 -23.851900 -25.038400
H -13.776800 -23.802000 -23.571100
