24
Fragment
H -27.598700 -20.675500 -15.542200
H -27.551400 -18.425800 -14.520200
H -27.040800 -20.446500 -16.989000
C -26.803500 -20.536900 -16.063100
C -26.684900 -18.384600 -14.853800
H -26.216000 -21.288400 -15.955400
N -26.144400 -19.348300 -15.621800
N -25.821000 -17.318000 -14.606800
C -24.884600 -18.903700 -15.893300
C -24.736100 -17.699900 -15.276400
H -23.973500 -15.033700 -15.312700
O -23.904200 -20.615300 -17.168100
C -23.843000 -19.525100 -16.603900
H -23.832300 -15.661000 -13.883400
N -23.580700 -16.991300 -15.350200
C -23.475900 -15.653800 -14.774200
N -22.674500 -18.761700 -16.605100
H -22.553700 -15.387400 -14.748500
C -22.488400 -17.499400 -16.025600
H -21.565100 -20.285800 -17.255900
C -21.518600 -19.327800 -17.288700
H -21.515100 -19.038500 -18.204100
O -21.454800 -16.905100 -16.132100
H -20.714300 -19.031800 -16.856700
24
Fragment
H -31.550900 -28.968900 -15.542200
H -31.503600 -26.719200 -14.520200
H -30.993000 -28.739900 -16.989000
C -30.755700 -28.830300 -16.063100
C -30.637100 -26.678000 -14.853800
H -30.168300 -29.581800 -15.955400
N -30.096700 -27.641700 -15.621800
N -29.773200 -25.611400 -14.606800
C -28.836800 -27.197200 -15.893300
C -28.688300 -25.993300 -15.276400
H -27.925700 -23.327100 -15.312700
O -27.856400 -28.908800 -17.168100
C -27.795200 -27.818600 -16.603900
H -27.784500 -23.954400 -13.883400
N -27.532900 -25.284800 -15.350200
C -27.428100 -23.947200 -14.774200
N -26.626700 -27.055100 -16.605100
H -26.505900 -23.680800 -14.748500
C -26.440600 -25.792800 -16.025600
H -25.517300 -28.579200 -17.255900
C -25.470800 -27.621200 -17.288700
H -25.467300 -27.331900 -18.204100
O -25.407000 -25.198500 -16.132100
H -24.666500 -27.325300 -16.856700
48
Fragment
H -27.598700 -20.675500 -15.542200
H -27.551400 -18.425800 -14.520200
H -27.040800 -20.446500 -16.989000
C -26.803500 -20.536900 -16.063100
C -26.684900 -18.384600 -14.853800
H -26.216000 -21.288400 -15.955400
N -26.144400 -19.348300 -15.621800
N -25.821000 -17.318000 -14.606800
C -24.884600 -18.903700 -15.893300
C -24.736100 -17.699900 -15.276400
H -23.973500 -15.033700 -15.312700
O -23.904200 -20.615300 -17.168100
C -23.843000 -19.525100 -16.603900
H -23.832300 -15.661000 -13.883400
N -23.580700 -16.991300 -15.350200
C -23.475900 -15.653800 -14.774200
N -22.674500 -18.761700 -16.605100
H -22.553700 -15.387400 -14.748500
C -22.488400 -17.499400 -16.025600
H -21.565100 -20.285800 -17.255900
C -21.518600 -19.327800 -17.288700
H -21.515100 -19.038500 -18.204100
O -21.454800 -16.905100 -16.132100
H -20.714300 -19.031800 -16.856700
H -31.550900 -28.968900 -15.542200
H -31.503600 -26.719200 -14.520200
H -30.993000 -28.739900 -16.989000
C -30.755700 -28.830300 -16.063100
C -30.637100 -26.678000 -14.853800
H -30.168300 -29.581800 -15.955400
N -30.096700 -27.641700 -15.621800
N -29.773200 -25.611400 -14.606800
C -28.836800 -27.197200 -15.893300
C -28.688300 -25.993300 -15.276400
H -27.925700 -23.327100 -15.312700
O -27.856400 -28.908800 -17.168100
C -27.795200 -27.818600 -16.603900
H -27.784500 -23.954400 -13.883400
N -27.532900 -25.284800 -15.350200
C -27.428100 -23.947200 -14.774200
N -26.626700 -27.055100 -16.605100
H -26.505900 -23.680800 -14.748500
C -26.440600 -25.792800 -16.025600
H -25.517300 -28.579200 -17.255900
C -25.470800 -27.621200 -17.288700
H -25.467300 -27.331900 -18.204100
O -25.407000 -25.198500 -16.132100
H -24.666500 -27.325300 -16.856700
