24
Fragment
H -27.598700 -20.675500 -15.542200
H -27.551400 -18.425800 -14.520200
H -27.040800 -20.446500 -16.989000
C -26.803500 -20.536900 -16.063100
C -26.684900 -18.384600 -14.853800
H -26.216000 -21.288400 -15.955400
N -26.144400 -19.348300 -15.621800
N -25.821000 -17.318000 -14.606800
C -24.884600 -18.903700 -15.893300
C -24.736100 -17.699900 -15.276400
H -23.973500 -15.033700 -15.312700
O -23.904200 -20.615300 -17.168100
C -23.843000 -19.525100 -16.603900
H -23.832300 -15.661000 -13.883400
N -23.580700 -16.991300 -15.350200
C -23.475900 -15.653800 -14.774200
N -22.674500 -18.761700 -16.605100
H -22.553700 -15.387400 -14.748500
C -22.488400 -17.499400 -16.025600
H -21.565100 -20.285800 -17.255900
C -21.518600 -19.327800 -17.288700
H -21.515100 -19.038500 -18.204100
O -21.454800 -16.905100 -16.132100
H -20.714300 -19.031800 -16.856700
24
Fragment
H -27.586000 -16.353600 -18.261500
O -26.845500 -18.480400 -18.986100
H -26.785300 -16.347000 -16.914100
C -26.781800 -16.057700 -17.829500
H -26.735200 -15.099700 -17.862300
C -25.811900 -17.886100 -19.092600
H -25.746600 -19.998100 -20.369700
N -25.625900 -16.623800 -18.513200
C -24.824500 -19.731700 -20.344000
N -24.719600 -18.394200 -19.768000
H -24.468100 -19.724500 -21.234800
C -24.457400 -15.860300 -18.514300
O -24.396200 -14.770200 -17.950100
H -24.326900 -20.351800 -19.805500
C -23.564300 -17.685600 -19.841800
C -23.415700 -16.481800 -19.224900
N -22.479400 -18.067500 -20.511400
N -22.155900 -16.037200 -19.496500
H -22.084300 -14.097100 -19.162800
C -21.615400 -17.000900 -20.264400
C -21.496800 -14.848600 -19.055100
H -21.259500 -14.939000 -18.129200
H -20.748900 -16.959700 -20.598000
H -20.701700 -14.710000 -19.576100
48
Fragment
H -27.598700 -20.675500 -15.542200
H -27.551400 -18.425800 -14.520200
H -27.040800 -20.446500 -16.989000
C -26.803500 -20.536900 -16.063100
C -26.684900 -18.384600 -14.853800
H -26.216000 -21.288400 -15.955400
N -26.144400 -19.348300 -15.621800
N -25.821000 -17.318000 -14.606800
C -24.884600 -18.903700 -15.893300
C -24.736100 -17.699900 -15.276400
H -23.973500 -15.033700 -15.312700
O -23.904200 -20.615300 -17.168100
C -23.843000 -19.525100 -16.603900
H -23.832300 -15.661000 -13.883400
N -23.580700 -16.991300 -15.350200
C -23.475900 -15.653800 -14.774200
N -22.674500 -18.761700 -16.605100
H -22.553700 -15.387400 -14.748500
C -22.488400 -17.499400 -16.025600
H -21.565100 -20.285800 -17.255900
C -21.518600 -19.327800 -17.288700
H -21.515100 -19.038500 -18.204100
O -21.454800 -16.905100 -16.132100
H -20.714300 -19.031800 -16.856700
H -27.586000 -16.353600 -18.261500
O -26.845500 -18.480400 -18.986100
H -26.785300 -16.347000 -16.914100
C -26.781800 -16.057700 -17.829500
H -26.735200 -15.099700 -17.862300
C -25.811900 -17.886100 -19.092600
H -25.746600 -19.998100 -20.369700
N -25.625900 -16.623800 -18.513200
C -24.824500 -19.731700 -20.344000
N -24.719600 -18.394200 -19.768000
H -24.468100 -19.724500 -21.234800
C -24.457400 -15.860300 -18.514300
O -24.396200 -14.770200 -17.950100
H -24.326900 -20.351800 -19.805500
C -23.564300 -17.685600 -19.841800
C -23.415700 -16.481800 -19.224900
N -22.479400 -18.067500 -20.511400
N -22.155900 -16.037200 -19.496500
H -22.084300 -14.097100 -19.162800
C -21.615400 -17.000900 -20.264400
C -21.496800 -14.848600 -19.055100
H -21.259500 -14.939000 -18.129200
H -20.748900 -16.959700 -20.598000
H -20.701700 -14.710000 -19.576100
