20
Fragment
H -24.944700 -17.477600 -19.061300
C -24.123100 -17.912700 -19.051800
N -23.838700 -18.962600 -19.770100
O -23.798500 -15.694100 -17.144800
H -23.342400 -20.763400 -21.195700
N -23.062700 -17.537700 -18.286700
C -22.924100 -16.474300 -17.397400
N -22.588700 -21.076300 -21.039500
C -22.536200 -19.295600 -19.483800
H -22.270600 -21.738400 -21.481100
C -22.025500 -18.417300 -18.557600
C -21.858300 -20.441000 -20.139600
H -21.855300 -15.574000 -15.067400
N -21.667700 -16.450300 -16.858100
H -21.589700 -14.551600 -16.225000
C -21.355100 -15.412100 -15.870900
N -20.799900 -18.279600 -17.954800
O -20.705500 -20.753300 -19.833000
N -20.627500 -17.320200 -17.132600
H -20.416000 -15.432000 -15.672100
15
Fragment
H -25.561100 -20.032400 -26.053300
H -25.235500 -18.315900 -24.585900
C -24.754900 -19.990300 -25.591300
C -24.565700 -18.948900 -24.710700
O -24.160700 -16.918100 -22.889400
N -23.850300 -20.939700 -25.819600
C -23.377700 -18.845900 -24.013000
C -23.223100 -17.701700 -23.047800
C -22.712500 -20.838400 -25.136700
C -22.424800 -19.828200 -24.238100
N -22.086500 -17.561800 -22.385000
H -22.065300 -21.492100 -25.274100
H -22.050000 -16.881600 -21.914500
H -21.608600 -19.806800 -23.793100
H -21.453400 -18.072600 -22.580500
35
Fragment
H -24.944700 -17.477600 -19.061300
C -24.123100 -17.912700 -19.051800
N -23.838700 -18.962600 -19.770100
O -23.798500 -15.694100 -17.144800
H -23.342400 -20.763400 -21.195700
N -23.062700 -17.537700 -18.286700
C -22.924100 -16.474300 -17.397400
N -22.588700 -21.076300 -21.039500
C -22.536200 -19.295600 -19.483800
H -22.270600 -21.738400 -21.481100
C -22.025500 -18.417300 -18.557600
C -21.858300 -20.441000 -20.139600
H -21.855300 -15.574000 -15.067400
N -21.667700 -16.450300 -16.858100
H -21.589700 -14.551600 -16.225000
C -21.355100 -15.412100 -15.870900
N -20.799900 -18.279600 -17.954800
O -20.705500 -20.753300 -19.833000
N -20.627500 -17.320200 -17.132600
H -20.416000 -15.432000 -15.672100
H -25.561100 -20.032400 -26.053300
H -25.235500 -18.315900 -24.585900
C -24.754900 -19.990300 -25.591300
C -24.565700 -18.948900 -24.710700
O -24.160700 -16.918100 -22.889400
N -23.850300 -20.939700 -25.819600
C -23.377700 -18.845900 -24.013000
C -23.223100 -17.701700 -23.047800
C -22.712500 -20.838400 -25.136700
C -22.424800 -19.828200 -24.238100
N -22.086500 -17.561800 -22.385000
H -22.065300 -21.492100 -25.274100
H -22.050000 -16.881600 -21.914500
H -21.608600 -19.806800 -23.793100
H -21.453400 -18.072600 -22.580500
