43
Fragment
Br -16.628200 -41.489600 -21.207200
H -15.155000 -40.895400 -18.894200
C -15.013100 -40.585200 -20.814700
C -14.573800 -40.508500 -19.498000
H -14.516000 -40.184000 -22.737600
C -14.257300 -40.050400 -21.842400
C -13.404700 -39.847400 -19.219100
H -13.082200 -30.883600 -22.973100
H -13.074600 -39.782700 -18.336300
C -13.053300 -39.382800 -21.570900
C -12.685300 -31.624200 -23.465300
H -12.684100 -33.020100 -21.882100
C -12.644200 -39.267000 -20.233200
H -12.602900 -30.586400 -25.266700
C -12.436300 -32.804900 -22.780900
C -12.382200 -31.483900 -24.789400
H -12.347500 -41.479700 -23.208700
C -12.247000 -38.840900 -22.675600
C -12.208600 -40.975900 -24.002100
H -12.191700 -42.584700 -25.254300
C -12.150500 -39.584500 -23.971100
C -12.106900 -41.650100 -25.220800
O -12.102200 -34.812400 -20.696300
H -12.009100 -41.329800 -27.213200
C -11.986700 -38.880300 -25.160100
C -11.974100 -40.945400 -26.386200
H -11.931500 -37.946000 -25.217100
C -11.904900 -39.568500 -26.377500
C -11.868200 -33.869900 -23.478900
C -11.839000 -35.527200 -21.639100
C -11.810700 -32.544800 -25.479900
N -11.790100 -36.936700 -21.444600
H -11.789900 -38.995100 -27.200800
N -11.645300 -35.149700 -22.908500
N -11.622100 -37.710200 -22.647800
C -11.549200 -33.729100 -24.829100
H -11.498800 -32.456200 -26.556100
N -11.442700 -38.620400 -19.887400
H -11.393300 -35.768800 -23.469000
H -11.149900 -34.483400 -25.254300
H -11.109200 -38.888400 -19.229000
C -11.050900 -37.397700 -20.320000
O -10.153900 -36.758100 -19.808700
43
Fragment
Br -16.592500 -22.020400 -27.406100
H -15.119300 -22.614600 -25.093100
C -14.977400 -22.924800 -27.013600
C -14.538100 -23.001500 -25.696900
H -14.480300 -23.326000 -28.936500
C -14.221600 -23.459600 -28.041300
C -13.369000 -23.662600 -25.418000
H -13.046500 -32.626400 -29.172000
H -13.038900 -23.727300 -24.535200
C -13.017600 -24.127200 -27.769800
C -12.649600 -31.885800 -29.664200
H -12.648400 -30.489900 -28.081000
C -12.608500 -24.243000 -26.432100
H -12.567200 -32.923600 -31.465600
C -12.400600 -30.705100 -28.979800
C -12.346500 -32.026100 -30.988300
H -12.311800 -22.030300 -29.407600
C -12.211300 -24.669100 -28.874500
C -12.172800 -22.534100 -30.201000
H -12.156000 -20.925300 -31.453200
C -12.114800 -23.925500 -30.170000
C -12.071200 -21.859900 -31.419700
O -12.066500 -28.697600 -26.895200
H -11.973400 -22.180200 -33.412100
C -11.951000 -24.629700 -31.359000
C -11.938400 -22.564600 -32.585100
H -11.895800 -25.564000 -31.416000
C -11.869200 -23.941500 -32.576400
C -11.832500 -29.640100 -29.677800
C -11.803300 -27.982800 -27.838000
C -11.775000 -30.965200 -31.678800
N -11.754400 -26.573300 -27.643500
H -11.754200 -24.514900 -33.399700
N -11.609600 -28.360300 -29.107400
N -11.586400 -25.799800 -28.846700
C -11.513500 -29.780900 -31.028000
H -11.463100 -31.053800 -32.755000
N -11.407000 -24.889600 -26.086300
H -11.357600 -27.741200 -29.667900
H -11.114200 -29.026600 -31.453200
H -11.073500 -24.621600 -25.427900
C -11.015200 -26.112300 -26.518900
O -10.118200 -26.751900 -26.007600
86
Fragment
Br -16.628200 -41.489600 -21.207200
H -15.155000 -40.895400 -18.894200
C -15.013100 -40.585200 -20.814700
C -14.573800 -40.508500 -19.498000
H -14.516000 -40.184000 -22.737600
C -14.257300 -40.050400 -21.842400
C -13.404700 -39.847400 -19.219100
H -13.082200 -30.883600 -22.973100
H -13.074600 -39.782700 -18.336300
C -13.053300 -39.382800 -21.570900
C -12.685300 -31.624200 -23.465300
H -12.684100 -33.020100 -21.882100
C -12.644200 -39.267000 -20.233200
H -12.602900 -30.586400 -25.266700
C -12.436300 -32.804900 -22.780900
C -12.382200 -31.483900 -24.789400
H -12.347500 -41.479700 -23.208700
C -12.247000 -38.840900 -22.675600
C -12.208600 -40.975900 -24.002100
H -12.191700 -42.584700 -25.254300
C -12.150500 -39.584500 -23.971100
C -12.106900 -41.650100 -25.220800
O -12.102200 -34.812400 -20.696300
H -12.009100 -41.329800 -27.213200
C -11.986700 -38.880300 -25.160100
C -11.974100 -40.945400 -26.386200
H -11.931500 -37.946000 -25.217100
C -11.904900 -39.568500 -26.377500
C -11.868200 -33.869900 -23.478900
C -11.839000 -35.527200 -21.639100
C -11.810700 -32.544800 -25.479900
N -11.790100 -36.936700 -21.444600
H -11.789900 -38.995100 -27.200800
N -11.645300 -35.149700 -22.908500
N -11.622100 -37.710200 -22.647800
C -11.549200 -33.729100 -24.829100
H -11.498800 -32.456200 -26.556100
N -11.442700 -38.620400 -19.887400
H -11.393300 -35.768800 -23.469000
H -11.149900 -34.483400 -25.254300
H -11.109200 -38.888400 -19.229000
C -11.050900 -37.397700 -20.320000
O -10.153900 -36.758100 -19.808700
Br -16.592500 -22.020400 -27.406100
H -15.119300 -22.614600 -25.093100
C -14.977400 -22.924800 -27.013600
C -14.538100 -23.001500 -25.696900
H -14.480300 -23.326000 -28.936500
C -14.221600 -23.459600 -28.041300
C -13.369000 -23.662600 -25.418000
H -13.046500 -32.626400 -29.172000
H -13.038900 -23.727300 -24.535200
C -13.017600 -24.127200 -27.769800
C -12.649600 -31.885800 -29.664200
H -12.648400 -30.489900 -28.081000
C -12.608500 -24.243000 -26.432100
H -12.567200 -32.923600 -31.465600
C -12.400600 -30.705100 -28.979800
C -12.346500 -32.026100 -30.988300
H -12.311800 -22.030300 -29.407600
C -12.211300 -24.669100 -28.874500
C -12.172800 -22.534100 -30.201000
H -12.156000 -20.925300 -31.453200
C -12.114800 -23.925500 -30.170000
C -12.071200 -21.859900 -31.419700
O -12.066500 -28.697600 -26.895200
H -11.973400 -22.180200 -33.412100
C -11.951000 -24.629700 -31.359000
C -11.938400 -22.564600 -32.585100
H -11.895800 -25.564000 -31.416000
C -11.869200 -23.941500 -32.576400
C -11.832500 -29.640100 -29.677800
C -11.803300 -27.982800 -27.838000
C -11.775000 -30.965200 -31.678800
N -11.754400 -26.573300 -27.643500
H -11.754200 -24.514900 -33.399700
N -11.609600 -28.360300 -29.107400
N -11.586400 -25.799800 -28.846700
C -11.513500 -29.780900 -31.028000
H -11.463100 -31.053800 -32.755000
N -11.407000 -24.889600 -26.086300
H -11.357600 -27.741200 -29.667900
H -11.114200 -29.026600 -31.453200
H -11.073500 -24.621600 -25.427900
C -11.015200 -26.112300 -26.518900
O -10.118200 -26.751900 -26.007600
