43
Fragment
Br -16.628200 -41.489600 -21.207200
H -15.155000 -40.895400 -18.894200
C -15.013100 -40.585200 -20.814700
C -14.573800 -40.508500 -19.498000
H -14.516000 -40.184000 -22.737600
C -14.257300 -40.050400 -21.842400
C -13.404700 -39.847400 -19.219100
H -13.082200 -30.883600 -22.973100
H -13.074600 -39.782700 -18.336300
C -13.053300 -39.382800 -21.570900
C -12.685300 -31.624200 -23.465300
H -12.684100 -33.020100 -21.882100
C -12.644200 -39.267000 -20.233200
H -12.602900 -30.586400 -25.266700
C -12.436300 -32.804900 -22.780900
C -12.382200 -31.483900 -24.789400
H -12.347500 -41.479700 -23.208700
C -12.247000 -38.840900 -22.675600
C -12.208600 -40.975900 -24.002100
H -12.191700 -42.584700 -25.254300
C -12.150500 -39.584500 -23.971100
C -12.106900 -41.650100 -25.220800
O -12.102200 -34.812400 -20.696300
H -12.009100 -41.329800 -27.213200
C -11.986700 -38.880300 -25.160100
C -11.974100 -40.945400 -26.386200
H -11.931500 -37.946000 -25.217100
C -11.904900 -39.568500 -26.377500
C -11.868200 -33.869900 -23.478900
C -11.839000 -35.527200 -21.639100
C -11.810700 -32.544800 -25.479900
N -11.790100 -36.936700 -21.444600
H -11.789900 -38.995100 -27.200800
N -11.645300 -35.149700 -22.908500
N -11.622100 -37.710200 -22.647800
C -11.549200 -33.729100 -24.829100
H -11.498800 -32.456200 -26.556100
N -11.442700 -38.620400 -19.887400
H -11.393300 -35.768800 -23.469000
H -11.149900 -34.483400 -25.254300
H -11.109200 -38.888400 -19.229000
C -11.050900 -37.397700 -20.320000
O -10.153900 -36.758100 -19.808700
43
Fragment
O -16.976500 -39.453900 -29.782500
C -16.079500 -38.814300 -29.271200
H -16.021100 -37.323600 -30.362200
H -15.980400 -41.728600 -24.336900
H -15.737100 -40.443200 -26.122200
N -15.687700 -37.591600 -29.703800
H -15.631500 -43.755800 -23.035100
C -15.581100 -42.482900 -24.762100
N -15.508300 -38.501800 -26.943400
N -15.485100 -41.062300 -26.682700
H -15.340500 -37.216900 -22.390400
N -15.340300 -39.275300 -28.146600
C -15.319600 -43.667200 -24.111200
C -15.291300 -40.684800 -27.952100
C -15.262200 -42.342100 -26.112200
C -15.225400 -36.643500 -23.213600
H -15.198900 -38.266000 -24.374100
C -15.156300 -35.266600 -23.205000
C -15.143700 -37.331700 -24.431100
H -15.121300 -34.882200 -22.378000
O -15.028200 -41.399600 -28.894900
C -15.023400 -34.561900 -24.370300
C -14.979900 -36.627500 -25.620000
H -14.938600 -33.627300 -24.336900
C -14.921800 -35.236100 -25.589000
C -14.883300 -37.371100 -26.915600
H -14.782900 -34.732300 -26.382500
C -14.748200 -44.728100 -24.801800
C -14.694100 -43.407100 -26.810200
H -14.527500 -45.625600 -24.324500
C -14.486100 -36.945000 -29.358000
H -14.446300 -43.191900 -27.709100
C -14.445100 -44.587800 -26.125900
C -14.077100 -36.829200 -28.020300
H -14.055700 -36.429300 -31.254800
H -14.048200 -45.328400 -26.618100
C -13.725700 -36.364600 -30.372100
C -12.873100 -36.161600 -27.748700
H -12.614300 -36.028000 -26.853600
C -12.556600 -35.703500 -30.093200
C -12.117300 -35.626800 -28.776500
H -11.975300 -35.316600 -30.696900
Br -10.502200 -34.722400 -28.384000
86
Fragment
Br -16.628200 -41.489600 -21.207200
H -15.155000 -40.895400 -18.894200
C -15.013100 -40.585200 -20.814700
C -14.573800 -40.508500 -19.498000
H -14.516000 -40.184000 -22.737600
C -14.257300 -40.050400 -21.842400
C -13.404700 -39.847400 -19.219100
H -13.082200 -30.883600 -22.973100
H -13.074600 -39.782700 -18.336300
C -13.053300 -39.382800 -21.570900
C -12.685300 -31.624200 -23.465300
H -12.684100 -33.020100 -21.882100
C -12.644200 -39.267000 -20.233200
H -12.602900 -30.586400 -25.266700
C -12.436300 -32.804900 -22.780900
C -12.382200 -31.483900 -24.789400
H -12.347500 -41.479700 -23.208700
C -12.247000 -38.840900 -22.675600
C -12.208600 -40.975900 -24.002100
H -12.191700 -42.584700 -25.254300
C -12.150500 -39.584500 -23.971100
C -12.106900 -41.650100 -25.220800
O -12.102200 -34.812400 -20.696300
H -12.009100 -41.329800 -27.213200
C -11.986700 -38.880300 -25.160100
C -11.974100 -40.945400 -26.386200
H -11.931500 -37.946000 -25.217100
C -11.904900 -39.568500 -26.377500
C -11.868200 -33.869900 -23.478900
C -11.839000 -35.527200 -21.639100
C -11.810700 -32.544800 -25.479900
N -11.790100 -36.936700 -21.444600
H -11.789900 -38.995100 -27.200800
N -11.645300 -35.149700 -22.908500
N -11.622100 -37.710200 -22.647800
C -11.549200 -33.729100 -24.829100
H -11.498800 -32.456200 -26.556100
N -11.442700 -38.620400 -19.887400
H -11.393300 -35.768800 -23.469000
H -11.149900 -34.483400 -25.254300
H -11.109200 -38.888400 -19.229000
C -11.050900 -37.397700 -20.320000
O -10.153900 -36.758100 -19.808700
O -16.976500 -39.453900 -29.782500
C -16.079500 -38.814300 -29.271200
H -16.021100 -37.323600 -30.362200
H -15.980400 -41.728600 -24.336900
H -15.737100 -40.443200 -26.122200
N -15.687700 -37.591600 -29.703800
H -15.631500 -43.755800 -23.035100
C -15.581100 -42.482900 -24.762100
N -15.508300 -38.501800 -26.943400
N -15.485100 -41.062300 -26.682700
H -15.340500 -37.216900 -22.390400
N -15.340300 -39.275300 -28.146600
C -15.319600 -43.667200 -24.111200
C -15.291300 -40.684800 -27.952100
C -15.262200 -42.342100 -26.112200
C -15.225400 -36.643500 -23.213600
H -15.198900 -38.266000 -24.374100
C -15.156300 -35.266600 -23.205000
C -15.143700 -37.331700 -24.431100
H -15.121300 -34.882200 -22.378000
O -15.028200 -41.399600 -28.894900
C -15.023400 -34.561900 -24.370300
C -14.979900 -36.627500 -25.620000
H -14.938600 -33.627300 -24.336900
C -14.921800 -35.236100 -25.589000
C -14.883300 -37.371100 -26.915600
H -14.782900 -34.732300 -26.382500
C -14.748200 -44.728100 -24.801800
C -14.694100 -43.407100 -26.810200
H -14.527500 -45.625600 -24.324500
C -14.486100 -36.945000 -29.358000
H -14.446300 -43.191900 -27.709100
C -14.445100 -44.587800 -26.125900
C -14.077100 -36.829200 -28.020300
H -14.055700 -36.429300 -31.254800
H -14.048200 -45.328400 -26.618100
C -13.725700 -36.364600 -30.372100
C -12.873100 -36.161600 -27.748700
H -12.614300 -36.028000 -26.853600
C -12.556600 -35.703500 -30.093200
C -12.117300 -35.626800 -28.776500
H -11.975300 -35.316600 -30.696900
Br -10.502200 -34.722400 -28.384000
