18
Fragment
O -19.879500 -17.137200 -15.946400
H -19.726100 -15.010100 -12.273600
H -19.322300 -15.980500 -14.115000
N -18.956200 -17.975100 -16.052200
O -18.914200 -18.853200 -16.905800
C -18.823500 -15.378500 -12.374000
N -18.732300 -16.096200 -13.628400
H -18.636700 -15.992500 -11.633000
H -18.169900 -14.648400 -12.367100
C -17.920000 -17.868500 -15.112700
C -17.837400 -17.017200 -13.988600
N -16.862600 -18.718300 -15.148700
H -16.631500 -19.225900 -15.777800
C -16.618900 -17.469300 -13.420000
N -16.072200 -18.476900 -14.121900
O -16.028400 -15.805300 -11.971700
N -15.882100 -16.973800 -12.305800
O -15.101600 -17.757900 -11.747900
18
Fragment
O -17.832600 -10.445300 -11.240700
N -17.052200 -11.229400 -10.682800
O -16.905900 -12.397900 -11.016900
N -16.862100 -9.726300 -8.866700
C -16.315300 -10.733800 -9.568600
H -16.302700 -8.977200 -7.210800
N -16.071600 -9.484900 -7.839900
C -15.096800 -11.186000 -9.000000
C -15.014200 -10.334700 -7.875900
H -14.764300 -13.554700 -10.621500
H -14.297600 -12.210700 -11.355600
N -14.202000 -12.107000 -9.360200
C -14.110700 -12.824700 -10.614600
O -14.020100 -9.350000 -6.082800
N -13.978000 -10.228100 -6.936400
H -13.612000 -12.222700 -8.873600
H -13.208100 -13.193100 -10.715000
O -13.054800 -11.066000 -7.042200
36
Fragment
O -19.879500 -17.137200 -15.946400
H -19.726100 -15.010100 -12.273600
H -19.322300 -15.980500 -14.115000
N -18.956200 -17.975100 -16.052200
O -18.914200 -18.853200 -16.905800
C -18.823500 -15.378500 -12.374000
N -18.732300 -16.096200 -13.628400
H -18.636700 -15.992500 -11.633000
H -18.169900 -14.648400 -12.367100
C -17.920000 -17.868500 -15.112700
C -17.837400 -17.017200 -13.988600
N -16.862600 -18.718300 -15.148700
H -16.631500 -19.225900 -15.777800
C -16.618900 -17.469300 -13.420000
N -16.072200 -18.476900 -14.121900
O -16.028400 -15.805300 -11.971700
N -15.882100 -16.973800 -12.305800
O -15.101600 -17.757900 -11.747900
O -17.832600 -10.445300 -11.240700
N -17.052200 -11.229400 -10.682800
O -16.905900 -12.397900 -11.016900
N -16.862100 -9.726300 -8.866700
C -16.315300 -10.733800 -9.568600
H -16.302700 -8.977200 -7.210800
N -16.071600 -9.484900 -7.839900
C -15.096800 -11.186000 -9.000000
C -15.014200 -10.334700 -7.875900
H -14.764300 -13.554700 -10.621500
H -14.297600 -12.210700 -11.355600
N -14.202000 -12.107000 -9.360200
C -14.110700 -12.824700 -10.614600
O -14.020100 -9.350000 -6.082800
N -13.978000 -10.228100 -6.936400
H -13.612000 -12.222700 -8.873600
H -13.208100 -13.193100 -10.715000
O -13.054800 -11.066000 -7.042200
