18
Fragment
O -19.879500 -17.137200 -15.946400
H -19.726100 -15.010100 -12.273600
H -19.322300 -15.980500 -14.115000
N -18.956200 -17.975100 -16.052200
O -18.914200 -18.853200 -16.905800
C -18.823500 -15.378500 -12.374000
N -18.732300 -16.096200 -13.628400
H -18.636700 -15.992500 -11.633000
H -18.169900 -14.648400 -12.367100
C -17.920000 -17.868500 -15.112700
C -17.837400 -17.017200 -13.988600
N -16.862600 -18.718300 -15.148700
H -16.631500 -19.225900 -15.777800
C -16.618900 -17.469300 -13.420000
N -16.072200 -18.476900 -14.121900
O -16.028400 -15.805300 -11.971700
N -15.882100 -16.973800 -12.305800
O -15.101600 -17.757900 -11.747900
18
Fragment
O -26.208200 -17.137200 -15.946400
H -26.054800 -15.010100 -12.273600
H -25.651000 -15.980500 -14.115000
N -25.284900 -17.975100 -16.052200
O -25.242900 -18.853200 -16.905800
C -25.152200 -15.378500 -12.374000
N -25.061000 -16.096200 -13.628400
H -24.965400 -15.992500 -11.633000
H -24.498600 -14.648400 -12.367100
C -24.248700 -17.868500 -15.112700
C -24.166100 -17.017200 -13.988600
N -23.191300 -18.718300 -15.148700
H -22.960200 -19.225900 -15.777800
C -22.947600 -17.469300 -13.420000
N -22.400900 -18.476900 -14.121900
O -22.357100 -15.805300 -11.971700
N -22.210800 -16.973800 -12.305800
O -21.430300 -17.757900 -11.747900
36
Fragment
O -19.879500 -17.137200 -15.946400
H -19.726100 -15.010100 -12.273600
H -19.322300 -15.980500 -14.115000
N -18.956200 -17.975100 -16.052200
O -18.914200 -18.853200 -16.905800
C -18.823500 -15.378500 -12.374000
N -18.732300 -16.096200 -13.628400
H -18.636700 -15.992500 -11.633000
H -18.169900 -14.648400 -12.367100
C -17.920000 -17.868500 -15.112700
C -17.837400 -17.017200 -13.988600
N -16.862600 -18.718300 -15.148700
H -16.631500 -19.225900 -15.777800
C -16.618900 -17.469300 -13.420000
N -16.072200 -18.476900 -14.121900
O -16.028400 -15.805300 -11.971700
N -15.882100 -16.973800 -12.305800
O -15.101600 -17.757900 -11.747900
O -26.208200 -17.137200 -15.946400
H -26.054800 -15.010100 -12.273600
H -25.651000 -15.980500 -14.115000
N -25.284900 -17.975100 -16.052200
O -25.242900 -18.853200 -16.905800
C -25.152200 -15.378500 -12.374000
N -25.061000 -16.096200 -13.628400
H -24.965400 -15.992500 -11.633000
H -24.498600 -14.648400 -12.367100
C -24.248700 -17.868500 -15.112700
C -24.166100 -17.017200 -13.988600
N -23.191300 -18.718300 -15.148700
H -22.960200 -19.225900 -15.777800
C -22.947600 -17.469300 -13.420000
N -22.400900 -18.476900 -14.121900
O -22.357100 -15.805300 -11.971700
N -22.210800 -16.973800 -12.305800
O -21.430300 -17.757900 -11.747900
