18
Fragment
O -19.879500 -17.137200 -15.946400
H -19.726100 -15.010100 -12.273600
H -19.322300 -15.980500 -14.115000
N -18.956200 -17.975100 -16.052200
O -18.914200 -18.853200 -16.905800
C -18.823500 -15.378500 -12.374000
N -18.732300 -16.096200 -13.628400
H -18.636700 -15.992500 -11.633000
H -18.169900 -14.648400 -12.367100
C -17.920000 -17.868500 -15.112700
C -17.837400 -17.017200 -13.988600
N -16.862600 -18.718300 -15.148700
H -16.631500 -19.225900 -15.777800
C -16.618900 -17.469300 -13.420000
N -16.072200 -18.476900 -14.121900
O -16.028400 -15.805300 -11.971700
N -15.882100 -16.973800 -12.305800
O -15.101600 -17.757900 -11.747900
3
Fragment
H -20.675200 -16.930200 -9.869800
O -20.318200 -16.742500 -9.230700
H -19.649900 -16.990600 -9.172400
21
Fragment
O -19.879500 -17.137200 -15.946400
H -19.726100 -15.010100 -12.273600
H -19.322300 -15.980500 -14.115000
N -18.956200 -17.975100 -16.052200
O -18.914200 -18.853200 -16.905800
C -18.823500 -15.378500 -12.374000
N -18.732300 -16.096200 -13.628400
H -18.636700 -15.992500 -11.633000
H -18.169900 -14.648400 -12.367100
C -17.920000 -17.868500 -15.112700
C -17.837400 -17.017200 -13.988600
N -16.862600 -18.718300 -15.148700
H -16.631500 -19.225900 -15.777800
C -16.618900 -17.469300 -13.420000
N -16.072200 -18.476900 -14.121900
O -16.028400 -15.805300 -11.971700
N -15.882100 -16.973800 -12.305800
O -15.101600 -17.757900 -11.747900
H -20.675200 -16.930200 -9.869800
O -20.318200 -16.742500 -9.230700
H -19.649900 -16.990600 -9.172400
