18
Fragment
O -19.879500 -17.137200 -15.946400
H -19.726100 -15.010100 -12.273600
H -19.322300 -15.980500 -14.115000
N -18.956200 -17.975100 -16.052200
O -18.914200 -18.853200 -16.905800
C -18.823500 -15.378500 -12.374000
N -18.732300 -16.096200 -13.628400
H -18.636700 -15.992500 -11.633000
H -18.169900 -14.648400 -12.367100
C -17.920000 -17.868500 -15.112700
C -17.837400 -17.017200 -13.988600
N -16.862600 -18.718300 -15.148700
H -16.631500 -19.225900 -15.777800
C -16.618900 -17.469300 -13.420000
N -16.072200 -18.476900 -14.121900
O -16.028400 -15.805300 -11.971700
N -15.882100 -16.973800 -12.305800
O -15.101600 -17.757900 -11.747900
18
Fragment
O -26.065400 -14.278600 -18.903500
N -25.284900 -15.062700 -18.345700
O -25.138600 -16.231200 -18.679800
N -25.094900 -13.559600 -16.529600
C -24.548100 -14.567200 -17.231500
H -24.535500 -12.810600 -14.873600
N -24.304400 -13.318200 -15.502700
C -23.329600 -15.019300 -16.662900
C -23.247000 -14.168000 -15.538800
H -22.997100 -17.388000 -18.284400
H -22.530400 -16.044000 -19.018500
N -22.434800 -15.940300 -17.023100
C -22.343500 -16.658000 -18.277500
O -22.252900 -13.183300 -13.745600
N -22.210800 -14.061400 -14.599300
H -21.844800 -16.056000 -16.536500
H -21.440900 -17.026400 -18.377800
O -21.287500 -14.899300 -14.705000
36
Fragment
O -19.879500 -17.137200 -15.946400
H -19.726100 -15.010100 -12.273600
H -19.322300 -15.980500 -14.115000
N -18.956200 -17.975100 -16.052200
O -18.914200 -18.853200 -16.905800
C -18.823500 -15.378500 -12.374000
N -18.732300 -16.096200 -13.628400
H -18.636700 -15.992500 -11.633000
H -18.169900 -14.648400 -12.367100
C -17.920000 -17.868500 -15.112700
C -17.837400 -17.017200 -13.988600
N -16.862600 -18.718300 -15.148700
H -16.631500 -19.225900 -15.777800
C -16.618900 -17.469300 -13.420000
N -16.072200 -18.476900 -14.121900
O -16.028400 -15.805300 -11.971700
N -15.882100 -16.973800 -12.305800
O -15.101600 -17.757900 -11.747900
O -26.065400 -14.278600 -18.903500
N -25.284900 -15.062700 -18.345700
O -25.138600 -16.231200 -18.679800
N -25.094900 -13.559600 -16.529600
C -24.548100 -14.567200 -17.231500
H -24.535500 -12.810600 -14.873600
N -24.304400 -13.318200 -15.502700
C -23.329600 -15.019300 -16.662900
C -23.247000 -14.168000 -15.538800
H -22.997100 -17.388000 -18.284400
H -22.530400 -16.044000 -19.018500
N -22.434800 -15.940300 -17.023100
C -22.343500 -16.658000 -18.277500
O -22.252900 -13.183300 -13.745600
N -22.210800 -14.061400 -14.599300
H -21.844800 -16.056000 -16.536500
H -21.440900 -17.026400 -18.377800
O -21.287500 -14.899300 -14.705000
