24
Fragment
H -19.004400 -12.572500 -33.250400
H -18.981800 -13.549300 -29.025900
N -18.971900 -12.733800 -31.295400
C -18.816200 -12.115400 -32.463300
N -18.758000 -12.719100 -29.011900
C -18.687300 -12.026600 -30.156200
H -18.579000 -12.334600 -28.264900
C -18.379500 -10.805400 -32.522400
N -18.331900 -10.732900 -30.084200
C -18.183800 -10.178000 -31.290600
N -18.103700 -9.911600 -33.563500
H -17.896100 -8.051700 -29.752500
H -17.881600 -6.999100 -30.912400
N -17.819700 -8.889200 -31.568200
C -17.784500 -8.804500 -32.936600
H -17.552200 -8.024000 -33.385600
C -17.495100 -7.835000 -30.608200
H -16.090000 -5.779500 -29.599000
H -16.085300 -6.912700 -28.517000
C -16.013200 -7.653300 -30.425300
C -15.708500 -6.625100 -29.350700
H -15.619000 -7.367300 -31.263100
H -15.612300 -8.502200 -30.181200
H -14.758200 -6.532300 -29.257400
24
Fragment
H -19.004400 -4.425500 -33.250400
H -18.981800 -5.402300 -29.025900
N -18.971900 -4.586800 -31.295400
C -18.816200 -3.968400 -32.463300
N -18.758000 -4.572100 -29.011900
C -18.687300 -3.879600 -30.156200
H -18.579000 -4.187600 -28.264900
C -18.379500 -2.658400 -32.522400
N -18.331900 -2.585900 -30.084200
C -18.183800 -2.031000 -31.290600
N -18.103700 -1.764600 -33.563500
H -17.896100 0.095300 -29.752500
H -17.881600 1.147900 -30.912400
N -17.819700 -0.742200 -31.568200
C -17.784500 -0.657500 -32.936600
H -17.552200 0.123000 -33.385600
C -17.495100 0.312000 -30.608200
H -16.090000 2.367500 -29.599000
H -16.085300 1.234300 -28.517000
C -16.013200 0.493700 -30.425300
C -15.708500 1.521900 -29.350700
H -15.619000 0.779700 -31.263100
H -15.612300 -0.355200 -30.181200
H -14.758200 1.614700 -29.257400
48
Fragment
H -19.004400 -12.572500 -33.250400
H -18.981800 -13.549300 -29.025900
N -18.971900 -12.733800 -31.295400
C -18.816200 -12.115400 -32.463300
N -18.758000 -12.719100 -29.011900
C -18.687300 -12.026600 -30.156200
H -18.579000 -12.334600 -28.264900
C -18.379500 -10.805400 -32.522400
N -18.331900 -10.732900 -30.084200
C -18.183800 -10.178000 -31.290600
N -18.103700 -9.911600 -33.563500
H -17.896100 -8.051700 -29.752500
H -17.881600 -6.999100 -30.912400
N -17.819700 -8.889200 -31.568200
C -17.784500 -8.804500 -32.936600
H -17.552200 -8.024000 -33.385600
C -17.495100 -7.835000 -30.608200
H -16.090000 -5.779500 -29.599000
H -16.085300 -6.912700 -28.517000
C -16.013200 -7.653300 -30.425300
C -15.708500 -6.625100 -29.350700
H -15.619000 -7.367300 -31.263100
H -15.612300 -8.502200 -30.181200
H -14.758200 -6.532300 -29.257400
H -19.004400 -4.425500 -33.250400
H -18.981800 -5.402300 -29.025900
N -18.971900 -4.586800 -31.295400
C -18.816200 -3.968400 -32.463300
N -18.758000 -4.572100 -29.011900
C -18.687300 -3.879600 -30.156200
H -18.579000 -4.187600 -28.264900
C -18.379500 -2.658400 -32.522400
N -18.331900 -2.585900 -30.084200
C -18.183800 -2.031000 -31.290600
N -18.103700 -1.764600 -33.563500
H -17.896100 0.095300 -29.752500
H -17.881600 1.147900 -30.912400
N -17.819700 -0.742200 -31.568200
C -17.784500 -0.657500 -32.936600
H -17.552200 0.123000 -33.385600
C -17.495100 0.312000 -30.608200
H -16.090000 2.367500 -29.599000
H -16.085300 1.234300 -28.517000
C -16.013200 0.493700 -30.425300
C -15.708500 1.521900 -29.350700
H -15.619000 0.779700 -31.263100
H -15.612300 -0.355200 -30.181200
H -14.758200 1.614700 -29.257400
