24
Fragment
H -19.004400 -12.572500 -33.250400
H -18.981800 -13.549300 -29.025900
N -18.971900 -12.733800 -31.295400
C -18.816200 -12.115400 -32.463300
N -18.758000 -12.719100 -29.011900
C -18.687300 -12.026600 -30.156200
H -18.579000 -12.334600 -28.264900
C -18.379500 -10.805400 -32.522400
N -18.331900 -10.732900 -30.084200
C -18.183800 -10.178000 -31.290600
N -18.103700 -9.911600 -33.563500
H -17.896100 -8.051700 -29.752500
H -17.881600 -6.999100 -30.912400
N -17.819700 -8.889200 -31.568200
C -17.784500 -8.804500 -32.936600
H -17.552200 -8.024000 -33.385600
C -17.495100 -7.835000 -30.608200
H -16.090000 -5.779500 -29.599000
H -16.085300 -6.912700 -28.517000
C -16.013200 -7.653300 -30.425300
C -15.708500 -6.625100 -29.350700
H -15.619000 -7.367300 -31.263100
H -15.612300 -8.502200 -30.181200
H -14.758200 -6.532300 -29.257400
24
Fragment
H -22.689900 -17.908700 -39.508100
H -21.835800 -15.938800 -38.584300
H -21.829100 -17.073700 -37.502400
C -21.739600 -17.815900 -39.414800
C -21.434900 -16.787700 -38.340200
H -21.362900 -17.528300 -40.248400
H -21.358100 -18.661500 -39.166500
C -19.953100 -16.606000 -38.157300
H -19.895900 -16.417000 -35.379800
C -19.663600 -15.636500 -35.828900
N -19.628400 -15.551800 -37.197300
H -19.566500 -17.441900 -37.853100
H -19.552000 -16.389300 -39.013000
N -19.344400 -14.529400 -35.202000
C -19.264300 -14.263000 -37.474900
N -19.116200 -13.708100 -38.681300
C -19.068600 -13.635600 -36.243100
H -18.869100 -12.106400 -40.500600
C -18.760800 -12.414400 -38.609300
N -18.690100 -11.721900 -39.753600
C -18.631900 -12.325600 -36.302200
N -18.476300 -11.707200 -37.470100
H -18.466300 -10.891700 -39.739600
H -18.443800 -11.868500 -35.515100
48
Fragment
H -19.004400 -12.572500 -33.250400
H -18.981800 -13.549300 -29.025900
N -18.971900 -12.733800 -31.295400
C -18.816200 -12.115400 -32.463300
N -18.758000 -12.719100 -29.011900
C -18.687300 -12.026600 -30.156200
H -18.579000 -12.334600 -28.264900
C -18.379500 -10.805400 -32.522400
N -18.331900 -10.732900 -30.084200
C -18.183800 -10.178000 -31.290600
N -18.103700 -9.911600 -33.563500
H -17.896100 -8.051700 -29.752500
H -17.881600 -6.999100 -30.912400
N -17.819700 -8.889200 -31.568200
C -17.784500 -8.804500 -32.936600
H -17.552200 -8.024000 -33.385600
C -17.495100 -7.835000 -30.608200
H -16.090000 -5.779500 -29.599000
H -16.085300 -6.912700 -28.517000
C -16.013200 -7.653300 -30.425300
C -15.708500 -6.625100 -29.350700
H -15.619000 -7.367300 -31.263100
H -15.612300 -8.502200 -30.181200
H -14.758200 -6.532300 -29.257400
H -22.689900 -17.908700 -39.508100
H -21.835800 -15.938800 -38.584300
H -21.829100 -17.073700 -37.502400
C -21.739600 -17.815900 -39.414800
C -21.434900 -16.787700 -38.340200
H -21.362900 -17.528300 -40.248400
H -21.358100 -18.661500 -39.166500
C -19.953100 -16.606000 -38.157300
H -19.895900 -16.417000 -35.379800
C -19.663600 -15.636500 -35.828900
N -19.628400 -15.551800 -37.197300
H -19.566500 -17.441900 -37.853100
H -19.552000 -16.389300 -39.013000
N -19.344400 -14.529400 -35.202000
C -19.264300 -14.263000 -37.474900
N -19.116200 -13.708100 -38.681300
C -19.068600 -13.635600 -36.243100
H -18.869100 -12.106400 -40.500600
C -18.760800 -12.414400 -38.609300
N -18.690100 -11.721900 -39.753600
C -18.631900 -12.325600 -36.302200
N -18.476300 -11.707200 -37.470100
H -18.466300 -10.891700 -39.739600
H -18.443800 -11.868500 -35.515100
