24
Fragment
H -19.004400 -12.572500 -33.250400
H -18.981800 -13.549300 -29.025900
N -18.971900 -12.733800 -31.295400
C -18.816200 -12.115400 -32.463300
N -18.758000 -12.719100 -29.011900
C -18.687300 -12.026600 -30.156200
H -18.579000 -12.334600 -28.264900
C -18.379500 -10.805400 -32.522400
N -18.331900 -10.732900 -30.084200
C -18.183800 -10.178000 -31.290600
N -18.103700 -9.911600 -33.563500
H -17.896100 -8.051700 -29.752500
H -17.881600 -6.999100 -30.912400
N -17.819700 -8.889200 -31.568200
C -17.784500 -8.804500 -32.936600
H -17.552200 -8.024000 -33.385600
C -17.495100 -7.835000 -30.608200
H -16.090000 -5.779500 -29.599000
H -16.085300 -6.912700 -28.517000
C -16.013200 -7.653300 -30.425300
C -15.708500 -6.625100 -29.350700
H -15.619000 -7.367300 -31.263100
H -15.612300 -8.502200 -30.181200
H -14.758200 -6.532300 -29.257400
24
Fragment
H -19.004400 -20.719500 -33.250400
H -18.981800 -21.696300 -29.025900
N -18.971900 -20.880800 -31.295400
C -18.816200 -20.262400 -32.463300
N -18.758000 -20.866100 -29.011900
C -18.687300 -20.173600 -30.156200
H -18.579000 -20.481600 -28.264900
C -18.379500 -18.952400 -32.522400
N -18.331900 -18.879900 -30.084200
C -18.183800 -18.325000 -31.290600
N -18.103700 -18.058600 -33.563500
H -17.896100 -16.198700 -29.752500
H -17.881600 -15.146100 -30.912400
N -17.819700 -17.036200 -31.568200
C -17.784500 -16.951500 -32.936600
H -17.552200 -16.171000 -33.385600
C -17.495100 -15.982000 -30.608200
H -16.090000 -13.926500 -29.599000
H -16.085300 -15.059700 -28.517000
C -16.013200 -15.800300 -30.425300
C -15.708500 -14.772100 -29.350700
H -15.619000 -15.514300 -31.263100
H -15.612300 -16.649200 -30.181200
H -14.758200 -14.679300 -29.257400
48
Fragment
H -19.004400 -12.572500 -33.250400
H -18.981800 -13.549300 -29.025900
N -18.971900 -12.733800 -31.295400
C -18.816200 -12.115400 -32.463300
N -18.758000 -12.719100 -29.011900
C -18.687300 -12.026600 -30.156200
H -18.579000 -12.334600 -28.264900
C -18.379500 -10.805400 -32.522400
N -18.331900 -10.732900 -30.084200
C -18.183800 -10.178000 -31.290600
N -18.103700 -9.911600 -33.563500
H -17.896100 -8.051700 -29.752500
H -17.881600 -6.999100 -30.912400
N -17.819700 -8.889200 -31.568200
C -17.784500 -8.804500 -32.936600
H -17.552200 -8.024000 -33.385600
C -17.495100 -7.835000 -30.608200
H -16.090000 -5.779500 -29.599000
H -16.085300 -6.912700 -28.517000
C -16.013200 -7.653300 -30.425300
C -15.708500 -6.625100 -29.350700
H -15.619000 -7.367300 -31.263100
H -15.612300 -8.502200 -30.181200
H -14.758200 -6.532300 -29.257400
H -19.004400 -20.719500 -33.250400
H -18.981800 -21.696300 -29.025900
N -18.971900 -20.880800 -31.295400
C -18.816200 -20.262400 -32.463300
N -18.758000 -20.866100 -29.011900
C -18.687300 -20.173600 -30.156200
H -18.579000 -20.481600 -28.264900
C -18.379500 -18.952400 -32.522400
N -18.331900 -18.879900 -30.084200
C -18.183800 -18.325000 -31.290600
N -18.103700 -18.058600 -33.563500
H -17.896100 -16.198700 -29.752500
H -17.881600 -15.146100 -30.912400
N -17.819700 -17.036200 -31.568200
C -17.784500 -16.951500 -32.936600
H -17.552200 -16.171000 -33.385600
C -17.495100 -15.982000 -30.608200
H -16.090000 -13.926500 -29.599000
H -16.085300 -15.059700 -28.517000
C -16.013200 -15.800300 -30.425300
C -15.708500 -14.772100 -29.350700
H -15.619000 -15.514300 -31.263100
H -15.612300 -16.649200 -30.181200
H -14.758200 -14.679300 -29.257400
