24
Fragment
H -19.004400 -12.572500 -33.250400
H -18.981800 -13.549300 -29.025900
N -18.971900 -12.733800 -31.295400
C -18.816200 -12.115400 -32.463300
N -18.758000 -12.719100 -29.011900
C -18.687300 -12.026600 -30.156200
H -18.579000 -12.334600 -28.264900
C -18.379500 -10.805400 -32.522400
N -18.331900 -10.732900 -30.084200
C -18.183800 -10.178000 -31.290600
N -18.103700 -9.911600 -33.563500
H -17.896100 -8.051700 -29.752500
H -17.881600 -6.999100 -30.912400
N -17.819700 -8.889200 -31.568200
C -17.784500 -8.804500 -32.936600
H -17.552200 -8.024000 -33.385600
C -17.495100 -7.835000 -30.608200
H -16.090000 -5.779500 -29.599000
H -16.085300 -6.912700 -28.517000
C -16.013200 -7.653300 -30.425300
C -15.708500 -6.625100 -29.350700
H -15.619000 -7.367300 -31.263100
H -15.612300 -8.502200 -30.181200
H -14.758200 -6.532300 -29.257400
24
Fragment
H -16.448500 -10.605800 -28.047200
H -15.594400 -12.575700 -27.123400
H -15.587800 -11.440800 -26.041500
C -15.498300 -10.698600 -27.953900
C -15.193600 -11.726800 -26.879300
H -15.121500 -10.986200 -28.787500
H -15.116800 -9.853000 -27.705600
C -13.711700 -11.908500 -26.696400
H -13.654500 -12.097500 -23.918900
C -13.422200 -12.878000 -24.368000
N -13.387000 -12.962700 -25.736400
H -13.325200 -11.072600 -26.392200
H -13.310600 -12.125200 -27.552000
N -13.103000 -13.985100 -23.741100
C -13.023000 -14.251500 -26.014000
N -12.874800 -14.806400 -27.220400
C -12.827200 -14.878900 -24.782200
H -12.627800 -16.408100 -29.039700
C -12.519500 -16.100100 -27.148400
N -12.448800 -16.792600 -28.292600
C -12.390500 -16.188900 -24.841300
N -12.234900 -16.807300 -26.009200
H -12.224900 -17.622800 -28.278700
H -12.202400 -16.646000 -24.054200
48
Fragment
H -19.004400 -12.572500 -33.250400
H -18.981800 -13.549300 -29.025900
N -18.971900 -12.733800 -31.295400
C -18.816200 -12.115400 -32.463300
N -18.758000 -12.719100 -29.011900
C -18.687300 -12.026600 -30.156200
H -18.579000 -12.334600 -28.264900
C -18.379500 -10.805400 -32.522400
N -18.331900 -10.732900 -30.084200
C -18.183800 -10.178000 -31.290600
N -18.103700 -9.911600 -33.563500
H -17.896100 -8.051700 -29.752500
H -17.881600 -6.999100 -30.912400
N -17.819700 -8.889200 -31.568200
C -17.784500 -8.804500 -32.936600
H -17.552200 -8.024000 -33.385600
C -17.495100 -7.835000 -30.608200
H -16.090000 -5.779500 -29.599000
H -16.085300 -6.912700 -28.517000
C -16.013200 -7.653300 -30.425300
C -15.708500 -6.625100 -29.350700
H -15.619000 -7.367300 -31.263100
H -15.612300 -8.502200 -30.181200
H -14.758200 -6.532300 -29.257400
H -16.448500 -10.605800 -28.047200
H -15.594400 -12.575700 -27.123400
H -15.587800 -11.440800 -26.041500
C -15.498300 -10.698600 -27.953900
C -15.193600 -11.726800 -26.879300
H -15.121500 -10.986200 -28.787500
H -15.116800 -9.853000 -27.705600
C -13.711700 -11.908500 -26.696400
H -13.654500 -12.097500 -23.918900
C -13.422200 -12.878000 -24.368000
N -13.387000 -12.962700 -25.736400
H -13.325200 -11.072600 -26.392200
H -13.310600 -12.125200 -27.552000
N -13.103000 -13.985100 -23.741100
C -13.023000 -14.251500 -26.014000
N -12.874800 -14.806400 -27.220400
C -12.827200 -14.878900 -24.782200
H -12.627800 -16.408100 -29.039700
C -12.519500 -16.100100 -27.148400
N -12.448800 -16.792600 -28.292600
C -12.390500 -16.188900 -24.841300
N -12.234900 -16.807300 -26.009200
H -12.224900 -17.622800 -28.278700
H -12.202400 -16.646000 -24.054200
