41
Fragment
H -8.060200 -26.567500 -20.444100
H -7.697000 -26.801700 -18.936800
C -7.342100 -26.613900 -19.808900
H -6.881600 -26.237800 -22.275500
H -6.733400 -27.310500 -20.063800
O -6.651900 -25.366900 -19.781700
C -6.381700 -25.456400 -22.198500
C -6.175700 -24.889000 -20.964300
H -5.999000 -25.248600 -24.157000
C -5.844400 -24.862300 -23.325000
C -5.418300 -23.708700 -20.861400
O -5.289900 -23.231300 -19.590400
C -5.080400 -23.707100 -23.250200
H -4.987200 -21.315800 -19.899400
C -4.878800 -23.130200 -21.988300
H -4.787800 -23.603000 -25.252700
C -4.565100 -22.021600 -19.404300
H -4.553500 -21.796200 -18.471900
C -4.548800 -23.143100 -24.480000
H -4.376700 -22.351200 -21.912400
O -3.839200 -22.326700 -27.036100
C -3.779100 -22.080900 -24.684900
H -3.664700 -22.136400 -19.716300
H -3.463100 -21.582800 -23.966000
C -3.429900 -21.698200 -26.070700
H -2.874400 -21.265000 -28.711900
N -2.643300 -20.591900 -26.176800
C -2.403800 -20.468300 -28.613600
H -2.400800 -20.169900 -25.404500
C -2.166200 -19.956400 -27.334000
H -2.129400 -20.146100 -30.574600
C -1.947100 -19.802800 -29.729400
O -1.563800 -18.544300 -24.821300
C -1.407900 -18.775800 -27.205400
C -1.223800 -18.638100 -29.612800
C -1.092900 -18.162000 -25.888000
C -0.937300 -18.144400 -28.362100
H -0.932200 -18.188600 -30.372700
H -0.420800 -17.375500 -28.283000
O -0.272300 -17.155300 -25.976800
H -0.015500 -16.753300 -25.118000
41
Fragment
H -6.052800 -25.651400 -28.270500
H -5.689500 -25.417200 -26.763200
C -5.334700 -25.605000 -27.635300
H -4.874100 -25.981200 -30.101900
H -4.726000 -24.908400 -27.890200
O -4.644500 -26.852000 -27.608100
C -4.374300 -26.762500 -30.024900
C -4.168300 -27.329900 -28.790700
H -3.991600 -26.970300 -31.983400
C -3.837000 -27.356600 -31.151400
C -3.410800 -28.510200 -28.687800
O -3.282500 -28.987600 -27.416800
C -3.072900 -28.511800 -31.076600
H -2.979800 -30.903200 -27.725800
C -2.871300 -29.088800 -29.814700
H -2.780300 -28.616000 -33.079100
C -2.557700 -30.197300 -27.230700
H -2.546100 -30.422800 -26.298300
C -2.541400 -29.075800 -32.306400
H -2.369200 -29.867700 -29.738800
O -1.831700 -29.892200 -34.862500
C -1.771700 -30.138100 -32.511300
H -1.657300 -30.082600 -27.542700
H -1.455700 -30.636100 -31.792400
C -1.422500 -30.520800 -33.897100
H -0.867000 -30.953900 -36.538300
N -0.635800 -31.627100 -34.003200
C -0.396300 -31.750600 -36.440000
H -0.393300 -32.049000 -33.230900
C -0.158800 -32.262500 -35.160400
H -0.122000 -32.072900 -38.401000
C 0.060300 -32.416200 -37.555800
O 0.443700 -33.674700 -32.647700
C 0.599500 -33.443100 -35.031800
C 0.783600 -33.580800 -37.439200
C 0.914600 -34.056900 -33.714400
C 1.070100 -34.074500 -36.188500
H 1.075200 -34.030300 -38.199100
H 1.586700 -34.843500 -36.109400
O 1.735100 -35.063700 -33.803200
H 1.991900 -35.465600 -32.944500
82
Fragment
H -8.060200 -26.567500 -20.444100
H -7.697000 -26.801700 -18.936800
C -7.342100 -26.613900 -19.808900
H -6.881600 -26.237800 -22.275500
H -6.733400 -27.310500 -20.063800
O -6.651900 -25.366900 -19.781700
C -6.381700 -25.456400 -22.198500
C -6.175700 -24.889000 -20.964300
H -5.999000 -25.248600 -24.157000
C -5.844400 -24.862300 -23.325000
C -5.418300 -23.708700 -20.861400
O -5.289900 -23.231300 -19.590400
C -5.080400 -23.707100 -23.250200
H -4.987200 -21.315800 -19.899400
C -4.878800 -23.130200 -21.988300
H -4.787800 -23.603000 -25.252700
C -4.565100 -22.021600 -19.404300
H -4.553500 -21.796200 -18.471900
C -4.548800 -23.143100 -24.480000
H -4.376700 -22.351200 -21.912400
O -3.839200 -22.326700 -27.036100
C -3.779100 -22.080900 -24.684900
H -3.664700 -22.136400 -19.716300
H -3.463100 -21.582800 -23.966000
C -3.429900 -21.698200 -26.070700
H -2.874400 -21.265000 -28.711900
N -2.643300 -20.591900 -26.176800
C -2.403800 -20.468300 -28.613600
H -2.400800 -20.169900 -25.404500
C -2.166200 -19.956400 -27.334000
H -2.129400 -20.146100 -30.574600
C -1.947100 -19.802800 -29.729400
O -1.563800 -18.544300 -24.821300
C -1.407900 -18.775800 -27.205400
C -1.223800 -18.638100 -29.612800
C -1.092900 -18.162000 -25.888000
C -0.937300 -18.144400 -28.362100
H -0.932200 -18.188600 -30.372700
H -0.420800 -17.375500 -28.283000
O -0.272300 -17.155300 -25.976800
H -0.015500 -16.753300 -25.118000
H -6.052800 -25.651400 -28.270500
H -5.689500 -25.417200 -26.763200
C -5.334700 -25.605000 -27.635300
H -4.874100 -25.981200 -30.101900
H -4.726000 -24.908400 -27.890200
O -4.644500 -26.852000 -27.608100
C -4.374300 -26.762500 -30.024900
C -4.168300 -27.329900 -28.790700
H -3.991600 -26.970300 -31.983400
C -3.837000 -27.356600 -31.151400
C -3.410800 -28.510200 -28.687800
O -3.282500 -28.987600 -27.416800
C -3.072900 -28.511800 -31.076600
H -2.979800 -30.903200 -27.725800
C -2.871300 -29.088800 -29.814700
H -2.780300 -28.616000 -33.079100
C -2.557700 -30.197300 -27.230700
H -2.546100 -30.422800 -26.298300
C -2.541400 -29.075800 -32.306400
H -2.369200 -29.867700 -29.738800
O -1.831700 -29.892200 -34.862500
C -1.771700 -30.138100 -32.511300
H -1.657300 -30.082600 -27.542700
H -1.455700 -30.636100 -31.792400
C -1.422500 -30.520800 -33.897100
H -0.867000 -30.953900 -36.538300
N -0.635800 -31.627100 -34.003200
C -0.396300 -31.750600 -36.440000
H -0.393300 -32.049000 -33.230900
C -0.158800 -32.262500 -35.160400
H -0.122000 -32.072900 -38.401000
C 0.060300 -32.416200 -37.555800
O 0.443700 -33.674700 -32.647700
C 0.599500 -33.443100 -35.031800
C 0.783600 -33.580800 -37.439200
C 0.914600 -34.056900 -33.714400
C 1.070100 -34.074500 -36.188500
H 1.075200 -34.030300 -38.199100
H 1.586700 -34.843500 -36.109400
O 1.735100 -35.063700 -33.803200
H 1.991900 -35.465600 -32.944500
