41
Fragment
H -8.060200 -26.567500 -20.444100
H -7.697000 -26.801700 -18.936800
C -7.342100 -26.613900 -19.808900
H -6.881600 -26.237800 -22.275500
H -6.733400 -27.310500 -20.063800
O -6.651900 -25.366900 -19.781700
C -6.381700 -25.456400 -22.198500
C -6.175700 -24.889000 -20.964300
H -5.999000 -25.248600 -24.157000
C -5.844400 -24.862300 -23.325000
C -5.418300 -23.708700 -20.861400
O -5.289900 -23.231300 -19.590400
C -5.080400 -23.707100 -23.250200
H -4.987200 -21.315800 -19.899400
C -4.878800 -23.130200 -21.988300
H -4.787800 -23.603000 -25.252700
C -4.565100 -22.021600 -19.404300
H -4.553500 -21.796200 -18.471900
C -4.548800 -23.143100 -24.480000
H -4.376700 -22.351200 -21.912400
O -3.839200 -22.326700 -27.036100
C -3.779100 -22.080900 -24.684900
H -3.664700 -22.136400 -19.716300
H -3.463100 -21.582800 -23.966000
C -3.429900 -21.698200 -26.070700
H -2.874400 -21.265000 -28.711900
N -2.643300 -20.591900 -26.176800
C -2.403800 -20.468300 -28.613600
H -2.400800 -20.169900 -25.404500
C -2.166200 -19.956400 -27.334000
H -2.129400 -20.146100 -30.574600
C -1.947100 -19.802800 -29.729400
O -1.563800 -18.544300 -24.821300
C -1.407900 -18.775800 -27.205400
C -1.223800 -18.638100 -29.612800
C -1.092900 -18.162000 -25.888000
C -0.937300 -18.144400 -28.362100
H -0.932200 -18.188600 -30.372700
H -0.420800 -17.375500 -28.283000
O -0.272300 -17.155300 -25.976800
H -0.015500 -16.753300 -25.118000
8
Fragment
H -7.077300 -19.750700 -30.753100
H -6.843600 -20.268400 -29.331800
N -6.678000 -20.294200 -30.162500
C -5.839500 -21.227600 -30.591500
O -5.571700 -21.332800 -31.812400
H -5.423700 -21.812600 -29.020300
N -5.300300 -22.065300 -29.715300
H -4.636000 -22.554100 -30.014200
49
Fragment
H -8.060200 -26.567500 -20.444100
H -7.697000 -26.801700 -18.936800
C -7.342100 -26.613900 -19.808900
H -6.881600 -26.237800 -22.275500
H -6.733400 -27.310500 -20.063800
O -6.651900 -25.366900 -19.781700
C -6.381700 -25.456400 -22.198500
C -6.175700 -24.889000 -20.964300
H -5.999000 -25.248600 -24.157000
C -5.844400 -24.862300 -23.325000
C -5.418300 -23.708700 -20.861400
O -5.289900 -23.231300 -19.590400
C -5.080400 -23.707100 -23.250200
H -4.987200 -21.315800 -19.899400
C -4.878800 -23.130200 -21.988300
H -4.787800 -23.603000 -25.252700
C -4.565100 -22.021600 -19.404300
H -4.553500 -21.796200 -18.471900
C -4.548800 -23.143100 -24.480000
H -4.376700 -22.351200 -21.912400
O -3.839200 -22.326700 -27.036100
C -3.779100 -22.080900 -24.684900
H -3.664700 -22.136400 -19.716300
H -3.463100 -21.582800 -23.966000
C -3.429900 -21.698200 -26.070700
H -2.874400 -21.265000 -28.711900
N -2.643300 -20.591900 -26.176800
C -2.403800 -20.468300 -28.613600
H -2.400800 -20.169900 -25.404500
C -2.166200 -19.956400 -27.334000
H -2.129400 -20.146100 -30.574600
C -1.947100 -19.802800 -29.729400
O -1.563800 -18.544300 -24.821300
C -1.407900 -18.775800 -27.205400
C -1.223800 -18.638100 -29.612800
C -1.092900 -18.162000 -25.888000
C -0.937300 -18.144400 -28.362100
H -0.932200 -18.188600 -30.372700
H -0.420800 -17.375500 -28.283000
O -0.272300 -17.155300 -25.976800
H -0.015500 -16.753300 -25.118000
H -7.077300 -19.750700 -30.753100
H -6.843600 -20.268400 -29.331800
N -6.678000 -20.294200 -30.162500
C -5.839500 -21.227600 -30.591500
O -5.571700 -21.332800 -31.812400
H -5.423700 -21.812600 -29.020300
N -5.300300 -22.065300 -29.715300
H -4.636000 -22.554100 -30.014200
