41
Fragment
H -8.060200 -26.567500 -20.444100
H -7.697000 -26.801700 -18.936800
C -7.342100 -26.613900 -19.808900
H -6.881600 -26.237800 -22.275500
H -6.733400 -27.310500 -20.063800
O -6.651900 -25.366900 -19.781700
C -6.381700 -25.456400 -22.198500
C -6.175700 -24.889000 -20.964300
H -5.999000 -25.248600 -24.157000
C -5.844400 -24.862300 -23.325000
C -5.418300 -23.708700 -20.861400
O -5.289900 -23.231300 -19.590400
C -5.080400 -23.707100 -23.250200
H -4.987200 -21.315800 -19.899400
C -4.878800 -23.130200 -21.988300
H -4.787800 -23.603000 -25.252700
C -4.565100 -22.021600 -19.404300
H -4.553500 -21.796200 -18.471900
C -4.548800 -23.143100 -24.480000
H -4.376700 -22.351200 -21.912400
O -3.839200 -22.326700 -27.036100
C -3.779100 -22.080900 -24.684900
H -3.664700 -22.136400 -19.716300
H -3.463100 -21.582800 -23.966000
C -3.429900 -21.698200 -26.070700
H -2.874400 -21.265000 -28.711900
N -2.643300 -20.591900 -26.176800
C -2.403800 -20.468300 -28.613600
H -2.400800 -20.169900 -25.404500
C -2.166200 -19.956400 -27.334000
H -2.129400 -20.146100 -30.574600
C -1.947100 -19.802800 -29.729400
O -1.563800 -18.544300 -24.821300
C -1.407900 -18.775800 -27.205400
C -1.223800 -18.638100 -29.612800
C -1.092900 -18.162000 -25.888000
C -0.937300 -18.144400 -28.362100
H -0.932200 -18.188600 -30.372700
H -0.420800 -17.375500 -28.283000
O -0.272300 -17.155300 -25.976800
H -0.015500 -16.753300 -25.118000
41
Fragment
H -4.331200 -28.005800 -21.840400
O -4.074400 -27.603800 -20.981600
H -3.926000 -27.383600 -18.675400
H -3.414600 -26.570500 -16.585700
C -3.409400 -26.614700 -18.596300
C -3.253900 -26.597100 -21.070400
C -3.122900 -26.121000 -17.345700
C -2.938800 -25.983300 -19.753100
O -2.783000 -26.214800 -22.137100
C -2.399600 -24.956300 -17.229000
H -2.217300 -24.613000 -16.383800
C -2.180500 -24.802700 -19.624400
H -1.946000 -24.589200 -21.553900
C -1.943000 -24.290800 -18.344800
N -1.703500 -24.167200 -20.781600
H -1.472400 -23.494100 -18.246500
C -0.916800 -23.060900 -20.887700
H -0.883700 -23.176300 -22.992400
H -0.682000 -22.622700 -27.242100
C -0.567600 -22.678200 -22.273500
O -0.507600 -22.432400 -19.922300
H 0.029900 -22.407900 -25.046000
C 0.202000 -21.616000 -22.478400
H 0.206700 -22.962900 -28.486500
C 0.218400 -22.737500 -27.554100
H 0.441000 -21.156100 -21.705700
C 0.532000 -21.628900 -24.970100
H 0.640500 -23.443300 -27.059000
C 0.733600 -21.052000 -23.708200
O 0.943200 -21.527800 -27.368000
C 1.071500 -21.050400 -26.097000
C 1.497700 -19.896800 -23.633400
H 1.652300 -19.510500 -22.801400
C 1.829000 -19.870100 -25.994100
C 2.035000 -19.302700 -24.759900
O 2.305100 -19.392200 -27.176700
H 2.386600 -17.448600 -26.894600
H 2.534800 -18.521300 -24.682900
C 2.995400 -18.145200 -27.149500
H 3.350200 -17.957400 -28.021600
H 3.713500 -18.191600 -26.514300
82
Fragment
H -8.060200 -26.567500 -20.444100
H -7.697000 -26.801700 -18.936800
C -7.342100 -26.613900 -19.808900
H -6.881600 -26.237800 -22.275500
H -6.733400 -27.310500 -20.063800
O -6.651900 -25.366900 -19.781700
C -6.381700 -25.456400 -22.198500
C -6.175700 -24.889000 -20.964300
H -5.999000 -25.248600 -24.157000
C -5.844400 -24.862300 -23.325000
C -5.418300 -23.708700 -20.861400
O -5.289900 -23.231300 -19.590400
C -5.080400 -23.707100 -23.250200
H -4.987200 -21.315800 -19.899400
C -4.878800 -23.130200 -21.988300
H -4.787800 -23.603000 -25.252700
C -4.565100 -22.021600 -19.404300
H -4.553500 -21.796200 -18.471900
C -4.548800 -23.143100 -24.480000
H -4.376700 -22.351200 -21.912400
O -3.839200 -22.326700 -27.036100
C -3.779100 -22.080900 -24.684900
H -3.664700 -22.136400 -19.716300
H -3.463100 -21.582800 -23.966000
C -3.429900 -21.698200 -26.070700
H -2.874400 -21.265000 -28.711900
N -2.643300 -20.591900 -26.176800
C -2.403800 -20.468300 -28.613600
H -2.400800 -20.169900 -25.404500
C -2.166200 -19.956400 -27.334000
H -2.129400 -20.146100 -30.574600
C -1.947100 -19.802800 -29.729400
O -1.563800 -18.544300 -24.821300
C -1.407900 -18.775800 -27.205400
C -1.223800 -18.638100 -29.612800
C -1.092900 -18.162000 -25.888000
C -0.937300 -18.144400 -28.362100
H -0.932200 -18.188600 -30.372700
H -0.420800 -17.375500 -28.283000
O -0.272300 -17.155300 -25.976800
H -0.015500 -16.753300 -25.118000
H -4.331200 -28.005800 -21.840400
O -4.074400 -27.603800 -20.981600
H -3.926000 -27.383600 -18.675400
H -3.414600 -26.570500 -16.585700
C -3.409400 -26.614700 -18.596300
C -3.253900 -26.597100 -21.070400
C -3.122900 -26.121000 -17.345700
C -2.938800 -25.983300 -19.753100
O -2.783000 -26.214800 -22.137100
C -2.399600 -24.956300 -17.229000
H -2.217300 -24.613000 -16.383800
C -2.180500 -24.802700 -19.624400
H -1.946000 -24.589200 -21.553900
C -1.943000 -24.290800 -18.344800
N -1.703500 -24.167200 -20.781600
H -1.472400 -23.494100 -18.246500
C -0.916800 -23.060900 -20.887700
H -0.883700 -23.176300 -22.992400
H -0.682000 -22.622700 -27.242100
C -0.567600 -22.678200 -22.273500
O -0.507600 -22.432400 -19.922300
H 0.029900 -22.407900 -25.046000
C 0.202000 -21.616000 -22.478400
H 0.206700 -22.962900 -28.486500
C 0.218400 -22.737500 -27.554100
H 0.441000 -21.156100 -21.705700
C 0.532000 -21.628900 -24.970100
H 0.640500 -23.443300 -27.059000
C 0.733600 -21.052000 -23.708200
O 0.943200 -21.527800 -27.368000
C 1.071500 -21.050400 -26.097000
C 1.497700 -19.896800 -23.633400
H 1.652300 -19.510500 -22.801400
C 1.829000 -19.870100 -25.994100
C 2.035000 -19.302700 -24.759900
O 2.305100 -19.392200 -27.176700
H 2.386600 -17.448600 -26.894600
H 2.534800 -18.521300 -24.682900
C 2.995400 -18.145200 -27.149500
H 3.350200 -17.957400 -28.021600
H 3.713500 -18.191600 -26.514300
