41
Fragment
H -8.060200 -26.567500 -20.444100
H -7.697000 -26.801700 -18.936800
C -7.342100 -26.613900 -19.808900
H -6.881600 -26.237800 -22.275500
H -6.733400 -27.310500 -20.063800
O -6.651900 -25.366900 -19.781700
C -6.381700 -25.456400 -22.198500
C -6.175700 -24.889000 -20.964300
H -5.999000 -25.248600 -24.157000
C -5.844400 -24.862300 -23.325000
C -5.418300 -23.708700 -20.861400
O -5.289900 -23.231300 -19.590400
C -5.080400 -23.707100 -23.250200
H -4.987200 -21.315800 -19.899400
C -4.878800 -23.130200 -21.988300
H -4.787800 -23.603000 -25.252700
C -4.565100 -22.021600 -19.404300
H -4.553500 -21.796200 -18.471900
C -4.548800 -23.143100 -24.480000
H -4.376700 -22.351200 -21.912400
O -3.839200 -22.326700 -27.036100
C -3.779100 -22.080900 -24.684900
H -3.664700 -22.136400 -19.716300
H -3.463100 -21.582800 -23.966000
C -3.429900 -21.698200 -26.070700
H -2.874400 -21.265000 -28.711900
N -2.643300 -20.591900 -26.176800
C -2.403800 -20.468300 -28.613600
H -2.400800 -20.169900 -25.404500
C -2.166200 -19.956400 -27.334000
H -2.129400 -20.146100 -30.574600
C -1.947100 -19.802800 -29.729400
O -1.563800 -18.544300 -24.821300
C -1.407900 -18.775800 -27.205400
C -1.223800 -18.638100 -29.612800
C -1.092900 -18.162000 -25.888000
C -0.937300 -18.144400 -28.362100
H -0.932200 -18.188600 -30.372700
H -0.420800 -17.375500 -28.283000
O -0.272300 -17.155300 -25.976800
H -0.015500 -16.753300 -25.118000
41
Fragment
H -10.067700 -10.731700 -12.617700
H -9.704400 -10.497500 -11.110400
C -9.349600 -10.685300 -11.982500
H -8.889000 -11.061500 -14.449100
H -8.740800 -9.988700 -12.237400
O -8.659300 -11.932300 -11.955300
C -8.389200 -11.842800 -14.372100
C -8.183200 -12.410200 -13.137900
H -8.006500 -12.050600 -16.330600
C -7.851900 -12.436900 -15.498600
C -7.425700 -13.590500 -13.035000
O -7.297400 -14.067900 -11.764000
C -7.087800 -13.592100 -15.423800
H -6.994700 -15.983500 -12.073000
C -6.886200 -14.169100 -14.161900
H -6.795200 -13.696300 -17.426300
C -6.572600 -15.277600 -11.577900
H -6.560900 -15.503100 -10.645500
C -6.556200 -14.156100 -16.653600
H -6.384100 -14.948000 -14.086000
O -5.846600 -14.972500 -19.209700
C -5.786600 -15.218400 -16.858500
H -5.672200 -15.162900 -11.889900
H -5.470500 -15.716400 -16.139600
C -5.437400 -15.601100 -18.244300
H -4.881800 -16.034200 -20.885500
N -4.650700 -16.707400 -18.350400
C -4.411200 -16.830900 -20.787200
H -4.408200 -17.129300 -17.578100
C -4.173700 -17.342800 -19.507600
H -4.136900 -17.153200 -22.748200
C -3.954600 -17.496500 -21.903000
O -3.571200 -18.755000 -16.994900
C -3.415400 -18.523400 -19.379000
C -3.231300 -18.661100 -21.786400
C -3.100300 -19.137200 -18.061600
C -2.944800 -19.154800 -20.535700
H -2.939700 -19.110600 -22.546300
H -2.428200 -19.923800 -20.456600
O -2.279800 -20.144000 -18.150400
H -2.023000 -20.545900 -17.291600
82
Fragment
H -8.060200 -26.567500 -20.444100
H -7.697000 -26.801700 -18.936800
C -7.342100 -26.613900 -19.808900
H -6.881600 -26.237800 -22.275500
H -6.733400 -27.310500 -20.063800
O -6.651900 -25.366900 -19.781700
C -6.381700 -25.456400 -22.198500
C -6.175700 -24.889000 -20.964300
H -5.999000 -25.248600 -24.157000
C -5.844400 -24.862300 -23.325000
C -5.418300 -23.708700 -20.861400
O -5.289900 -23.231300 -19.590400
C -5.080400 -23.707100 -23.250200
H -4.987200 -21.315800 -19.899400
C -4.878800 -23.130200 -21.988300
H -4.787800 -23.603000 -25.252700
C -4.565100 -22.021600 -19.404300
H -4.553500 -21.796200 -18.471900
C -4.548800 -23.143100 -24.480000
H -4.376700 -22.351200 -21.912400
O -3.839200 -22.326700 -27.036100
C -3.779100 -22.080900 -24.684900
H -3.664700 -22.136400 -19.716300
H -3.463100 -21.582800 -23.966000
C -3.429900 -21.698200 -26.070700
H -2.874400 -21.265000 -28.711900
N -2.643300 -20.591900 -26.176800
C -2.403800 -20.468300 -28.613600
H -2.400800 -20.169900 -25.404500
C -2.166200 -19.956400 -27.334000
H -2.129400 -20.146100 -30.574600
C -1.947100 -19.802800 -29.729400
O -1.563800 -18.544300 -24.821300
C -1.407900 -18.775800 -27.205400
C -1.223800 -18.638100 -29.612800
C -1.092900 -18.162000 -25.888000
C -0.937300 -18.144400 -28.362100
H -0.932200 -18.188600 -30.372700
H -0.420800 -17.375500 -28.283000
O -0.272300 -17.155300 -25.976800
H -0.015500 -16.753300 -25.118000
H -10.067700 -10.731700 -12.617700
H -9.704400 -10.497500 -11.110400
C -9.349600 -10.685300 -11.982500
H -8.889000 -11.061500 -14.449100
H -8.740800 -9.988700 -12.237400
O -8.659300 -11.932300 -11.955300
C -8.389200 -11.842800 -14.372100
C -8.183200 -12.410200 -13.137900
H -8.006500 -12.050600 -16.330600
C -7.851900 -12.436900 -15.498600
C -7.425700 -13.590500 -13.035000
O -7.297400 -14.067900 -11.764000
C -7.087800 -13.592100 -15.423800
H -6.994700 -15.983500 -12.073000
C -6.886200 -14.169100 -14.161900
H -6.795200 -13.696300 -17.426300
C -6.572600 -15.277600 -11.577900
H -6.560900 -15.503100 -10.645500
C -6.556200 -14.156100 -16.653600
H -6.384100 -14.948000 -14.086000
O -5.846600 -14.972500 -19.209700
C -5.786600 -15.218400 -16.858500
H -5.672200 -15.162900 -11.889900
H -5.470500 -15.716400 -16.139600
C -5.437400 -15.601100 -18.244300
H -4.881800 -16.034200 -20.885500
N -4.650700 -16.707400 -18.350400
C -4.411200 -16.830900 -20.787200
H -4.408200 -17.129300 -17.578100
C -4.173700 -17.342800 -19.507600
H -4.136900 -17.153200 -22.748200
C -3.954600 -17.496500 -21.903000
O -3.571200 -18.755000 -16.994900
C -3.415400 -18.523400 -19.379000
C -3.231300 -18.661100 -21.786400
C -3.100300 -19.137200 -18.061600
C -2.944800 -19.154800 -20.535700
H -2.939700 -19.110600 -22.546300
H -2.428200 -19.923800 -20.456600
O -2.279800 -20.144000 -18.150400
H -2.023000 -20.545900 -17.291600
