14
Fragment
O -9.115800 -7.860300 -10.874500
N -7.961300 -7.992200 -10.470700
H -7.954700 -12.705600 -12.020700
N -7.853500 -10.142200 -11.450100
C -7.401100 -9.324800 -10.513200
O -7.255500 -7.086000 -10.071900
O -7.217800 -12.262400 -12.177100
N -7.090700 -11.229200 -11.301500
C -6.346200 -9.892600 -9.795800
C -6.167000 -11.148600 -10.343000
O -6.154500 -8.513400 -7.989100
N -5.638900 -9.390300 -8.653900
H -5.583400 -11.884800 -10.149900
O -4.549000 -9.910500 -8.399500
14
Fragment
O -9.793800 -14.185600 -8.531100
H -8.759500 -16.159900 -6.780700
N -8.704000 -13.665400 -8.276700
O -8.188300 -12.788500 -8.941500
C -8.175900 -15.423700 -6.587600
C -7.996700 -14.167700 -7.134800
N -7.252200 -15.504300 -5.629200
O -7.125000 -16.537500 -4.753500
O -7.087400 -11.361100 -6.858800
C -6.941800 -13.599900 -6.417400
N -6.489400 -14.417300 -5.480500
H -6.388100 -16.980700 -4.909900
N -6.381500 -12.267300 -6.459900
O -5.227100 -12.135400 -6.056100
28
Fragment
O -9.115800 -7.860300 -10.874500
N -7.961300 -7.992200 -10.470700
H -7.954700 -12.705600 -12.020700
N -7.853500 -10.142200 -11.450100
C -7.401100 -9.324800 -10.513200
O -7.255500 -7.086000 -10.071900
O -7.217800 -12.262400 -12.177100
N -7.090700 -11.229200 -11.301500
C -6.346200 -9.892600 -9.795800
C -6.167000 -11.148600 -10.343000
O -6.154500 -8.513400 -7.989100
N -5.638900 -9.390300 -8.653900
H -5.583400 -11.884800 -10.149900
O -4.549000 -9.910500 -8.399500
O -9.793800 -14.185600 -8.531100
H -8.759500 -16.159900 -6.780700
N -8.704000 -13.665400 -8.276700
O -8.188300 -12.788500 -8.941500
C -8.175900 -15.423700 -6.587600
C -7.996700 -14.167700 -7.134800
N -7.252200 -15.504300 -5.629200
O -7.125000 -16.537500 -4.753500
O -7.087400 -11.361100 -6.858800
C -6.941800 -13.599900 -6.417400
N -6.489400 -14.417300 -5.480500
H -6.388100 -16.980700 -4.909900
N -6.381500 -12.267300 -6.459900
O -5.227100 -12.135400 -6.056100
