14
Fragment
O -9.115800 -7.860300 -10.874500
N -7.961300 -7.992200 -10.470700
H -7.954700 -12.705600 -12.020700
N -7.853500 -10.142200 -11.450100
C -7.401100 -9.324800 -10.513200
O -7.255500 -7.086000 -10.071900
O -7.217800 -12.262400 -12.177100
N -7.090700 -11.229200 -11.301500
C -6.346200 -9.892600 -9.795800
C -6.167000 -11.148600 -10.343000
O -6.154500 -8.513400 -7.989100
N -5.638900 -9.390300 -8.653900
H -5.583400 -11.884800 -10.149900
O -4.549000 -9.910500 -8.399500
14
Fragment
O -4.863000 -5.635400 -8.531100
H -3.828700 -7.609700 -6.780700
N -3.773200 -5.115200 -8.276700
O -3.257500 -4.238300 -8.941500
C -3.245100 -6.873500 -6.587600
C -3.065900 -5.617500 -7.134800
N -2.321400 -6.954100 -5.629200
O -2.194200 -7.987300 -4.753500
O -2.156600 -2.810900 -6.858800
C -2.011000 -5.049700 -6.417400
N -1.558600 -5.867100 -5.480500
H -1.457300 -8.430500 -4.909900
N -1.450700 -3.717100 -6.459900
O -0.296300 -3.585200 -6.056100
28
Fragment
O -9.115800 -7.860300 -10.874500
N -7.961300 -7.992200 -10.470700
H -7.954700 -12.705600 -12.020700
N -7.853500 -10.142200 -11.450100
C -7.401100 -9.324800 -10.513200
O -7.255500 -7.086000 -10.071900
O -7.217800 -12.262400 -12.177100
N -7.090700 -11.229200 -11.301500
C -6.346200 -9.892600 -9.795800
C -6.167000 -11.148600 -10.343000
O -6.154500 -8.513400 -7.989100
N -5.638900 -9.390300 -8.653900
H -5.583400 -11.884800 -10.149900
O -4.549000 -9.910500 -8.399500
O -4.863000 -5.635400 -8.531100
H -3.828700 -7.609700 -6.780700
N -3.773200 -5.115200 -8.276700
O -3.257500 -4.238300 -8.941500
C -3.245100 -6.873500 -6.587600
C -3.065900 -5.617500 -7.134800
N -2.321400 -6.954100 -5.629200
O -2.194200 -7.987300 -4.753500
O -2.156600 -2.810900 -6.858800
C -2.011000 -5.049700 -6.417400
N -1.558600 -5.867100 -5.480500
H -1.457300 -8.430500 -4.909900
N -1.450700 -3.717100 -6.459900
O -0.296300 -3.585200 -6.056100
