3
Fragment
H -19.605000 -7.319600 -18.023700
O -19.353100 -7.820700 -17.363800
H -19.101300 -7.319600 -16.704000
35
Fragment
H -18.144200 -8.702300 -18.683500
H -18.069700 -6.469700 -19.574800
N -17.421300 -8.890700 -19.332900
N -17.219000 -6.677100 -19.878100
H -17.183900 -9.710800 -19.412800
H -16.872400 -5.981300 -20.199900
C -16.797000 -7.936700 -20.014700
N -15.742000 -8.115600 -20.847000
O -15.716000 -10.444100 -20.693100
C -15.286700 -9.357500 -21.123700
H -14.357800 -11.277500 -22.897100
C -14.148100 -9.360700 -22.079900
N -13.861700 -10.496700 -22.804500
C -13.269500 -8.354700 -22.434100
H -13.226100 -7.481100 -22.063400
C -12.849600 -10.213800 -23.680800
H -12.568600 -11.914000 -24.801500
C -12.438400 -8.883700 -23.465500
C -12.290600 -11.013600 -24.683300
O -11.521900 -12.234600 -27.069100
C -11.403700 -8.352800 -24.265400
C -11.319000 -10.454800 -25.498200
H -11.078800 -7.474500 -24.107800
C -10.877000 -9.113300 -25.264400
C -10.840900 -11.257200 -26.667400
H -10.200300 -8.744900 -25.819100
H -9.994500 -11.810000 -29.032300
N -9.721300 -10.891900 -27.268200
H -9.246400 -10.211900 -27.006600
C -9.226000 -11.555900 -28.461700
H -8.970900 -13.432700 -27.662500
H -8.665300 -10.921500 -28.974900
C -8.415500 -12.790300 -28.150300
H -8.103600 -13.196600 -28.986400
H -7.641900 -12.543300 -27.600300
38
Fragment
H -19.605000 -7.319600 -18.023700
O -19.353100 -7.820700 -17.363800
H -19.101300 -7.319600 -16.704000
H -18.144200 -8.702300 -18.683500
H -18.069700 -6.469700 -19.574800
N -17.421300 -8.890700 -19.332900
N -17.219000 -6.677100 -19.878100
H -17.183900 -9.710800 -19.412800
H -16.872400 -5.981300 -20.199900
C -16.797000 -7.936700 -20.014700
N -15.742000 -8.115600 -20.847000
O -15.716000 -10.444100 -20.693100
C -15.286700 -9.357500 -21.123700
H -14.357800 -11.277500 -22.897100
C -14.148100 -9.360700 -22.079900
N -13.861700 -10.496700 -22.804500
C -13.269500 -8.354700 -22.434100
H -13.226100 -7.481100 -22.063400
C -12.849600 -10.213800 -23.680800
H -12.568600 -11.914000 -24.801500
C -12.438400 -8.883700 -23.465500
C -12.290600 -11.013600 -24.683300
O -11.521900 -12.234600 -27.069100
C -11.403700 -8.352800 -24.265400
C -11.319000 -10.454800 -25.498200
H -11.078800 -7.474500 -24.107800
C -10.877000 -9.113300 -25.264400
C -10.840900 -11.257200 -26.667400
H -10.200300 -8.744900 -25.819100
H -9.994500 -11.810000 -29.032300
N -9.721300 -10.891900 -27.268200
H -9.246400 -10.211900 -27.006600
C -9.226000 -11.555900 -28.461700
H -8.970900 -13.432700 -27.662500
H -8.665300 -10.921500 -28.974900
C -8.415500 -12.790300 -28.150300
H -8.103600 -13.196600 -28.986400
H -7.641900 -12.543300 -27.600300
