3
Fragment
H -19.605000 -7.319600 -18.023700
O -19.353100 -7.820700 -17.363800
H -19.101300 -7.319600 -16.704000
35
Fragment
H -31.064300 -12.543300 -7.127400
H -30.602600 -13.196600 -5.741300
C -30.290800 -12.790300 -6.577400
H -30.041000 -10.921500 -5.752800
H -29.735300 -13.432700 -7.065200
C -29.480300 -11.555900 -6.266000
H -29.459900 -10.211900 -7.721100
N -28.985000 -10.891900 -7.459500
H -28.711800 -11.810000 -5.695300
H -28.506000 -8.744900 -8.908600
C -27.865400 -11.257200 -8.060300
C -27.829300 -9.113300 -9.463300
H -27.627500 -7.474500 -10.619800
C -27.387300 -10.454800 -9.229500
C -27.302600 -8.352800 -10.462300
O -27.184300 -12.234600 -7.658600
C -26.415700 -11.013600 -10.044400
C -26.267900 -8.883700 -11.262200
H -26.137700 -11.914000 -9.926200
C -25.856600 -10.213800 -11.046900
H -25.480200 -7.481100 -12.664300
C -25.436800 -8.354700 -12.293600
N -24.844600 -10.496700 -11.923200
C -24.558200 -9.360700 -12.647800
H -24.348500 -11.277500 -11.830600
C -23.419600 -9.357500 -13.604000
O -22.990200 -10.444100 -14.034600
N -22.964300 -8.115600 -13.880700
C -21.909300 -7.936700 -14.713000
H -21.833800 -5.981300 -14.527700
H -21.522400 -9.710800 -15.314900
N -21.487300 -6.677100 -14.849600
N -21.285000 -8.890700 -15.394800
H -20.636500 -6.469700 -15.152800
H -20.562100 -8.702300 -16.044200
38
Fragment
H -19.605000 -7.319600 -18.023700
O -19.353100 -7.820700 -17.363800
H -19.101300 -7.319600 -16.704000
H -31.064300 -12.543300 -7.127400
H -30.602600 -13.196600 -5.741300
C -30.290800 -12.790300 -6.577400
H -30.041000 -10.921500 -5.752800
H -29.735300 -13.432700 -7.065200
C -29.480300 -11.555900 -6.266000
H -29.459900 -10.211900 -7.721100
N -28.985000 -10.891900 -7.459500
H -28.711800 -11.810000 -5.695300
H -28.506000 -8.744900 -8.908600
C -27.865400 -11.257200 -8.060300
C -27.829300 -9.113300 -9.463300
H -27.627500 -7.474500 -10.619800
C -27.387300 -10.454800 -9.229500
C -27.302600 -8.352800 -10.462300
O -27.184300 -12.234600 -7.658600
C -26.415700 -11.013600 -10.044400
C -26.267900 -8.883700 -11.262200
H -26.137700 -11.914000 -9.926200
C -25.856600 -10.213800 -11.046900
H -25.480200 -7.481100 -12.664300
C -25.436800 -8.354700 -12.293600
N -24.844600 -10.496700 -11.923200
C -24.558200 -9.360700 -12.647800
H -24.348500 -11.277500 -11.830600
C -23.419600 -9.357500 -13.604000
O -22.990200 -10.444100 -14.034600
N -22.964300 -8.115600 -13.880700
C -21.909300 -7.936700 -14.713000
H -21.833800 -5.981300 -14.527700
H -21.522400 -9.710800 -15.314900
N -21.487300 -6.677100 -14.849600
N -21.285000 -8.890700 -15.394800
H -20.636500 -6.469700 -15.152800
H -20.562100 -8.702300 -16.044200
