51
Fragment
H -15.120100 -21.074900 -26.980700
H -14.330900 -22.994000 -26.049000
H -14.308000 -19.816600 -27.444000
C -14.256900 -20.655400 -26.979900
H -14.195900 -22.431500 -18.816100
H -14.179700 -24.713700 -24.516600
C -14.067300 -22.809600 -25.176300
H -14.066600 -27.575700 -15.608700
H -13.998600 -26.242500 -23.009600
C -13.980300 -23.843100 -24.257700
H -13.924300 -22.637700 -17.285900
O -13.840900 -20.430600 -25.640700
O -13.788200 -28.162700 -21.370100
C -13.768300 -21.505600 -24.815600
C -13.739400 -25.965700 -22.160400
H -13.634800 -28.845100 -16.420900
H -13.628700 -24.445600 -15.277200
H -13.622900 -21.226500 -27.420100
C -13.596100 -26.955800 -21.139300
C -13.591200 -23.575800 -22.937100
C -13.546900 -22.335200 -18.115100
C -13.517000 -24.644300 -21.955400
H -13.404000 -19.842600 -21.304100
C -13.345400 -21.234400 -23.491800
C -13.340400 -28.173400 -15.801400
H -13.295800 -21.412500 -18.035400
C -13.268300 -22.256900 -22.575600
C -13.189000 -26.439300 -19.815600
O -13.164300 -24.185300 -20.715800
O -13.108300 -28.599000 -18.720400
H -13.047700 -28.593300 -14.989300
O -13.035000 -19.936300 -23.240800
C -13.007000 -25.056900 -19.692200
H -12.999200 -22.072900 -21.704600
C -12.951300 -27.236100 -18.680600
H -12.786400 -25.658800 -14.751700
C -12.745000 -24.750300 -15.058900
C -12.684100 -19.601100 -21.891400
C -12.622000 -24.470600 -18.475900
C -12.573100 -26.665600 -17.464300
H -12.522400 -18.656900 -21.828100
C -12.405300 -25.270400 -17.372200
O -12.387700 -23.120900 -18.426700
H -12.376700 -24.195200 -14.367700
O -12.253600 -27.435400 -16.377000
H -12.078400 -30.247300 -19.119600
O -11.905600 -24.676900 -16.234400
C -11.903000 -29.303900 -19.094200
H -11.890900 -20.079300 -21.638900
H -11.615000 -29.008600 -19.961100
H -11.214000 -29.123900 -18.450100
51
Fragment
H -12.205700 -18.106500 -26.530400
H -11.804700 -18.221800 -25.019400
H -11.528900 -27.151100 -23.341600
C -11.516800 -17.926400 -25.886300
O -11.514200 -22.553500 -28.746100
H -11.341300 -16.983000 -25.860900
O -11.166100 -19.795000 -28.603600
H -11.043100 -23.035200 -30.612800
O -11.032100 -24.109500 -26.553800
C -11.014500 -21.959900 -27.608300
H -10.897400 -28.573500 -23.152400
C -10.846700 -20.564800 -27.516200
C -10.797700 -22.759800 -26.504600
C -10.735700 -27.629300 -23.089100
C -10.674800 -22.480100 -29.921600
H -10.633400 -21.571500 -30.228800
C -10.468500 -19.994200 -26.300000
H -10.420500 -25.157400 -23.275900
C -10.412800 -22.173500 -25.288300
O -10.384800 -27.294000 -21.739700
H -10.372100 -18.637000 -29.991200
O -10.311500 -18.631400 -26.260100
O -10.255500 -23.045000 -24.264700
C -10.230800 -20.791100 -25.164900
C -10.151500 -24.973500 -22.404900
H -10.124000 -25.817800 -26.945100
C -10.079400 -19.057000 -29.179200
C -10.074400 -25.995900 -21.488700
H -10.015800 -27.387700 -23.676400
C -9.902800 -22.586000 -23.025100
C -9.872800 -24.895100 -26.865400
C -9.828500 -23.654600 -22.043400
C -9.823700 -20.274500 -23.841200
H -9.796800 -26.003900 -17.560400
H -9.791100 -22.784700 -29.703300
H -9.785000 -18.385200 -28.559600
C -9.680400 -21.264700 -22.820100
C -9.651400 -25.724800 -20.164900
O -9.631500 -19.067700 -23.610400
O -9.578900 -26.799700 -19.339800
H -9.495400 -24.592700 -27.694600
C -9.439500 -23.387200 -20.722800
H -9.421200 -20.987800 -21.970900
H -9.353100 -19.654700 -29.371800
C -9.352500 -24.420800 -19.804200
H -9.240100 -22.516600 -20.463900
H -9.223900 -24.798900 -26.164400
C -9.162800 -26.575000 -18.000600
H -9.111800 -27.413800 -17.536500
H -9.088800 -24.236300 -18.931500
H -8.299700 -26.155500 -17.999800
102
Fragment
H -15.120100 -21.074900 -26.980700
H -14.330900 -22.994000 -26.049000
H -14.308000 -19.816600 -27.444000
C -14.256900 -20.655400 -26.979900
H -14.195900 -22.431500 -18.816100
H -14.179700 -24.713700 -24.516600
C -14.067300 -22.809600 -25.176300
H -14.066600 -27.575700 -15.608700
H -13.998600 -26.242500 -23.009600
C -13.980300 -23.843100 -24.257700
H -13.924300 -22.637700 -17.285900
O -13.840900 -20.430600 -25.640700
O -13.788200 -28.162700 -21.370100
C -13.768300 -21.505600 -24.815600
C -13.739400 -25.965700 -22.160400
H -13.634800 -28.845100 -16.420900
H -13.628700 -24.445600 -15.277200
H -13.622900 -21.226500 -27.420100
C -13.596100 -26.955800 -21.139300
C -13.591200 -23.575800 -22.937100
C -13.546900 -22.335200 -18.115100
C -13.517000 -24.644300 -21.955400
H -13.404000 -19.842600 -21.304100
C -13.345400 -21.234400 -23.491800
C -13.340400 -28.173400 -15.801400
H -13.295800 -21.412500 -18.035400
C -13.268300 -22.256900 -22.575600
C -13.189000 -26.439300 -19.815600
O -13.164300 -24.185300 -20.715800
O -13.108300 -28.599000 -18.720400
H -13.047700 -28.593300 -14.989300
O -13.035000 -19.936300 -23.240800
C -13.007000 -25.056900 -19.692200
H -12.999200 -22.072900 -21.704600
C -12.951300 -27.236100 -18.680600
H -12.786400 -25.658800 -14.751700
C -12.745000 -24.750300 -15.058900
C -12.684100 -19.601100 -21.891400
C -12.622000 -24.470600 -18.475900
C -12.573100 -26.665600 -17.464300
H -12.522400 -18.656900 -21.828100
C -12.405300 -25.270400 -17.372200
O -12.387700 -23.120900 -18.426700
H -12.376700 -24.195200 -14.367700
O -12.253600 -27.435400 -16.377000
H -12.078400 -30.247300 -19.119600
O -11.905600 -24.676900 -16.234400
C -11.903000 -29.303900 -19.094200
H -11.890900 -20.079300 -21.638900
H -11.615000 -29.008600 -19.961100
H -11.214000 -29.123900 -18.450100
H -12.205700 -18.106500 -26.530400
H -11.804700 -18.221800 -25.019400
H -11.528900 -27.151100 -23.341600
C -11.516800 -17.926400 -25.886300
O -11.514200 -22.553500 -28.746100
H -11.341300 -16.983000 -25.860900
O -11.166100 -19.795000 -28.603600
H -11.043100 -23.035200 -30.612800
O -11.032100 -24.109500 -26.553800
C -11.014500 -21.959900 -27.608300
H -10.897400 -28.573500 -23.152400
C -10.846700 -20.564800 -27.516200
C -10.797700 -22.759800 -26.504600
C -10.735700 -27.629300 -23.089100
C -10.674800 -22.480100 -29.921600
H -10.633400 -21.571500 -30.228800
C -10.468500 -19.994200 -26.300000
H -10.420500 -25.157400 -23.275900
C -10.412800 -22.173500 -25.288300
O -10.384800 -27.294000 -21.739700
H -10.372100 -18.637000 -29.991200
O -10.311500 -18.631400 -26.260100
O -10.255500 -23.045000 -24.264700
C -10.230800 -20.791100 -25.164900
C -10.151500 -24.973500 -22.404900
H -10.124000 -25.817800 -26.945100
C -10.079400 -19.057000 -29.179200
C -10.074400 -25.995900 -21.488700
H -10.015800 -27.387700 -23.676400
C -9.902800 -22.586000 -23.025100
C -9.872800 -24.895100 -26.865400
C -9.828500 -23.654600 -22.043400
C -9.823700 -20.274500 -23.841200
H -9.796800 -26.003900 -17.560400
H -9.791100 -22.784700 -29.703300
H -9.785000 -18.385200 -28.559600
C -9.680400 -21.264700 -22.820100
C -9.651400 -25.724800 -20.164900
O -9.631500 -19.067700 -23.610400
O -9.578900 -26.799700 -19.339800
H -9.495400 -24.592700 -27.694600
C -9.439500 -23.387200 -20.722800
H -9.421200 -20.987800 -21.970900
H -9.353100 -19.654700 -29.371800
C -9.352500 -24.420800 -19.804200
H -9.240100 -22.516600 -20.463900
H -9.223900 -24.798900 -26.164400
C -9.162800 -26.575000 -18.000600
H -9.111800 -27.413800 -17.536500
H -9.088800 -24.236300 -18.931500
H -8.299700 -26.155500 -17.999800
