51
Fragment
H -15.120100 -21.074900 -26.980700
H -14.330900 -22.994000 -26.049000
H -14.308000 -19.816600 -27.444000
C -14.256900 -20.655400 -26.979900
H -14.195900 -22.431500 -18.816100
H -14.179700 -24.713700 -24.516600
C -14.067300 -22.809600 -25.176300
H -14.066600 -27.575700 -15.608700
H -13.998600 -26.242500 -23.009600
C -13.980300 -23.843100 -24.257700
H -13.924300 -22.637700 -17.285900
O -13.840900 -20.430600 -25.640700
O -13.788200 -28.162700 -21.370100
C -13.768300 -21.505600 -24.815600
C -13.739400 -25.965700 -22.160400
H -13.634800 -28.845100 -16.420900
H -13.628700 -24.445600 -15.277200
H -13.622900 -21.226500 -27.420100
C -13.596100 -26.955800 -21.139300
C -13.591200 -23.575800 -22.937100
C -13.546900 -22.335200 -18.115100
C -13.517000 -24.644300 -21.955400
H -13.404000 -19.842600 -21.304100
C -13.345400 -21.234400 -23.491800
C -13.340400 -28.173400 -15.801400
H -13.295800 -21.412500 -18.035400
C -13.268300 -22.256900 -22.575600
C -13.189000 -26.439300 -19.815600
O -13.164300 -24.185300 -20.715800
O -13.108300 -28.599000 -18.720400
H -13.047700 -28.593300 -14.989300
O -13.035000 -19.936300 -23.240800
C -13.007000 -25.056900 -19.692200
H -12.999200 -22.072900 -21.704600
C -12.951300 -27.236100 -18.680600
H -12.786400 -25.658800 -14.751700
C -12.745000 -24.750300 -15.058900
C -12.684100 -19.601100 -21.891400
C -12.622000 -24.470600 -18.475900
C -12.573100 -26.665600 -17.464300
H -12.522400 -18.656900 -21.828100
C -12.405300 -25.270400 -17.372200
O -12.387700 -23.120900 -18.426700
H -12.376700 -24.195200 -14.367700
O -12.253600 -27.435400 -16.377000
H -12.078400 -30.247300 -19.119600
O -11.905600 -24.676900 -16.234400
C -11.903000 -29.303900 -19.094200
H -11.890900 -20.079300 -21.638900
H -11.615000 -29.008600 -19.961100
H -11.214000 -29.123900 -18.450100
8
Fragment
O -15.052000 -26.540400 -28.528300
H -14.562800 -24.632300 -29.985500
C -14.141000 -25.683700 -28.432000
N -14.012800 -24.691300 -29.326800
H -13.380800 -24.114500 -29.241400
H -13.301100 -26.354300 -26.836000
N -13.250900 -25.730300 -27.425700
H -12.631500 -25.136400 -27.371800
59
Fragment
H -15.120100 -21.074900 -26.980700
H -14.330900 -22.994000 -26.049000
H -14.308000 -19.816600 -27.444000
C -14.256900 -20.655400 -26.979900
H -14.195900 -22.431500 -18.816100
H -14.179700 -24.713700 -24.516600
C -14.067300 -22.809600 -25.176300
H -14.066600 -27.575700 -15.608700
H -13.998600 -26.242500 -23.009600
C -13.980300 -23.843100 -24.257700
H -13.924300 -22.637700 -17.285900
O -13.840900 -20.430600 -25.640700
O -13.788200 -28.162700 -21.370100
C -13.768300 -21.505600 -24.815600
C -13.739400 -25.965700 -22.160400
H -13.634800 -28.845100 -16.420900
H -13.628700 -24.445600 -15.277200
H -13.622900 -21.226500 -27.420100
C -13.596100 -26.955800 -21.139300
C -13.591200 -23.575800 -22.937100
C -13.546900 -22.335200 -18.115100
C -13.517000 -24.644300 -21.955400
H -13.404000 -19.842600 -21.304100
C -13.345400 -21.234400 -23.491800
C -13.340400 -28.173400 -15.801400
H -13.295800 -21.412500 -18.035400
C -13.268300 -22.256900 -22.575600
C -13.189000 -26.439300 -19.815600
O -13.164300 -24.185300 -20.715800
O -13.108300 -28.599000 -18.720400
H -13.047700 -28.593300 -14.989300
O -13.035000 -19.936300 -23.240800
C -13.007000 -25.056900 -19.692200
H -12.999200 -22.072900 -21.704600
C -12.951300 -27.236100 -18.680600
H -12.786400 -25.658800 -14.751700
C -12.745000 -24.750300 -15.058900
C -12.684100 -19.601100 -21.891400
C -12.622000 -24.470600 -18.475900
C -12.573100 -26.665600 -17.464300
H -12.522400 -18.656900 -21.828100
C -12.405300 -25.270400 -17.372200
O -12.387700 -23.120900 -18.426700
H -12.376700 -24.195200 -14.367700
O -12.253600 -27.435400 -16.377000
H -12.078400 -30.247300 -19.119600
O -11.905600 -24.676900 -16.234400
C -11.903000 -29.303900 -19.094200
H -11.890900 -20.079300 -21.638900
H -11.615000 -29.008600 -19.961100
H -11.214000 -29.123900 -18.450100
O -15.052000 -26.540400 -28.528300
H -14.562800 -24.632300 -29.985500
C -14.141000 -25.683700 -28.432000
N -14.012800 -24.691300 -29.326800
H -13.380800 -24.114500 -29.241400
H -13.301100 -26.354300 -26.836000
N -13.250900 -25.730300 -27.425700
H -12.631500 -25.136400 -27.371800
