51
Fragment
H -15.120100 -21.074900 -26.980700
H -14.330900 -22.994000 -26.049000
H -14.308000 -19.816600 -27.444000
C -14.256900 -20.655400 -26.979900
H -14.195900 -22.431500 -18.816100
H -14.179700 -24.713700 -24.516600
C -14.067300 -22.809600 -25.176300
H -14.066600 -27.575700 -15.608700
H -13.998600 -26.242500 -23.009600
C -13.980300 -23.843100 -24.257700
H -13.924300 -22.637700 -17.285900
O -13.840900 -20.430600 -25.640700
O -13.788200 -28.162700 -21.370100
C -13.768300 -21.505600 -24.815600
C -13.739400 -25.965700 -22.160400
H -13.634800 -28.845100 -16.420900
H -13.628700 -24.445600 -15.277200
H -13.622900 -21.226500 -27.420100
C -13.596100 -26.955800 -21.139300
C -13.591200 -23.575800 -22.937100
C -13.546900 -22.335200 -18.115100
C -13.517000 -24.644300 -21.955400
H -13.404000 -19.842600 -21.304100
C -13.345400 -21.234400 -23.491800
C -13.340400 -28.173400 -15.801400
H -13.295800 -21.412500 -18.035400
C -13.268300 -22.256900 -22.575600
C -13.189000 -26.439300 -19.815600
O -13.164300 -24.185300 -20.715800
O -13.108300 -28.599000 -18.720400
H -13.047700 -28.593300 -14.989300
O -13.035000 -19.936300 -23.240800
C -13.007000 -25.056900 -19.692200
H -12.999200 -22.072900 -21.704600
C -12.951300 -27.236100 -18.680600
H -12.786400 -25.658800 -14.751700
C -12.745000 -24.750300 -15.058900
C -12.684100 -19.601100 -21.891400
C -12.622000 -24.470600 -18.475900
C -12.573100 -26.665600 -17.464300
H -12.522400 -18.656900 -21.828100
C -12.405300 -25.270400 -17.372200
O -12.387700 -23.120900 -18.426700
H -12.376700 -24.195200 -14.367700
O -12.253600 -27.435400 -16.377000
H -12.078400 -30.247300 -19.119600
O -11.905600 -24.676900 -16.234400
C -11.903000 -29.303900 -19.094200
H -11.890900 -20.079300 -21.638900
H -11.615000 -29.008600 -19.961100
H -11.214000 -29.123900 -18.450100
51
Fragment
H -11.987200 -25.908100 -11.536900
H -11.586200 -26.023400 -10.025900
H -11.310300 -34.952700 -8.348100
C -11.298200 -25.728000 -10.892800
O -11.295600 -30.355100 -13.752600
H -11.122800 -24.784600 -10.867400
O -10.947600 -27.596600 -13.610100
H -10.824500 -30.836800 -15.619300
O -10.813500 -31.911100 -11.560300
C -10.796000 -29.761500 -12.614800
H -10.678800 -36.375100 -8.158900
C -10.628100 -28.366400 -12.522700
C -10.579200 -30.561400 -11.511100
C -10.517100 -35.430900 -8.095600
C -10.456200 -30.281700 -14.928100
H -10.414900 -29.373100 -15.235300
C -10.249900 -27.795800 -11.306400
H -10.202000 -32.959000 -8.282400
C -10.194300 -29.975100 -10.294800
O -10.166200 -35.095600 -6.746200
H -10.153600 -26.438600 -14.997700
O -10.093000 -26.433000 -11.266600
O -10.036900 -30.846600 -9.271200
C -10.012200 -28.592700 -10.171400
C -9.932900 -32.775100 -7.411400
H -9.905400 -33.619400 -11.951600
C -9.860800 -26.858500 -14.185700
C -9.855800 -33.797500 -6.495200
H -9.797200 -35.189300 -8.682900
C -9.684200 -30.387600 -8.031600
C -9.654300 -32.696700 -11.871900
C -9.610000 -31.456200 -7.049900
C -9.605200 -28.076100 -8.847700
H -9.578300 -33.805500 -2.566900
H -9.572500 -30.586300 -14.709800
H -9.566400 -26.186800 -13.566100
C -9.461900 -29.066300 -7.826600
C -9.432900 -33.526400 -5.171400
O -9.413000 -26.869300 -8.616900
O -9.360300 -34.601300 -4.346300
H -9.276900 -32.394300 -12.701100
C -9.220900 -31.188800 -5.729300
H -9.202600 -28.789400 -6.977400
H -9.134600 -27.456300 -14.378300
C -9.133900 -32.222400 -4.810700
H -9.021500 -30.318200 -5.470400
H -9.005300 -32.600500 -11.170900
C -8.944300 -34.376600 -3.007100
H -8.893200 -35.215400 -2.543000
H -8.870300 -32.037900 -3.938000
H -8.081100 -33.957000 -3.006300
102
Fragment
H -15.120100 -21.074900 -26.980700
H -14.330900 -22.994000 -26.049000
H -14.308000 -19.816600 -27.444000
C -14.256900 -20.655400 -26.979900
H -14.195900 -22.431500 -18.816100
H -14.179700 -24.713700 -24.516600
C -14.067300 -22.809600 -25.176300
H -14.066600 -27.575700 -15.608700
H -13.998600 -26.242500 -23.009600
C -13.980300 -23.843100 -24.257700
H -13.924300 -22.637700 -17.285900
O -13.840900 -20.430600 -25.640700
O -13.788200 -28.162700 -21.370100
C -13.768300 -21.505600 -24.815600
C -13.739400 -25.965700 -22.160400
H -13.634800 -28.845100 -16.420900
H -13.628700 -24.445600 -15.277200
H -13.622900 -21.226500 -27.420100
C -13.596100 -26.955800 -21.139300
C -13.591200 -23.575800 -22.937100
C -13.546900 -22.335200 -18.115100
C -13.517000 -24.644300 -21.955400
H -13.404000 -19.842600 -21.304100
C -13.345400 -21.234400 -23.491800
C -13.340400 -28.173400 -15.801400
H -13.295800 -21.412500 -18.035400
C -13.268300 -22.256900 -22.575600
C -13.189000 -26.439300 -19.815600
O -13.164300 -24.185300 -20.715800
O -13.108300 -28.599000 -18.720400
H -13.047700 -28.593300 -14.989300
O -13.035000 -19.936300 -23.240800
C -13.007000 -25.056900 -19.692200
H -12.999200 -22.072900 -21.704600
C -12.951300 -27.236100 -18.680600
H -12.786400 -25.658800 -14.751700
C -12.745000 -24.750300 -15.058900
C -12.684100 -19.601100 -21.891400
C -12.622000 -24.470600 -18.475900
C -12.573100 -26.665600 -17.464300
H -12.522400 -18.656900 -21.828100
C -12.405300 -25.270400 -17.372200
O -12.387700 -23.120900 -18.426700
H -12.376700 -24.195200 -14.367700
O -12.253600 -27.435400 -16.377000
H -12.078400 -30.247300 -19.119600
O -11.905600 -24.676900 -16.234400
C -11.903000 -29.303900 -19.094200
H -11.890900 -20.079300 -21.638900
H -11.615000 -29.008600 -19.961100
H -11.214000 -29.123900 -18.450100
H -11.987200 -25.908100 -11.536900
H -11.586200 -26.023400 -10.025900
H -11.310300 -34.952700 -8.348100
C -11.298200 -25.728000 -10.892800
O -11.295600 -30.355100 -13.752600
H -11.122800 -24.784600 -10.867400
O -10.947600 -27.596600 -13.610100
H -10.824500 -30.836800 -15.619300
O -10.813500 -31.911100 -11.560300
C -10.796000 -29.761500 -12.614800
H -10.678800 -36.375100 -8.158900
C -10.628100 -28.366400 -12.522700
C -10.579200 -30.561400 -11.511100
C -10.517100 -35.430900 -8.095600
C -10.456200 -30.281700 -14.928100
H -10.414900 -29.373100 -15.235300
C -10.249900 -27.795800 -11.306400
H -10.202000 -32.959000 -8.282400
C -10.194300 -29.975100 -10.294800
O -10.166200 -35.095600 -6.746200
H -10.153600 -26.438600 -14.997700
O -10.093000 -26.433000 -11.266600
O -10.036900 -30.846600 -9.271200
C -10.012200 -28.592700 -10.171400
C -9.932900 -32.775100 -7.411400
H -9.905400 -33.619400 -11.951600
C -9.860800 -26.858500 -14.185700
C -9.855800 -33.797500 -6.495200
H -9.797200 -35.189300 -8.682900
C -9.684200 -30.387600 -8.031600
C -9.654300 -32.696700 -11.871900
C -9.610000 -31.456200 -7.049900
C -9.605200 -28.076100 -8.847700
H -9.578300 -33.805500 -2.566900
H -9.572500 -30.586300 -14.709800
H -9.566400 -26.186800 -13.566100
C -9.461900 -29.066300 -7.826600
C -9.432900 -33.526400 -5.171400
O -9.413000 -26.869300 -8.616900
O -9.360300 -34.601300 -4.346300
H -9.276900 -32.394300 -12.701100
C -9.220900 -31.188800 -5.729300
H -9.202600 -28.789400 -6.977400
H -9.134600 -27.456300 -14.378300
C -9.133900 -32.222400 -4.810700
H -9.021500 -30.318200 -5.470400
H -9.005300 -32.600500 -11.170900
C -8.944300 -34.376600 -3.007100
H -8.893200 -35.215400 -2.543000
H -8.870300 -32.037900 -3.938000
H -8.081100 -33.957000 -3.006300
