35
Fragment
O -13.012000 -39.437300 -9.522000
H -12.500900 -41.741900 -9.185800
C -12.046300 -40.053600 -9.997400
N -11.915000 -41.394300 -9.711300
N -11.126500 -39.439200 -10.800600
C -10.933800 -42.228500 -10.188500
O -10.926100 -43.426600 -9.899000
H -10.553700 -38.166600 -12.797300
O -10.155300 -36.112800 -11.914400
C -10.153900 -40.202800 -11.282800
H -9.995200 -35.482400 -11.414400
C -9.954200 -41.568400 -11.021300
C -9.583200 -38.229200 -12.675900
N -9.254400 -39.585100 -12.153800
C -9.129200 -37.077200 -11.802300
H -9.119300 -43.993000 -10.950800
H -8.972000 -37.350000 -10.874400
O -8.961900 -38.092100 -13.932400
C -8.853000 -42.231300 -11.602800
H -8.669400 -36.163800 -14.330600
N -8.601200 -43.511900 -11.439800
C -8.227000 -40.287000 -12.647900
C -8.146500 -36.902000 -13.956200
N -7.968600 -41.546600 -12.403400
H -7.918800 -43.868800 -11.823600
C -7.847000 -36.607400 -12.501000
H -7.644000 -39.838400 -13.215900
O -7.575000 -35.241800 -12.329600
O -7.369700 -37.258700 -16.165200
H -7.083900 -37.143100 -12.198800
H -7.054500 -35.143100 -11.703900
C -6.944700 -37.148700 -14.831500
H -6.605100 -37.463100 -16.605800
H -6.499000 -37.965200 -14.558100
H -6.316600 -36.414800 -14.744000
35
Fragment
H -7.501200 -32.456100 -15.392600
H -7.446500 -34.246500 -16.941100
H -6.986500 -30.494700 -17.085500
O -6.913600 -32.574700 -17.902200
H -6.728500 -33.708600 -14.845900
C -6.709800 -33.602300 -16.885100
C -6.706700 -32.999800 -15.508100
C -6.304600 -30.038400 -17.523500
N -6.256700 -28.742100 -17.369900
H -5.876500 -26.364900 -17.384300
H -5.781100 -32.389900 -19.482100
O -5.751100 -35.317400 -18.243500
C -5.700900 -32.242000 -18.516800
O -5.557500 -32.202900 -15.308600
N -5.452600 -30.770000 -18.260400
C -5.434200 -34.295600 -17.305300
N -5.263400 -26.740600 -17.855500
C -5.254400 -28.056300 -18.001500
H -5.241600 -35.951400 -18.139000
H -5.018500 -32.610600 -14.845000
H -4.964900 -34.665800 -16.529400
H -4.655700 -26.262800 -18.231600
C -4.614500 -33.173600 -17.956500
C -4.399100 -30.145700 -18.908200
C -4.300000 -28.746500 -18.769000
H -4.075100 -32.707100 -17.284100
O -3.787400 -33.717900 -18.961700
N -3.587200 -30.921400 -19.609400
H -3.271900 -33.214700 -19.441300
C -3.199000 -28.085800 -19.440500
O -2.969000 -26.884600 -19.426900
C -2.569200 -30.312600 -20.275900
N -2.398400 -28.945700 -20.160400
O -1.766600 -30.947400 -20.974600
H -1.730400 -28.599400 -20.577300
70
Fragment
O -13.012000 -39.437300 -9.522000
H -12.500900 -41.741900 -9.185800
C -12.046300 -40.053600 -9.997400
N -11.915000 -41.394300 -9.711300
N -11.126500 -39.439200 -10.800600
C -10.933800 -42.228500 -10.188500
O -10.926100 -43.426600 -9.899000
H -10.553700 -38.166600 -12.797300
O -10.155300 -36.112800 -11.914400
C -10.153900 -40.202800 -11.282800
H -9.995200 -35.482400 -11.414400
C -9.954200 -41.568400 -11.021300
C -9.583200 -38.229200 -12.675900
N -9.254400 -39.585100 -12.153800
C -9.129200 -37.077200 -11.802300
H -9.119300 -43.993000 -10.950800
H -8.972000 -37.350000 -10.874400
O -8.961900 -38.092100 -13.932400
C -8.853000 -42.231300 -11.602800
H -8.669400 -36.163800 -14.330600
N -8.601200 -43.511900 -11.439800
C -8.227000 -40.287000 -12.647900
C -8.146500 -36.902000 -13.956200
N -7.968600 -41.546600 -12.403400
H -7.918800 -43.868800 -11.823600
C -7.847000 -36.607400 -12.501000
H -7.644000 -39.838400 -13.215900
O -7.575000 -35.241800 -12.329600
O -7.369700 -37.258700 -16.165200
H -7.083900 -37.143100 -12.198800
H -7.054500 -35.143100 -11.703900
C -6.944700 -37.148700 -14.831500
H -6.605100 -37.463100 -16.605800
H -6.499000 -37.965200 -14.558100
H -6.316600 -36.414800 -14.744000
H -7.501200 -32.456100 -15.392600
H -7.446500 -34.246500 -16.941100
H -6.986500 -30.494700 -17.085500
O -6.913600 -32.574700 -17.902200
H -6.728500 -33.708600 -14.845900
C -6.709800 -33.602300 -16.885100
C -6.706700 -32.999800 -15.508100
C -6.304600 -30.038400 -17.523500
N -6.256700 -28.742100 -17.369900
H -5.876500 -26.364900 -17.384300
H -5.781100 -32.389900 -19.482100
O -5.751100 -35.317400 -18.243500
C -5.700900 -32.242000 -18.516800
O -5.557500 -32.202900 -15.308600
N -5.452600 -30.770000 -18.260400
C -5.434200 -34.295600 -17.305300
N -5.263400 -26.740600 -17.855500
C -5.254400 -28.056300 -18.001500
H -5.241600 -35.951400 -18.139000
H -5.018500 -32.610600 -14.845000
H -4.964900 -34.665800 -16.529400
H -4.655700 -26.262800 -18.231600
C -4.614500 -33.173600 -17.956500
C -4.399100 -30.145700 -18.908200
C -4.300000 -28.746500 -18.769000
H -4.075100 -32.707100 -17.284100
O -3.787400 -33.717900 -18.961700
N -3.587200 -30.921400 -19.609400
H -3.271900 -33.214700 -19.441300
C -3.199000 -28.085800 -19.440500
O -2.969000 -26.884600 -19.426900
C -2.569200 -30.312600 -20.275900
N -2.398400 -28.945700 -20.160400
O -1.766600 -30.947400 -20.974600
H -1.730400 -28.599400 -20.577300
