35
Fragment
O -13.012000 -39.437300 -9.522000
H -12.500900 -41.741900 -9.185800
C -12.046300 -40.053600 -9.997400
N -11.915000 -41.394300 -9.711300
N -11.126500 -39.439200 -10.800600
C -10.933800 -42.228500 -10.188500
O -10.926100 -43.426600 -9.899000
H -10.553700 -38.166600 -12.797300
O -10.155300 -36.112800 -11.914400
C -10.153900 -40.202800 -11.282800
H -9.995200 -35.482400 -11.414400
C -9.954200 -41.568400 -11.021300
C -9.583200 -38.229200 -12.675900
N -9.254400 -39.585100 -12.153800
C -9.129200 -37.077200 -11.802300
H -9.119300 -43.993000 -10.950800
H -8.972000 -37.350000 -10.874400
O -8.961900 -38.092100 -13.932400
C -8.853000 -42.231300 -11.602800
H -8.669400 -36.163800 -14.330600
N -8.601200 -43.511900 -11.439800
C -8.227000 -40.287000 -12.647900
C -8.146500 -36.902000 -13.956200
N -7.968600 -41.546600 -12.403400
H -7.918800 -43.868800 -11.823600
C -7.847000 -36.607400 -12.501000
H -7.644000 -39.838400 -13.215900
O -7.575000 -35.241800 -12.329600
O -7.369700 -37.258700 -16.165200
H -7.083900 -37.143100 -12.198800
H -7.054500 -35.143100 -11.703900
C -6.944700 -37.148700 -14.831500
H -6.605100 -37.463100 -16.605800
H -6.499000 -37.965200 -14.558100
H -6.316600 -36.414800 -14.744000
35
Fragment
O -18.666800 -39.437300 -9.522000
H -18.155700 -41.741900 -9.185800
C -17.701100 -40.053600 -9.997400
N -17.569800 -41.394300 -9.711300
N -16.781300 -39.439200 -10.800600
C -16.588600 -42.228500 -10.188500
O -16.580900 -43.426600 -9.899000
H -16.208500 -38.166600 -12.797300
O -15.810100 -36.112800 -11.914400
C -15.808700 -40.202800 -11.282800
H -15.650000 -35.482400 -11.414400
C -15.609000 -41.568400 -11.021300
C -15.238000 -38.229200 -12.675900
N -14.909200 -39.585100 -12.153800
C -14.784000 -37.077200 -11.802300
H -14.774100 -43.993000 -10.950800
H -14.626800 -37.350000 -10.874400
O -14.616700 -38.092100 -13.932400
C -14.507800 -42.231300 -11.602800
H -14.324200 -36.163800 -14.330600
N -14.256000 -43.511900 -11.439800
C -13.881800 -40.287000 -12.647900
C -13.801300 -36.902000 -13.956200
N -13.623400 -41.546600 -12.403400
H -13.573600 -43.868800 -11.823600
C -13.501800 -36.607400 -12.501000
H -13.298800 -39.838400 -13.215900
O -13.229800 -35.241800 -12.329600
O -13.024500 -37.258700 -16.165200
H -12.738700 -37.143100 -12.198800
H -12.709300 -35.143100 -11.703900
C -12.599500 -37.148700 -14.831500
H -12.259900 -37.463100 -16.605800
H -12.153800 -37.965200 -14.558100
H -11.971400 -36.414800 -14.744000
70
Fragment
O -13.012000 -39.437300 -9.522000
H -12.500900 -41.741900 -9.185800
C -12.046300 -40.053600 -9.997400
N -11.915000 -41.394300 -9.711300
N -11.126500 -39.439200 -10.800600
C -10.933800 -42.228500 -10.188500
O -10.926100 -43.426600 -9.899000
H -10.553700 -38.166600 -12.797300
O -10.155300 -36.112800 -11.914400
C -10.153900 -40.202800 -11.282800
H -9.995200 -35.482400 -11.414400
C -9.954200 -41.568400 -11.021300
C -9.583200 -38.229200 -12.675900
N -9.254400 -39.585100 -12.153800
C -9.129200 -37.077200 -11.802300
H -9.119300 -43.993000 -10.950800
H -8.972000 -37.350000 -10.874400
O -8.961900 -38.092100 -13.932400
C -8.853000 -42.231300 -11.602800
H -8.669400 -36.163800 -14.330600
N -8.601200 -43.511900 -11.439800
C -8.227000 -40.287000 -12.647900
C -8.146500 -36.902000 -13.956200
N -7.968600 -41.546600 -12.403400
H -7.918800 -43.868800 -11.823600
C -7.847000 -36.607400 -12.501000
H -7.644000 -39.838400 -13.215900
O -7.575000 -35.241800 -12.329600
O -7.369700 -37.258700 -16.165200
H -7.083900 -37.143100 -12.198800
H -7.054500 -35.143100 -11.703900
C -6.944700 -37.148700 -14.831500
H -6.605100 -37.463100 -16.605800
H -6.499000 -37.965200 -14.558100
H -6.316600 -36.414800 -14.744000
O -18.666800 -39.437300 -9.522000
H -18.155700 -41.741900 -9.185800
C -17.701100 -40.053600 -9.997400
N -17.569800 -41.394300 -9.711300
N -16.781300 -39.439200 -10.800600
C -16.588600 -42.228500 -10.188500
O -16.580900 -43.426600 -9.899000
H -16.208500 -38.166600 -12.797300
O -15.810100 -36.112800 -11.914400
C -15.808700 -40.202800 -11.282800
H -15.650000 -35.482400 -11.414400
C -15.609000 -41.568400 -11.021300
C -15.238000 -38.229200 -12.675900
N -14.909200 -39.585100 -12.153800
C -14.784000 -37.077200 -11.802300
H -14.774100 -43.993000 -10.950800
H -14.626800 -37.350000 -10.874400
O -14.616700 -38.092100 -13.932400
C -14.507800 -42.231300 -11.602800
H -14.324200 -36.163800 -14.330600
N -14.256000 -43.511900 -11.439800
C -13.881800 -40.287000 -12.647900
C -13.801300 -36.902000 -13.956200
N -13.623400 -41.546600 -12.403400
H -13.573600 -43.868800 -11.823600
C -13.501800 -36.607400 -12.501000
H -13.298800 -39.838400 -13.215900
O -13.229800 -35.241800 -12.329600
O -13.024500 -37.258700 -16.165200
H -12.738700 -37.143100 -12.198800
H -12.709300 -35.143100 -11.703900
C -12.599500 -37.148700 -14.831500
H -12.259900 -37.463100 -16.605800
H -12.153800 -37.965200 -14.558100
H -11.971400 -36.414800 -14.744000
