35
Fragment
O -13.012000 -39.437300 -9.522000
H -12.500900 -41.741900 -9.185800
C -12.046300 -40.053600 -9.997400
N -11.915000 -41.394300 -9.711300
N -11.126500 -39.439200 -10.800600
C -10.933800 -42.228500 -10.188500
O -10.926100 -43.426600 -9.899000
H -10.553700 -38.166600 -12.797300
O -10.155300 -36.112800 -11.914400
C -10.153900 -40.202800 -11.282800
H -9.995200 -35.482400 -11.414400
C -9.954200 -41.568400 -11.021300
C -9.583200 -38.229200 -12.675900
N -9.254400 -39.585100 -12.153800
C -9.129200 -37.077200 -11.802300
H -9.119300 -43.993000 -10.950800
H -8.972000 -37.350000 -10.874400
O -8.961900 -38.092100 -13.932400
C -8.853000 -42.231300 -11.602800
H -8.669400 -36.163800 -14.330600
N -8.601200 -43.511900 -11.439800
C -8.227000 -40.287000 -12.647900
C -8.146500 -36.902000 -13.956200
N -7.968600 -41.546600 -12.403400
H -7.918800 -43.868800 -11.823600
C -7.847000 -36.607400 -12.501000
H -7.644000 -39.838400 -13.215900
O -7.575000 -35.241800 -12.329600
O -7.369700 -37.258700 -16.165200
H -7.083900 -37.143100 -12.198800
H -7.054500 -35.143100 -11.703900
C -6.944700 -37.148700 -14.831500
H -6.605100 -37.463100 -16.605800
H -6.499000 -37.965200 -14.558100
H -6.316600 -36.414800 -14.744000
35
Fragment
H -6.434300 -42.392900 -13.381400
O -6.398200 -44.740900 -12.984100
N -5.766300 -42.739200 -13.798300
C -5.595500 -44.106100 -13.682800
O -5.195700 -40.678100 -14.531800
C -4.965700 -41.879300 -14.518200
H -4.892800 -47.008200 -14.517300
N -4.577600 -44.714900 -14.349200
O -4.377300 -47.511400 -14.997000
H -4.089700 -46.500600 -16.674600
C -3.864700 -42.540000 -15.189700
C -3.765600 -43.939200 -15.050500
C -3.550300 -46.967100 -16.002200
H -3.509000 -40.056300 -15.727100
H -3.199800 -48.459300 -17.429300
H -3.146200 -46.404100 -19.113600
H -2.923100 -49.744900 -15.819700
C -2.910300 -41.849800 -15.957200
N -2.901400 -40.534100 -16.103200
C -2.730500 -48.089100 -16.653300
N -2.712100 -44.563500 -15.698300
O -2.607200 -45.996400 -18.650100
C -2.463800 -46.035500 -15.441900
O -2.413600 -49.110900 -15.715200
H -2.383600 -46.183400 -14.476600
H -2.288300 -40.158400 -16.574400
N -1.908100 -42.535600 -16.588800
C -1.860100 -43.831900 -16.435200
C -1.458000 -46.793300 -18.450600
C -1.454900 -47.395800 -17.073600
H -1.436300 -47.502100 -19.112800
O -1.251100 -46.368200 -16.056500
H -1.178300 -44.288200 -16.873200
H -0.718200 -48.040000 -17.017500
H -0.663600 -46.249600 -18.566100
70
Fragment
O -13.012000 -39.437300 -9.522000
H -12.500900 -41.741900 -9.185800
C -12.046300 -40.053600 -9.997400
N -11.915000 -41.394300 -9.711300
N -11.126500 -39.439200 -10.800600
C -10.933800 -42.228500 -10.188500
O -10.926100 -43.426600 -9.899000
H -10.553700 -38.166600 -12.797300
O -10.155300 -36.112800 -11.914400
C -10.153900 -40.202800 -11.282800
H -9.995200 -35.482400 -11.414400
C -9.954200 -41.568400 -11.021300
C -9.583200 -38.229200 -12.675900
N -9.254400 -39.585100 -12.153800
C -9.129200 -37.077200 -11.802300
H -9.119300 -43.993000 -10.950800
H -8.972000 -37.350000 -10.874400
O -8.961900 -38.092100 -13.932400
C -8.853000 -42.231300 -11.602800
H -8.669400 -36.163800 -14.330600
N -8.601200 -43.511900 -11.439800
C -8.227000 -40.287000 -12.647900
C -8.146500 -36.902000 -13.956200
N -7.968600 -41.546600 -12.403400
H -7.918800 -43.868800 -11.823600
C -7.847000 -36.607400 -12.501000
H -7.644000 -39.838400 -13.215900
O -7.575000 -35.241800 -12.329600
O -7.369700 -37.258700 -16.165200
H -7.083900 -37.143100 -12.198800
H -7.054500 -35.143100 -11.703900
C -6.944700 -37.148700 -14.831500
H -6.605100 -37.463100 -16.605800
H -6.499000 -37.965200 -14.558100
H -6.316600 -36.414800 -14.744000
H -6.434300 -42.392900 -13.381400
O -6.398200 -44.740900 -12.984100
N -5.766300 -42.739200 -13.798300
C -5.595500 -44.106100 -13.682800
O -5.195700 -40.678100 -14.531800
C -4.965700 -41.879300 -14.518200
H -4.892800 -47.008200 -14.517300
N -4.577600 -44.714900 -14.349200
O -4.377300 -47.511400 -14.997000
H -4.089700 -46.500600 -16.674600
C -3.864700 -42.540000 -15.189700
C -3.765600 -43.939200 -15.050500
C -3.550300 -46.967100 -16.002200
H -3.509000 -40.056300 -15.727100
H -3.199800 -48.459300 -17.429300
H -3.146200 -46.404100 -19.113600
H -2.923100 -49.744900 -15.819700
C -2.910300 -41.849800 -15.957200
N -2.901400 -40.534100 -16.103200
C -2.730500 -48.089100 -16.653300
N -2.712100 -44.563500 -15.698300
O -2.607200 -45.996400 -18.650100
C -2.463800 -46.035500 -15.441900
O -2.413600 -49.110900 -15.715200
H -2.383600 -46.183400 -14.476600
H -2.288300 -40.158400 -16.574400
N -1.908100 -42.535600 -16.588800
C -1.860100 -43.831900 -16.435200
C -1.458000 -46.793300 -18.450600
C -1.454900 -47.395800 -17.073600
H -1.436300 -47.502100 -19.112800
O -1.251100 -46.368200 -16.056500
H -1.178300 -44.288200 -16.873200
H -0.718200 -48.040000 -17.017500
H -0.663600 -46.249600 -18.566100
