35
Fragment
O -13.012000 -39.437300 -9.522000
H -12.500900 -41.741900 -9.185800
C -12.046300 -40.053600 -9.997400
N -11.915000 -41.394300 -9.711300
N -11.126500 -39.439200 -10.800600
C -10.933800 -42.228500 -10.188500
O -10.926100 -43.426600 -9.899000
H -10.553700 -38.166600 -12.797300
O -10.155300 -36.112800 -11.914400
C -10.153900 -40.202800 -11.282800
H -9.995200 -35.482400 -11.414400
C -9.954200 -41.568400 -11.021300
C -9.583200 -38.229200 -12.675900
N -9.254400 -39.585100 -12.153800
C -9.129200 -37.077200 -11.802300
H -9.119300 -43.993000 -10.950800
H -8.972000 -37.350000 -10.874400
O -8.961900 -38.092100 -13.932400
C -8.853000 -42.231300 -11.602800
H -8.669400 -36.163800 -14.330600
N -8.601200 -43.511900 -11.439800
C -8.227000 -40.287000 -12.647900
C -8.146500 -36.902000 -13.956200
N -7.968600 -41.546600 -12.403400
H -7.918800 -43.868800 -11.823600
C -7.847000 -36.607400 -12.501000
H -7.644000 -39.838400 -13.215900
O -7.575000 -35.241800 -12.329600
O -7.369700 -37.258700 -16.165200
H -7.083900 -37.143100 -12.198800
H -7.054500 -35.143100 -11.703900
C -6.944700 -37.148700 -14.831500
H -6.605100 -37.463100 -16.605800
H -6.499000 -37.965200 -14.558100
H -6.316600 -36.414800 -14.744000
35
Fragment
O -7.357200 -39.437300 -9.522000
H -6.846100 -41.741900 -9.185800
C -6.391500 -40.053600 -9.997400
N -6.260200 -41.394300 -9.711300
N -5.471700 -39.439200 -10.800600
C -5.279000 -42.228500 -10.188500
O -5.271300 -43.426600 -9.899000
H -4.898900 -38.166600 -12.797300
O -4.500500 -36.112800 -11.914400
C -4.499100 -40.202800 -11.282800
H -4.340400 -35.482400 -11.414400
C -4.299400 -41.568400 -11.021300
C -3.928400 -38.229200 -12.675900
N -3.599600 -39.585100 -12.153800
C -3.474400 -37.077200 -11.802300
H -3.464500 -43.993000 -10.950800
H -3.317200 -37.350000 -10.874400
O -3.307100 -38.092100 -13.932400
C -3.198200 -42.231300 -11.602800
H -3.014600 -36.163800 -14.330600
N -2.946400 -43.511900 -11.439800
C -2.572200 -40.287000 -12.647900
C -2.491700 -36.902000 -13.956200
N -2.313800 -41.546600 -12.403400
H -2.264000 -43.868800 -11.823600
C -2.192200 -36.607400 -12.501000
H -1.989200 -39.838400 -13.215900
O -1.920200 -35.241800 -12.329600
O -1.714900 -37.258700 -16.165200
H -1.429100 -37.143100 -12.198800
H -1.399700 -35.143100 -11.703900
C -1.289900 -37.148700 -14.831500
H -0.950300 -37.463100 -16.605800
H -0.844200 -37.965200 -14.558100
H -0.661800 -36.414800 -14.744000
70
Fragment
O -13.012000 -39.437300 -9.522000
H -12.500900 -41.741900 -9.185800
C -12.046300 -40.053600 -9.997400
N -11.915000 -41.394300 -9.711300
N -11.126500 -39.439200 -10.800600
C -10.933800 -42.228500 -10.188500
O -10.926100 -43.426600 -9.899000
H -10.553700 -38.166600 -12.797300
O -10.155300 -36.112800 -11.914400
C -10.153900 -40.202800 -11.282800
H -9.995200 -35.482400 -11.414400
C -9.954200 -41.568400 -11.021300
C -9.583200 -38.229200 -12.675900
N -9.254400 -39.585100 -12.153800
C -9.129200 -37.077200 -11.802300
H -9.119300 -43.993000 -10.950800
H -8.972000 -37.350000 -10.874400
O -8.961900 -38.092100 -13.932400
C -8.853000 -42.231300 -11.602800
H -8.669400 -36.163800 -14.330600
N -8.601200 -43.511900 -11.439800
C -8.227000 -40.287000 -12.647900
C -8.146500 -36.902000 -13.956200
N -7.968600 -41.546600 -12.403400
H -7.918800 -43.868800 -11.823600
C -7.847000 -36.607400 -12.501000
H -7.644000 -39.838400 -13.215900
O -7.575000 -35.241800 -12.329600
O -7.369700 -37.258700 -16.165200
H -7.083900 -37.143100 -12.198800
H -7.054500 -35.143100 -11.703900
C -6.944700 -37.148700 -14.831500
H -6.605100 -37.463100 -16.605800
H -6.499000 -37.965200 -14.558100
H -6.316600 -36.414800 -14.744000
O -7.357200 -39.437300 -9.522000
H -6.846100 -41.741900 -9.185800
C -6.391500 -40.053600 -9.997400
N -6.260200 -41.394300 -9.711300
N -5.471700 -39.439200 -10.800600
C -5.279000 -42.228500 -10.188500
O -5.271300 -43.426600 -9.899000
H -4.898900 -38.166600 -12.797300
O -4.500500 -36.112800 -11.914400
C -4.499100 -40.202800 -11.282800
H -4.340400 -35.482400 -11.414400
C -4.299400 -41.568400 -11.021300
C -3.928400 -38.229200 -12.675900
N -3.599600 -39.585100 -12.153800
C -3.474400 -37.077200 -11.802300
H -3.464500 -43.993000 -10.950800
H -3.317200 -37.350000 -10.874400
O -3.307100 -38.092100 -13.932400
C -3.198200 -42.231300 -11.602800
H -3.014600 -36.163800 -14.330600
N -2.946400 -43.511900 -11.439800
C -2.572200 -40.287000 -12.647900
C -2.491700 -36.902000 -13.956200
N -2.313800 -41.546600 -12.403400
H -2.264000 -43.868800 -11.823600
C -2.192200 -36.607400 -12.501000
H -1.989200 -39.838400 -13.215900
O -1.920200 -35.241800 -12.329600
O -1.714900 -37.258700 -16.165200
H -1.429100 -37.143100 -12.198800
H -1.399700 -35.143100 -11.703900
C -1.289900 -37.148700 -14.831500
H -0.950300 -37.463100 -16.605800
H -0.844200 -37.965200 -14.558100
H -0.661800 -36.414800 -14.744000
