35
Fragment
O -13.012000 -39.437300 -9.522000
H -12.500900 -41.741900 -9.185800
C -12.046300 -40.053600 -9.997400
N -11.915000 -41.394300 -9.711300
N -11.126500 -39.439200 -10.800600
C -10.933800 -42.228500 -10.188500
O -10.926100 -43.426600 -9.899000
H -10.553700 -38.166600 -12.797300
O -10.155300 -36.112800 -11.914400
C -10.153900 -40.202800 -11.282800
H -9.995200 -35.482400 -11.414400
C -9.954200 -41.568400 -11.021300
C -9.583200 -38.229200 -12.675900
N -9.254400 -39.585100 -12.153800
C -9.129200 -37.077200 -11.802300
H -9.119300 -43.993000 -10.950800
H -8.972000 -37.350000 -10.874400
O -8.961900 -38.092100 -13.932400
C -8.853000 -42.231300 -11.602800
H -8.669400 -36.163800 -14.330600
N -8.601200 -43.511900 -11.439800
C -8.227000 -40.287000 -12.647900
C -8.146500 -36.902000 -13.956200
N -7.968600 -41.546600 -12.403400
H -7.918800 -43.868800 -11.823600
C -7.847000 -36.607400 -12.501000
H -7.644000 -39.838400 -13.215900
O -7.575000 -35.241800 -12.329600
O -7.369700 -37.258700 -16.165200
H -7.083900 -37.143100 -12.198800
H -7.054500 -35.143100 -11.703900
C -6.944700 -37.148700 -14.831500
H -6.605100 -37.463100 -16.605800
H -6.499000 -37.965200 -14.558100
H -6.316600 -36.414800 -14.744000
35
Fragment
H -12.875300 -42.392900 -4.891700
O -12.839200 -44.740900 -4.494400
N -12.207400 -42.739200 -5.308600
C -12.036500 -44.106100 -5.193100
O -11.636700 -40.678100 -6.042100
C -11.406700 -41.879300 -6.028500
H -11.333800 -47.008200 -6.027700
N -11.018600 -44.714900 -5.859600
O -10.818400 -47.511400 -6.507300
H -10.530700 -46.500600 -8.184900
C -10.305700 -42.540000 -6.700000
C -10.206700 -43.939200 -6.560800
C -9.991300 -46.967100 -7.512500
H -9.950000 -40.056300 -7.237400
H -9.640800 -48.459300 -8.939600
H -9.587200 -46.404100 -10.624000
H -9.364100 -49.744900 -7.330000
C -9.351400 -41.849800 -7.467500
N -9.342400 -40.534100 -7.613500
C -9.171500 -48.089100 -8.163700
N -9.153100 -44.563500 -7.208600
O -9.048300 -45.996400 -10.160400
C -8.904900 -46.035500 -6.952200
O -8.854700 -49.110900 -7.225600
H -8.824600 -46.183400 -5.986900
H -8.729300 -40.158400 -8.084700
N -8.349100 -42.535600 -8.099100
C -8.301100 -43.831900 -7.945500
C -7.899000 -46.793300 -9.960900
C -7.895900 -47.395800 -8.583900
H -7.877300 -47.502100 -10.623100
O -7.692100 -46.368200 -7.566800
H -7.619300 -44.288200 -8.383600
H -7.159200 -48.040000 -8.527900
H -7.104600 -46.249600 -10.076400
70
Fragment
O -13.012000 -39.437300 -9.522000
H -12.500900 -41.741900 -9.185800
C -12.046300 -40.053600 -9.997400
N -11.915000 -41.394300 -9.711300
N -11.126500 -39.439200 -10.800600
C -10.933800 -42.228500 -10.188500
O -10.926100 -43.426600 -9.899000
H -10.553700 -38.166600 -12.797300
O -10.155300 -36.112800 -11.914400
C -10.153900 -40.202800 -11.282800
H -9.995200 -35.482400 -11.414400
C -9.954200 -41.568400 -11.021300
C -9.583200 -38.229200 -12.675900
N -9.254400 -39.585100 -12.153800
C -9.129200 -37.077200 -11.802300
H -9.119300 -43.993000 -10.950800
H -8.972000 -37.350000 -10.874400
O -8.961900 -38.092100 -13.932400
C -8.853000 -42.231300 -11.602800
H -8.669400 -36.163800 -14.330600
N -8.601200 -43.511900 -11.439800
C -8.227000 -40.287000 -12.647900
C -8.146500 -36.902000 -13.956200
N -7.968600 -41.546600 -12.403400
H -7.918800 -43.868800 -11.823600
C -7.847000 -36.607400 -12.501000
H -7.644000 -39.838400 -13.215900
O -7.575000 -35.241800 -12.329600
O -7.369700 -37.258700 -16.165200
H -7.083900 -37.143100 -12.198800
H -7.054500 -35.143100 -11.703900
C -6.944700 -37.148700 -14.831500
H -6.605100 -37.463100 -16.605800
H -6.499000 -37.965200 -14.558100
H -6.316600 -36.414800 -14.744000
H -12.875300 -42.392900 -4.891700
O -12.839200 -44.740900 -4.494400
N -12.207400 -42.739200 -5.308600
C -12.036500 -44.106100 -5.193100
O -11.636700 -40.678100 -6.042100
C -11.406700 -41.879300 -6.028500
H -11.333800 -47.008200 -6.027700
N -11.018600 -44.714900 -5.859600
O -10.818400 -47.511400 -6.507300
H -10.530700 -46.500600 -8.184900
C -10.305700 -42.540000 -6.700000
C -10.206700 -43.939200 -6.560800
C -9.991300 -46.967100 -7.512500
H -9.950000 -40.056300 -7.237400
H -9.640800 -48.459300 -8.939600
H -9.587200 -46.404100 -10.624000
H -9.364100 -49.744900 -7.330000
C -9.351400 -41.849800 -7.467500
N -9.342400 -40.534100 -7.613500
C -9.171500 -48.089100 -8.163700
N -9.153100 -44.563500 -7.208600
O -9.048300 -45.996400 -10.160400
C -8.904900 -46.035500 -6.952200
O -8.854700 -49.110900 -7.225600
H -8.824600 -46.183400 -5.986900
H -8.729300 -40.158400 -8.084700
N -8.349100 -42.535600 -8.099100
C -8.301100 -43.831900 -7.945500
C -7.899000 -46.793300 -9.960900
C -7.895900 -47.395800 -8.583900
H -7.877300 -47.502100 -10.623100
O -7.692100 -46.368200 -7.566800
H -7.619300 -44.288200 -8.383600
H -7.159200 -48.040000 -8.527900
H -7.104600 -46.249600 -10.076400
