35
Fragment
O -13.012000 -39.437300 -9.522000
H -12.500900 -41.741900 -9.185800
C -12.046300 -40.053600 -9.997400
N -11.915000 -41.394300 -9.711300
N -11.126500 -39.439200 -10.800600
C -10.933800 -42.228500 -10.188500
O -10.926100 -43.426600 -9.899000
H -10.553700 -38.166600 -12.797300
O -10.155300 -36.112800 -11.914400
C -10.153900 -40.202800 -11.282800
H -9.995200 -35.482400 -11.414400
C -9.954200 -41.568400 -11.021300
C -9.583200 -38.229200 -12.675900
N -9.254400 -39.585100 -12.153800
C -9.129200 -37.077200 -11.802300
H -9.119300 -43.993000 -10.950800
H -8.972000 -37.350000 -10.874400
O -8.961900 -38.092100 -13.932400
C -8.853000 -42.231300 -11.602800
H -8.669400 -36.163800 -14.330600
N -8.601200 -43.511900 -11.439800
C -8.227000 -40.287000 -12.647900
C -8.146500 -36.902000 -13.956200
N -7.968600 -41.546600 -12.403400
H -7.918800 -43.868800 -11.823600
C -7.847000 -36.607400 -12.501000
H -7.644000 -39.838400 -13.215900
O -7.575000 -35.241800 -12.329600
O -7.369700 -37.258700 -16.165200
H -7.083900 -37.143100 -12.198800
H -7.054500 -35.143100 -11.703900
C -6.944700 -37.148700 -14.831500
H -6.605100 -37.463100 -16.605800
H -6.499000 -37.965200 -14.558100
H -6.316600 -36.414800 -14.744000
35
Fragment
H -8.287400 -32.456100 -6.903000
H -8.232800 -34.246500 -8.451500
H -7.772700 -30.494700 -8.595800
O -7.699900 -32.574700 -9.412500
H -7.514700 -33.708600 -6.356200
C -7.496000 -33.602300 -8.395400
C -7.492900 -32.999800 -7.018400
C -7.090800 -30.038400 -9.033900
N -7.042900 -28.742100 -8.880200
H -6.662700 -26.364900 -8.894600
H -6.567400 -32.389900 -10.992400
O -6.537300 -35.317400 -9.753800
C -6.487100 -32.242000 -10.027200
O -6.343700 -32.202900 -6.818900
N -6.238900 -30.770000 -9.770800
C -6.220400 -34.295600 -8.815700
N -6.049600 -26.740600 -9.365800
C -6.040600 -28.056300 -9.511800
H -6.027900 -35.951400 -9.649400
H -5.804800 -32.610600 -6.355400
H -5.751100 -34.665800 -8.039700
H -5.441900 -26.262800 -9.741900
C -5.400700 -33.173600 -9.466800
C -5.185300 -30.145700 -10.418500
C -5.086200 -28.746500 -10.279300
H -4.861300 -32.707100 -8.794500
O -4.573600 -33.717900 -10.472000
N -4.373400 -30.921400 -11.119800
H -4.058100 -33.214700 -10.951700
C -3.985300 -28.085800 -10.950800
O -3.755200 -26.884600 -10.937200
C -3.355400 -30.312600 -11.786200
N -3.184600 -28.945700 -11.670800
O -2.552800 -30.947400 -12.484900
H -2.516600 -28.599400 -12.087600
70
Fragment
O -13.012000 -39.437300 -9.522000
H -12.500900 -41.741900 -9.185800
C -12.046300 -40.053600 -9.997400
N -11.915000 -41.394300 -9.711300
N -11.126500 -39.439200 -10.800600
C -10.933800 -42.228500 -10.188500
O -10.926100 -43.426600 -9.899000
H -10.553700 -38.166600 -12.797300
O -10.155300 -36.112800 -11.914400
C -10.153900 -40.202800 -11.282800
H -9.995200 -35.482400 -11.414400
C -9.954200 -41.568400 -11.021300
C -9.583200 -38.229200 -12.675900
N -9.254400 -39.585100 -12.153800
C -9.129200 -37.077200 -11.802300
H -9.119300 -43.993000 -10.950800
H -8.972000 -37.350000 -10.874400
O -8.961900 -38.092100 -13.932400
C -8.853000 -42.231300 -11.602800
H -8.669400 -36.163800 -14.330600
N -8.601200 -43.511900 -11.439800
C -8.227000 -40.287000 -12.647900
C -8.146500 -36.902000 -13.956200
N -7.968600 -41.546600 -12.403400
H -7.918800 -43.868800 -11.823600
C -7.847000 -36.607400 -12.501000
H -7.644000 -39.838400 -13.215900
O -7.575000 -35.241800 -12.329600
O -7.369700 -37.258700 -16.165200
H -7.083900 -37.143100 -12.198800
H -7.054500 -35.143100 -11.703900
C -6.944700 -37.148700 -14.831500
H -6.605100 -37.463100 -16.605800
H -6.499000 -37.965200 -14.558100
H -6.316600 -36.414800 -14.744000
H -8.287400 -32.456100 -6.903000
H -8.232800 -34.246500 -8.451500
H -7.772700 -30.494700 -8.595800
O -7.699900 -32.574700 -9.412500
H -7.514700 -33.708600 -6.356200
C -7.496000 -33.602300 -8.395400
C -7.492900 -32.999800 -7.018400
C -7.090800 -30.038400 -9.033900
N -7.042900 -28.742100 -8.880200
H -6.662700 -26.364900 -8.894600
H -6.567400 -32.389900 -10.992400
O -6.537300 -35.317400 -9.753800
C -6.487100 -32.242000 -10.027200
O -6.343700 -32.202900 -6.818900
N -6.238900 -30.770000 -9.770800
C -6.220400 -34.295600 -8.815700
N -6.049600 -26.740600 -9.365800
C -6.040600 -28.056300 -9.511800
H -6.027900 -35.951400 -9.649400
H -5.804800 -32.610600 -6.355400
H -5.751100 -34.665800 -8.039700
H -5.441900 -26.262800 -9.741900
C -5.400700 -33.173600 -9.466800
C -5.185300 -30.145700 -10.418500
C -5.086200 -28.746500 -10.279300
H -4.861300 -32.707100 -8.794500
O -4.573600 -33.717900 -10.472000
N -4.373400 -30.921400 -11.119800
H -4.058100 -33.214700 -10.951700
C -3.985300 -28.085800 -10.950800
O -3.755200 -26.884600 -10.937200
C -3.355400 -30.312600 -11.786200
N -3.184600 -28.945700 -11.670800
O -2.552800 -30.947400 -12.484900
H -2.516600 -28.599400 -12.087600
