38
Fragment
H -30.148500 -11.880900 -33.484400
H -30.072500 -9.581500 -32.584800
H -30.065400 -11.241700 -36.739700
H -29.831200 -8.047000 -32.796600
O -29.668300 -8.343500 -35.237000
H -29.606600 -13.774500 -32.284800
C -29.465100 -8.923900 -32.931800
C -29.260800 -9.157400 -34.388400
C -29.257500 -12.125000 -33.376300
C -29.146500 -11.505700 -36.827500
H -29.009100 -12.341700 -36.376700
C -28.932400 -13.259000 -32.665200
H -28.929200 -11.603500 -37.757400
H -28.623400 -8.993400 -32.475400
N -28.571100 -10.241300 -34.791100
H -28.380400 -9.622900 -36.697400
C -28.265100 -10.457100 -36.216100
C -28.253200 -11.349200 -33.929200
C -27.612400 -13.636400 -32.513800
H -27.400700 -14.413000 -32.047300
H -27.338000 -10.727700 -36.306200
C -26.924300 -11.700700 -33.770500
C -26.596700 -12.851400 -33.061700
H -26.253500 -11.170300 -34.136000
N -25.260400 -14.015600 -30.731500
C -25.184500 -13.296700 -33.055400
N -24.656400 -13.913000 -31.952500
H -24.633400 -12.772100 -34.901000
H -24.519500 -14.929400 -29.123900
C -24.385100 -14.704300 -30.016300
C -24.354300 -13.223000 -34.137000
C -23.408100 -14.518500 -31.995200
C -23.242200 -15.058300 -30.731500
C -23.087700 -13.818900 -34.108600
N -22.615800 -14.500100 -33.088200
H -22.545900 -13.726500 -34.858900
C -22.143600 -15.853400 -30.312700
N -21.290300 -16.527100 -29.975400
38
Fragment
H -20.115000 -16.065400 -33.484400
H -20.039000 -13.766000 -32.584800
H -20.031900 -15.426200 -36.739700
H -19.797700 -12.231500 -32.796600
O -19.634800 -12.528000 -35.237000
H -19.573100 -17.959000 -32.284800
C -19.431600 -13.108400 -32.931800
C -19.227300 -13.341900 -34.388400
C -19.224000 -16.309500 -33.376300
C -19.113000 -15.690200 -36.827500
H -18.975600 -16.526200 -36.376700
C -18.898900 -17.443500 -32.665200
H -18.895700 -15.788000 -37.757400
H -18.589900 -13.177900 -32.475400
N -18.537600 -14.425800 -34.791100
H -18.346900 -13.807400 -36.697400
C -18.231600 -14.641600 -36.216100
C -18.219700 -15.533700 -33.929200
C -17.578900 -17.820900 -32.513800
H -17.367200 -18.597500 -32.047300
H -17.304500 -14.912200 -36.306200
C -16.890800 -15.885200 -33.770500
C -16.563200 -17.035900 -33.061700
H -16.220000 -15.354800 -34.136000
N -15.226900 -18.200100 -30.731500
C -15.151000 -17.481200 -33.055400
N -14.622900 -18.097500 -31.952500
H -14.599900 -16.956600 -34.901000
H -14.486000 -19.113900 -29.123900
C -14.351600 -18.888800 -30.016300
C -14.320800 -17.407500 -34.137000
C -13.374600 -18.703000 -31.995200
C -13.208700 -19.242800 -30.731500
C -13.054200 -18.003400 -34.108600
N -12.582300 -18.684600 -33.088200
H -12.512400 -17.911000 -34.858900
C -12.110100 -20.037900 -30.312700
N -11.256800 -20.711600 -29.975400
76
Fragment
H -30.148500 -11.880900 -33.484400
H -30.072500 -9.581500 -32.584800
H -30.065400 -11.241700 -36.739700
H -29.831200 -8.047000 -32.796600
O -29.668300 -8.343500 -35.237000
H -29.606600 -13.774500 -32.284800
C -29.465100 -8.923900 -32.931800
C -29.260800 -9.157400 -34.388400
C -29.257500 -12.125000 -33.376300
C -29.146500 -11.505700 -36.827500
H -29.009100 -12.341700 -36.376700
C -28.932400 -13.259000 -32.665200
H -28.929200 -11.603500 -37.757400
H -28.623400 -8.993400 -32.475400
N -28.571100 -10.241300 -34.791100
H -28.380400 -9.622900 -36.697400
C -28.265100 -10.457100 -36.216100
C -28.253200 -11.349200 -33.929200
C -27.612400 -13.636400 -32.513800
H -27.400700 -14.413000 -32.047300
H -27.338000 -10.727700 -36.306200
C -26.924300 -11.700700 -33.770500
C -26.596700 -12.851400 -33.061700
H -26.253500 -11.170300 -34.136000
N -25.260400 -14.015600 -30.731500
C -25.184500 -13.296700 -33.055400
N -24.656400 -13.913000 -31.952500
H -24.633400 -12.772100 -34.901000
H -24.519500 -14.929400 -29.123900
C -24.385100 -14.704300 -30.016300
C -24.354300 -13.223000 -34.137000
C -23.408100 -14.518500 -31.995200
C -23.242200 -15.058300 -30.731500
C -23.087700 -13.818900 -34.108600
N -22.615800 -14.500100 -33.088200
H -22.545900 -13.726500 -34.858900
C -22.143600 -15.853400 -30.312700
N -21.290300 -16.527100 -29.975400
H -20.115000 -16.065400 -33.484400
H -20.039000 -13.766000 -32.584800
H -20.031900 -15.426200 -36.739700
H -19.797700 -12.231500 -32.796600
O -19.634800 -12.528000 -35.237000
H -19.573100 -17.959000 -32.284800
C -19.431600 -13.108400 -32.931800
C -19.227300 -13.341900 -34.388400
C -19.224000 -16.309500 -33.376300
C -19.113000 -15.690200 -36.827500
H -18.975600 -16.526200 -36.376700
C -18.898900 -17.443500 -32.665200
H -18.895700 -15.788000 -37.757400
H -18.589900 -13.177900 -32.475400
N -18.537600 -14.425800 -34.791100
H -18.346900 -13.807400 -36.697400
C -18.231600 -14.641600 -36.216100
C -18.219700 -15.533700 -33.929200
C -17.578900 -17.820900 -32.513800
H -17.367200 -18.597500 -32.047300
H -17.304500 -14.912200 -36.306200
C -16.890800 -15.885200 -33.770500
C -16.563200 -17.035900 -33.061700
H -16.220000 -15.354800 -34.136000
N -15.226900 -18.200100 -30.731500
C -15.151000 -17.481200 -33.055400
N -14.622900 -18.097500 -31.952500
H -14.599900 -16.956600 -34.901000
H -14.486000 -19.113900 -29.123900
C -14.351600 -18.888800 -30.016300
C -14.320800 -17.407500 -34.137000
C -13.374600 -18.703000 -31.995200
C -13.208700 -19.242800 -30.731500
C -13.054200 -18.003400 -34.108600
N -12.582300 -18.684600 -33.088200
H -12.512400 -17.911000 -34.858900
C -12.110100 -20.037900 -30.312700
N -11.256800 -20.711600 -29.975400
