38
Fragment
H -30.148500 -11.880900 -33.484400
H -30.072500 -9.581500 -32.584800
H -30.065400 -11.241700 -36.739700
H -29.831200 -8.047000 -32.796600
O -29.668300 -8.343500 -35.237000
H -29.606600 -13.774500 -32.284800
C -29.465100 -8.923900 -32.931800
C -29.260800 -9.157400 -34.388400
C -29.257500 -12.125000 -33.376300
C -29.146500 -11.505700 -36.827500
H -29.009100 -12.341700 -36.376700
C -28.932400 -13.259000 -32.665200
H -28.929200 -11.603500 -37.757400
H -28.623400 -8.993400 -32.475400
N -28.571100 -10.241300 -34.791100
H -28.380400 -9.622900 -36.697400
C -28.265100 -10.457100 -36.216100
C -28.253200 -11.349200 -33.929200
C -27.612400 -13.636400 -32.513800
H -27.400700 -14.413000 -32.047300
H -27.338000 -10.727700 -36.306200
C -26.924300 -11.700700 -33.770500
C -26.596700 -12.851400 -33.061700
H -26.253500 -11.170300 -34.136000
N -25.260400 -14.015600 -30.731500
C -25.184500 -13.296700 -33.055400
N -24.656400 -13.913000 -31.952500
H -24.633400 -12.772100 -34.901000
H -24.519500 -14.929400 -29.123900
C -24.385100 -14.704300 -30.016300
C -24.354300 -13.223000 -34.137000
C -23.408100 -14.518500 -31.995200
C -23.242200 -15.058300 -30.731500
C -23.087700 -13.818900 -34.108600
N -22.615800 -14.500100 -33.088200
H -22.545900 -13.726500 -34.858900
C -22.143600 -15.853400 -30.312700
N -21.290300 -16.527100 -29.975400
38
Fragment
H -30.148500 -3.511900 -33.484400
H -30.072500 -1.212500 -32.584800
H -30.065400 -2.872700 -36.739700
H -29.831200 0.322000 -32.796600
O -29.668300 0.025500 -35.237000
H -29.606600 -5.405500 -32.284800
C -29.465100 -0.554900 -32.931800
C -29.260800 -0.788400 -34.388400
C -29.257500 -3.756000 -33.376300
C -29.146500 -3.136700 -36.827500
H -29.009100 -3.972700 -36.376700
C -28.932400 -4.890000 -32.665200
H -28.929200 -3.234500 -37.757400
H -28.623400 -0.624400 -32.475400
N -28.571100 -1.872300 -34.791100
H -28.380400 -1.253900 -36.697400
C -28.265100 -2.088100 -36.216100
C -28.253200 -2.980200 -33.929200
C -27.612400 -5.267400 -32.513800
H -27.400700 -6.044000 -32.047300
H -27.338000 -2.358700 -36.306200
C -26.924300 -3.331700 -33.770500
C -26.596700 -4.482400 -33.061700
H -26.253500 -2.801300 -34.136000
N -25.260400 -5.646600 -30.731500
C -25.184500 -4.927700 -33.055400
N -24.656400 -5.544000 -31.952500
H -24.633400 -4.403100 -34.901000
H -24.519500 -6.560400 -29.123900
C -24.385100 -6.335300 -30.016300
C -24.354300 -4.854000 -34.137000
C -23.408100 -6.149500 -31.995200
C -23.242200 -6.689300 -30.731500
C -23.087700 -5.449900 -34.108600
N -22.615800 -6.131100 -33.088200
H -22.545900 -5.357500 -34.858900
C -22.143600 -7.484400 -30.312700
N -21.290300 -8.158100 -29.975400
76
Fragment
H -30.148500 -11.880900 -33.484400
H -30.072500 -9.581500 -32.584800
H -30.065400 -11.241700 -36.739700
H -29.831200 -8.047000 -32.796600
O -29.668300 -8.343500 -35.237000
H -29.606600 -13.774500 -32.284800
C -29.465100 -8.923900 -32.931800
C -29.260800 -9.157400 -34.388400
C -29.257500 -12.125000 -33.376300
C -29.146500 -11.505700 -36.827500
H -29.009100 -12.341700 -36.376700
C -28.932400 -13.259000 -32.665200
H -28.929200 -11.603500 -37.757400
H -28.623400 -8.993400 -32.475400
N -28.571100 -10.241300 -34.791100
H -28.380400 -9.622900 -36.697400
C -28.265100 -10.457100 -36.216100
C -28.253200 -11.349200 -33.929200
C -27.612400 -13.636400 -32.513800
H -27.400700 -14.413000 -32.047300
H -27.338000 -10.727700 -36.306200
C -26.924300 -11.700700 -33.770500
C -26.596700 -12.851400 -33.061700
H -26.253500 -11.170300 -34.136000
N -25.260400 -14.015600 -30.731500
C -25.184500 -13.296700 -33.055400
N -24.656400 -13.913000 -31.952500
H -24.633400 -12.772100 -34.901000
H -24.519500 -14.929400 -29.123900
C -24.385100 -14.704300 -30.016300
C -24.354300 -13.223000 -34.137000
C -23.408100 -14.518500 -31.995200
C -23.242200 -15.058300 -30.731500
C -23.087700 -13.818900 -34.108600
N -22.615800 -14.500100 -33.088200
H -22.545900 -13.726500 -34.858900
C -22.143600 -15.853400 -30.312700
N -21.290300 -16.527100 -29.975400
H -30.148500 -3.511900 -33.484400
H -30.072500 -1.212500 -32.584800
H -30.065400 -2.872700 -36.739700
H -29.831200 0.322000 -32.796600
O -29.668300 0.025500 -35.237000
H -29.606600 -5.405500 -32.284800
C -29.465100 -0.554900 -32.931800
C -29.260800 -0.788400 -34.388400
C -29.257500 -3.756000 -33.376300
C -29.146500 -3.136700 -36.827500
H -29.009100 -3.972700 -36.376700
C -28.932400 -4.890000 -32.665200
H -28.929200 -3.234500 -37.757400
H -28.623400 -0.624400 -32.475400
N -28.571100 -1.872300 -34.791100
H -28.380400 -1.253900 -36.697400
C -28.265100 -2.088100 -36.216100
C -28.253200 -2.980200 -33.929200
C -27.612400 -5.267400 -32.513800
H -27.400700 -6.044000 -32.047300
H -27.338000 -2.358700 -36.306200
C -26.924300 -3.331700 -33.770500
C -26.596700 -4.482400 -33.061700
H -26.253500 -2.801300 -34.136000
N -25.260400 -5.646600 -30.731500
C -25.184500 -4.927700 -33.055400
N -24.656400 -5.544000 -31.952500
H -24.633400 -4.403100 -34.901000
H -24.519500 -6.560400 -29.123900
C -24.385100 -6.335300 -30.016300
C -24.354300 -4.854000 -34.137000
C -23.408100 -6.149500 -31.995200
C -23.242200 -6.689300 -30.731500
C -23.087700 -5.449900 -34.108600
N -22.615800 -6.131100 -33.088200
H -22.545900 -5.357500 -34.858900
C -22.143600 -7.484400 -30.312700
N -21.290300 -8.158100 -29.975400
