38
Fragment
H -30.148500 -11.880900 -33.484400
H -30.072500 -9.581500 -32.584800
H -30.065400 -11.241700 -36.739700
H -29.831200 -8.047000 -32.796600
O -29.668300 -8.343500 -35.237000
H -29.606600 -13.774500 -32.284800
C -29.465100 -8.923900 -32.931800
C -29.260800 -9.157400 -34.388400
C -29.257500 -12.125000 -33.376300
C -29.146500 -11.505700 -36.827500
H -29.009100 -12.341700 -36.376700
C -28.932400 -13.259000 -32.665200
H -28.929200 -11.603500 -37.757400
H -28.623400 -8.993400 -32.475400
N -28.571100 -10.241300 -34.791100
H -28.380400 -9.622900 -36.697400
C -28.265100 -10.457100 -36.216100
C -28.253200 -11.349200 -33.929200
C -27.612400 -13.636400 -32.513800
H -27.400700 -14.413000 -32.047300
H -27.338000 -10.727700 -36.306200
C -26.924300 -11.700700 -33.770500
C -26.596700 -12.851400 -33.061700
H -26.253500 -11.170300 -34.136000
N -25.260400 -14.015600 -30.731500
C -25.184500 -13.296700 -33.055400
N -24.656400 -13.913000 -31.952500
H -24.633400 -12.772100 -34.901000
H -24.519500 -14.929400 -29.123900
C -24.385100 -14.704300 -30.016300
C -24.354300 -13.223000 -34.137000
C -23.408100 -14.518500 -31.995200
C -23.242200 -15.058300 -30.731500
C -23.087700 -13.818900 -34.108600
N -22.615800 -14.500100 -33.088200
H -22.545900 -13.726500 -34.858900
C -22.143600 -15.853400 -30.312700
N -21.290300 -16.527100 -29.975400
38
Fragment
N -34.009300 -20.711600 -42.627400
C -33.156000 -20.037900 -42.290100
H -32.753700 -17.911000 -37.743900
N -32.683800 -18.684600 -39.514600
C -32.211900 -18.003400 -38.494200
C -32.057400 -19.242800 -41.871300
C -31.891500 -18.703000 -40.607600
C -30.945300 -17.407500 -38.465800
C -30.914500 -18.888800 -42.586500
H -30.780100 -19.113900 -43.478900
H -30.666200 -16.956600 -37.701800
N -30.643200 -18.097500 -40.650300
C -30.115100 -17.481200 -39.547400
N -30.039200 -18.200100 -41.871300
H -29.046100 -15.354800 -38.466800
C -28.702900 -17.035900 -39.541100
C -28.375300 -15.885200 -38.832300
H -27.961600 -14.912200 -36.296600
H -27.898800 -18.597500 -40.555500
C -27.687200 -17.820900 -40.089000
C -27.046400 -15.533700 -38.673600
C -27.034500 -14.641600 -36.386700
H -26.919100 -13.807400 -35.905400
N -26.728500 -14.425800 -37.811700
H -26.676100 -13.177900 -40.127400
H -26.370400 -15.788000 -34.845400
C -26.367200 -17.443500 -39.937600
H -26.290500 -16.526200 -36.226100
C -26.153000 -15.690200 -35.775300
C -26.042100 -16.309500 -39.226500
C -26.038800 -13.341900 -38.214400
C -25.834500 -13.108400 -39.671000
H -25.693000 -17.959000 -40.318000
O -25.631200 -12.528000 -37.365800
H -25.468300 -12.231500 -39.806300
H -25.234200 -15.426200 -35.863100
H -25.227100 -13.766000 -40.018000
H -25.151100 -16.065400 -39.118400
76
Fragment
H -30.148500 -11.880900 -33.484400
H -30.072500 -9.581500 -32.584800
H -30.065400 -11.241700 -36.739700
H -29.831200 -8.047000 -32.796600
O -29.668300 -8.343500 -35.237000
H -29.606600 -13.774500 -32.284800
C -29.465100 -8.923900 -32.931800
C -29.260800 -9.157400 -34.388400
C -29.257500 -12.125000 -33.376300
C -29.146500 -11.505700 -36.827500
H -29.009100 -12.341700 -36.376700
C -28.932400 -13.259000 -32.665200
H -28.929200 -11.603500 -37.757400
H -28.623400 -8.993400 -32.475400
N -28.571100 -10.241300 -34.791100
H -28.380400 -9.622900 -36.697400
C -28.265100 -10.457100 -36.216100
C -28.253200 -11.349200 -33.929200
C -27.612400 -13.636400 -32.513800
H -27.400700 -14.413000 -32.047300
H -27.338000 -10.727700 -36.306200
C -26.924300 -11.700700 -33.770500
C -26.596700 -12.851400 -33.061700
H -26.253500 -11.170300 -34.136000
N -25.260400 -14.015600 -30.731500
C -25.184500 -13.296700 -33.055400
N -24.656400 -13.913000 -31.952500
H -24.633400 -12.772100 -34.901000
H -24.519500 -14.929400 -29.123900
C -24.385100 -14.704300 -30.016300
C -24.354300 -13.223000 -34.137000
C -23.408100 -14.518500 -31.995200
C -23.242200 -15.058300 -30.731500
C -23.087700 -13.818900 -34.108600
N -22.615800 -14.500100 -33.088200
H -22.545900 -13.726500 -34.858900
C -22.143600 -15.853400 -30.312700
N -21.290300 -16.527100 -29.975400
N -34.009300 -20.711600 -42.627400
C -33.156000 -20.037900 -42.290100
H -32.753700 -17.911000 -37.743900
N -32.683800 -18.684600 -39.514600
C -32.211900 -18.003400 -38.494200
C -32.057400 -19.242800 -41.871300
C -31.891500 -18.703000 -40.607600
C -30.945300 -17.407500 -38.465800
C -30.914500 -18.888800 -42.586500
H -30.780100 -19.113900 -43.478900
H -30.666200 -16.956600 -37.701800
N -30.643200 -18.097500 -40.650300
C -30.115100 -17.481200 -39.547400
N -30.039200 -18.200100 -41.871300
H -29.046100 -15.354800 -38.466800
C -28.702900 -17.035900 -39.541100
C -28.375300 -15.885200 -38.832300
H -27.961600 -14.912200 -36.296600
H -27.898800 -18.597500 -40.555500
C -27.687200 -17.820900 -40.089000
C -27.046400 -15.533700 -38.673600
C -27.034500 -14.641600 -36.386700
H -26.919100 -13.807400 -35.905400
N -26.728500 -14.425800 -37.811700
H -26.676100 -13.177900 -40.127400
H -26.370400 -15.788000 -34.845400
C -26.367200 -17.443500 -39.937600
H -26.290500 -16.526200 -36.226100
C -26.153000 -15.690200 -35.775300
C -26.042100 -16.309500 -39.226500
C -26.038800 -13.341900 -38.214400
C -25.834500 -13.108400 -39.671000
H -25.693000 -17.959000 -40.318000
O -25.631200 -12.528000 -37.365800
H -25.468300 -12.231500 -39.806300
H -25.234200 -15.426200 -35.863100
H -25.227100 -13.766000 -40.018000
H -25.151100 -16.065400 -39.118400
