31
Fragment
H -21.038800 -24.759100 -24.888300
H -20.828800 -23.759300 -22.366600
N -20.318700 -25.176200 -24.669500
C -20.075700 -24.303200 -22.331000
O -19.935400 -26.279500 -26.642600
C -19.689900 -25.061700 -23.415600
C -19.655000 -26.017400 -25.483100
H -19.536100 -23.886500 -20.438700
C -19.298000 -24.384100 -21.186800
H -19.153500 -30.515100 -25.005300
H -18.771900 -28.363100 -23.793300
C -18.600100 -30.164900 -25.665400
C -18.563900 -25.867200 -23.376000
N -18.513400 -28.020900 -24.538300
H -18.483100 -31.836400 -26.767300
C -18.430700 -26.589400 -24.692700
C -18.193100 -30.954000 -26.722100
C -18.179300 -25.187100 -21.135600
C -18.174300 -28.833700 -25.596400
C -17.798500 -25.942300 -22.238400
H -17.674200 -25.224600 -20.354900
C -17.361700 -30.461600 -27.716200
C -17.318100 -28.339100 -26.588100
N -17.205200 -26.261100 -25.397000
H -17.103000 -31.004100 -28.426300
H -17.044400 -26.485700 -22.206000
C -16.921200 -29.153400 -27.640100
C -16.756400 -26.984800 -26.445300
H -16.748100 -25.581300 -25.136200
H -16.355900 -28.816900 -28.297000
O -15.871600 -26.560100 -27.193200
31
Fragment
H -15.710100 -24.759100 -18.769200
H -15.500100 -23.759300 -21.290900
N -14.990000 -25.176200 -18.988000
C -14.747000 -24.303200 -21.326500
O -14.606700 -26.279500 -17.014900
C -14.361200 -25.061700 -20.241900
C -14.326300 -26.017400 -18.174400
H -14.207400 -23.886500 -23.218800
C -13.969300 -24.384100 -22.470700
H -13.824800 -30.515100 -18.652200
H -13.443200 -28.363100 -19.864200
C -13.271400 -30.164900 -17.992100
C -13.235200 -25.867200 -20.281500
N -13.184700 -28.020900 -19.119200
H -13.154400 -31.836400 -16.890200
C -13.102000 -26.589400 -18.964800
C -12.864400 -30.954000 -16.935400
C -12.850600 -25.187100 -22.521900
C -12.845600 -28.833700 -18.061100
C -12.469800 -25.942300 -21.419100
H -12.345500 -25.224600 -23.302600
C -12.033000 -30.461600 -15.941300
C -11.989400 -28.339100 -17.069400
N -11.876500 -26.261100 -18.260500
H -11.774300 -31.004100 -15.231200
H -11.715700 -26.485700 -21.451500
C -11.592500 -29.153400 -16.017400
C -11.427700 -26.984800 -17.212200
H -11.419400 -25.581300 -18.521300
H -11.027200 -28.816900 -15.360500
O -10.542900 -26.560100 -16.464300
62
Fragment
H -21.038800 -24.759100 -24.888300
H -20.828800 -23.759300 -22.366600
N -20.318700 -25.176200 -24.669500
C -20.075700 -24.303200 -22.331000
O -19.935400 -26.279500 -26.642600
C -19.689900 -25.061700 -23.415600
C -19.655000 -26.017400 -25.483100
H -19.536100 -23.886500 -20.438700
C -19.298000 -24.384100 -21.186800
H -19.153500 -30.515100 -25.005300
H -18.771900 -28.363100 -23.793300
C -18.600100 -30.164900 -25.665400
C -18.563900 -25.867200 -23.376000
N -18.513400 -28.020900 -24.538300
H -18.483100 -31.836400 -26.767300
C -18.430700 -26.589400 -24.692700
C -18.193100 -30.954000 -26.722100
C -18.179300 -25.187100 -21.135600
C -18.174300 -28.833700 -25.596400
C -17.798500 -25.942300 -22.238400
H -17.674200 -25.224600 -20.354900
C -17.361700 -30.461600 -27.716200
C -17.318100 -28.339100 -26.588100
N -17.205200 -26.261100 -25.397000
H -17.103000 -31.004100 -28.426300
H -17.044400 -26.485700 -22.206000
C -16.921200 -29.153400 -27.640100
C -16.756400 -26.984800 -26.445300
H -16.748100 -25.581300 -25.136200
H -16.355900 -28.816900 -28.297000
O -15.871600 -26.560100 -27.193200
H -15.710100 -24.759100 -18.769200
H -15.500100 -23.759300 -21.290900
N -14.990000 -25.176200 -18.988000
C -14.747000 -24.303200 -21.326500
O -14.606700 -26.279500 -17.014900
C -14.361200 -25.061700 -20.241900
C -14.326300 -26.017400 -18.174400
H -14.207400 -23.886500 -23.218800
C -13.969300 -24.384100 -22.470700
H -13.824800 -30.515100 -18.652200
H -13.443200 -28.363100 -19.864200
C -13.271400 -30.164900 -17.992100
C -13.235200 -25.867200 -20.281500
N -13.184700 -28.020900 -19.119200
H -13.154400 -31.836400 -16.890200
C -13.102000 -26.589400 -18.964800
C -12.864400 -30.954000 -16.935400
C -12.850600 -25.187100 -22.521900
C -12.845600 -28.833700 -18.061100
C -12.469800 -25.942300 -21.419100
H -12.345500 -25.224600 -23.302600
C -12.033000 -30.461600 -15.941300
C -11.989400 -28.339100 -17.069400
N -11.876500 -26.261100 -18.260500
H -11.774300 -31.004100 -15.231200
H -11.715700 -26.485700 -21.451500
C -11.592500 -29.153400 -16.017400
C -11.427700 -26.984800 -17.212200
H -11.419400 -25.581300 -18.521300
H -11.027200 -28.816900 -15.360500
O -10.542900 -26.560100 -16.464300
