31
Fragment
H -21.038800 -24.759100 -24.888300
H -20.828800 -23.759300 -22.366600
N -20.318700 -25.176200 -24.669500
C -20.075700 -24.303200 -22.331000
O -19.935400 -26.279500 -26.642600
C -19.689900 -25.061700 -23.415600
C -19.655000 -26.017400 -25.483100
H -19.536100 -23.886500 -20.438700
C -19.298000 -24.384100 -21.186800
H -19.153500 -30.515100 -25.005300
H -18.771900 -28.363100 -23.793300
C -18.600100 -30.164900 -25.665400
C -18.563900 -25.867200 -23.376000
N -18.513400 -28.020900 -24.538300
H -18.483100 -31.836400 -26.767300
C -18.430700 -26.589400 -24.692700
C -18.193100 -30.954000 -26.722100
C -18.179300 -25.187100 -21.135600
C -18.174300 -28.833700 -25.596400
C -17.798500 -25.942300 -22.238400
H -17.674200 -25.224600 -20.354900
C -17.361700 -30.461600 -27.716200
C -17.318100 -28.339100 -26.588100
N -17.205200 -26.261100 -25.397000
H -17.103000 -31.004100 -28.426300
H -17.044400 -26.485700 -22.206000
C -16.921200 -29.153400 -27.640100
C -16.756400 -26.984800 -26.445300
H -16.748100 -25.581300 -25.136200
H -16.355900 -28.816900 -28.297000
O -15.871600 -26.560100 -27.193200
31
Fragment
O -21.429300 -34.933700 -27.193200
H -20.945000 -37.190500 -28.297000
H -20.552800 -33.954900 -25.136200
C -20.544500 -35.358400 -26.445300
C -20.379700 -37.527000 -27.640100
H -20.256500 -34.859300 -22.206000
H -20.197900 -39.377700 -28.426300
N -20.095700 -34.634700 -25.397000
C -19.982800 -36.712700 -26.588100
C -19.939200 -38.835200 -27.716200
H -19.626700 -33.598200 -20.354900
C -19.502400 -34.315900 -22.238400
C -19.126600 -37.207300 -25.596400
C -19.121600 -33.560700 -21.135600
C -19.107800 -39.327600 -26.722100
C -18.870200 -34.963000 -24.692700
H -18.817800 -40.210000 -26.767300
N -18.787500 -36.394500 -24.538300
C -18.737000 -34.240800 -23.376000
C -18.700800 -38.538500 -25.665400
H -18.529000 -36.736700 -23.793300
H -18.147400 -38.888700 -25.005300
C -18.002900 -32.757700 -21.186800
H -17.764800 -32.260100 -20.438700
C -17.645900 -34.391000 -25.483100
C -17.611000 -33.435300 -23.415600
O -17.365500 -34.653100 -26.642600
C -17.225200 -32.676800 -22.331000
N -16.982200 -33.549800 -24.669500
H -16.472100 -32.132900 -22.366600
H -16.262100 -33.132700 -24.888300
62
Fragment
H -21.038800 -24.759100 -24.888300
H -20.828800 -23.759300 -22.366600
N -20.318700 -25.176200 -24.669500
C -20.075700 -24.303200 -22.331000
O -19.935400 -26.279500 -26.642600
C -19.689900 -25.061700 -23.415600
C -19.655000 -26.017400 -25.483100
H -19.536100 -23.886500 -20.438700
C -19.298000 -24.384100 -21.186800
H -19.153500 -30.515100 -25.005300
H -18.771900 -28.363100 -23.793300
C -18.600100 -30.164900 -25.665400
C -18.563900 -25.867200 -23.376000
N -18.513400 -28.020900 -24.538300
H -18.483100 -31.836400 -26.767300
C -18.430700 -26.589400 -24.692700
C -18.193100 -30.954000 -26.722100
C -18.179300 -25.187100 -21.135600
C -18.174300 -28.833700 -25.596400
C -17.798500 -25.942300 -22.238400
H -17.674200 -25.224600 -20.354900
C -17.361700 -30.461600 -27.716200
C -17.318100 -28.339100 -26.588100
N -17.205200 -26.261100 -25.397000
H -17.103000 -31.004100 -28.426300
H -17.044400 -26.485700 -22.206000
C -16.921200 -29.153400 -27.640100
C -16.756400 -26.984800 -26.445300
H -16.748100 -25.581300 -25.136200
H -16.355900 -28.816900 -28.297000
O -15.871600 -26.560100 -27.193200
O -21.429300 -34.933700 -27.193200
H -20.945000 -37.190500 -28.297000
H -20.552800 -33.954900 -25.136200
C -20.544500 -35.358400 -26.445300
C -20.379700 -37.527000 -27.640100
H -20.256500 -34.859300 -22.206000
H -20.197900 -39.377700 -28.426300
N -20.095700 -34.634700 -25.397000
C -19.982800 -36.712700 -26.588100
C -19.939200 -38.835200 -27.716200
H -19.626700 -33.598200 -20.354900
C -19.502400 -34.315900 -22.238400
C -19.126600 -37.207300 -25.596400
C -19.121600 -33.560700 -21.135600
C -19.107800 -39.327600 -26.722100
C -18.870200 -34.963000 -24.692700
H -18.817800 -40.210000 -26.767300
N -18.787500 -36.394500 -24.538300
C -18.737000 -34.240800 -23.376000
C -18.700800 -38.538500 -25.665400
H -18.529000 -36.736700 -23.793300
H -18.147400 -38.888700 -25.005300
C -18.002900 -32.757700 -21.186800
H -17.764800 -32.260100 -20.438700
C -17.645900 -34.391000 -25.483100
C -17.611000 -33.435300 -23.415600
O -17.365500 -34.653100 -26.642600
C -17.225200 -32.676800 -22.331000
N -16.982200 -33.549800 -24.669500
H -16.472100 -32.132900 -22.366600
H -16.262100 -33.132700 -24.888300
