31
Fragment
H -21.038800 -24.759100 -24.888300
H -20.828800 -23.759300 -22.366600
N -20.318700 -25.176200 -24.669500
C -20.075700 -24.303200 -22.331000
O -19.935400 -26.279500 -26.642600
C -19.689900 -25.061700 -23.415600
C -19.655000 -26.017400 -25.483100
H -19.536100 -23.886500 -20.438700
C -19.298000 -24.384100 -21.186800
H -19.153500 -30.515100 -25.005300
H -18.771900 -28.363100 -23.793300
C -18.600100 -30.164900 -25.665400
C -18.563900 -25.867200 -23.376000
N -18.513400 -28.020900 -24.538300
H -18.483100 -31.836400 -26.767300
C -18.430700 -26.589400 -24.692700
C -18.193100 -30.954000 -26.722100
C -18.179300 -25.187100 -21.135600
C -18.174300 -28.833700 -25.596400
C -17.798500 -25.942300 -22.238400
H -17.674200 -25.224600 -20.354900
C -17.361700 -30.461600 -27.716200
C -17.318100 -28.339100 -26.588100
N -17.205200 -26.261100 -25.397000
H -17.103000 -31.004100 -28.426300
H -17.044400 -26.485700 -22.206000
C -16.921200 -29.153400 -27.640100
C -16.756400 -26.984800 -26.445300
H -16.748100 -25.581300 -25.136200
H -16.355900 -28.816900 -28.297000
O -15.871600 -26.560100 -27.193200
31
Fragment
H -21.038800 -33.856100 -16.156800
H -20.828800 -34.855900 -13.635100
N -20.318700 -33.439000 -15.938000
C -20.075700 -34.312000 -13.599500
O -19.935400 -32.335700 -17.911100
C -19.689900 -33.553500 -14.684100
C -19.655000 -32.597800 -16.751600
H -19.536100 -34.728700 -11.707200
C -19.298000 -34.231100 -12.455300
H -19.153500 -28.100100 -16.273800
H -18.771900 -30.252100 -15.061800
C -18.600100 -28.450300 -16.933900
C -18.563900 -32.748000 -14.644500
N -18.513400 -30.594300 -15.806800
H -18.483100 -26.778800 -18.035800
C -18.430700 -32.025800 -15.961200
C -18.193100 -27.661200 -17.990600
C -18.179300 -33.428100 -12.404100
C -18.174300 -29.781500 -16.864900
C -17.798500 -32.672900 -13.506900
H -17.674200 -33.390600 -11.623400
C -17.361700 -28.153600 -18.984700
C -17.318100 -30.276100 -17.856600
N -17.205200 -32.354100 -16.665500
H -17.103000 -27.611100 -19.694800
H -17.044400 -32.129500 -13.474500
C -16.921200 -29.461800 -18.908600
C -16.756400 -31.630400 -17.713800
H -16.748100 -33.033900 -16.404700
H -16.355900 -29.798300 -19.565500
O -15.871600 -32.055100 -18.461700
62
Fragment
H -21.038800 -24.759100 -24.888300
H -20.828800 -23.759300 -22.366600
N -20.318700 -25.176200 -24.669500
C -20.075700 -24.303200 -22.331000
O -19.935400 -26.279500 -26.642600
C -19.689900 -25.061700 -23.415600
C -19.655000 -26.017400 -25.483100
H -19.536100 -23.886500 -20.438700
C -19.298000 -24.384100 -21.186800
H -19.153500 -30.515100 -25.005300
H -18.771900 -28.363100 -23.793300
C -18.600100 -30.164900 -25.665400
C -18.563900 -25.867200 -23.376000
N -18.513400 -28.020900 -24.538300
H -18.483100 -31.836400 -26.767300
C -18.430700 -26.589400 -24.692700
C -18.193100 -30.954000 -26.722100
C -18.179300 -25.187100 -21.135600
C -18.174300 -28.833700 -25.596400
C -17.798500 -25.942300 -22.238400
H -17.674200 -25.224600 -20.354900
C -17.361700 -30.461600 -27.716200
C -17.318100 -28.339100 -26.588100
N -17.205200 -26.261100 -25.397000
H -17.103000 -31.004100 -28.426300
H -17.044400 -26.485700 -22.206000
C -16.921200 -29.153400 -27.640100
C -16.756400 -26.984800 -26.445300
H -16.748100 -25.581300 -25.136200
H -16.355900 -28.816900 -28.297000
O -15.871600 -26.560100 -27.193200
H -21.038800 -33.856100 -16.156800
H -20.828800 -34.855900 -13.635100
N -20.318700 -33.439000 -15.938000
C -20.075700 -34.312000 -13.599500
O -19.935400 -32.335700 -17.911100
C -19.689900 -33.553500 -14.684100
C -19.655000 -32.597800 -16.751600
H -19.536100 -34.728700 -11.707200
C -19.298000 -34.231100 -12.455300
H -19.153500 -28.100100 -16.273800
H -18.771900 -30.252100 -15.061800
C -18.600100 -28.450300 -16.933900
C -18.563900 -32.748000 -14.644500
N -18.513400 -30.594300 -15.806800
H -18.483100 -26.778800 -18.035800
C -18.430700 -32.025800 -15.961200
C -18.193100 -27.661200 -17.990600
C -18.179300 -33.428100 -12.404100
C -18.174300 -29.781500 -16.864900
C -17.798500 -32.672900 -13.506900
H -17.674200 -33.390600 -11.623400
C -17.361700 -28.153600 -18.984700
C -17.318100 -30.276100 -17.856600
N -17.205200 -32.354100 -16.665500
H -17.103000 -27.611100 -19.694800
H -17.044400 -32.129500 -13.474500
C -16.921200 -29.461800 -18.908600
C -16.756400 -31.630400 -17.713800
H -16.748100 -33.033900 -16.404700
H -16.355900 -29.798300 -19.565500
O -15.871600 -32.055100 -18.461700
