31
Fragment
H -21.038800 -24.759100 -24.888300
H -20.828800 -23.759300 -22.366600
N -20.318700 -25.176200 -24.669500
C -20.075700 -24.303200 -22.331000
O -19.935400 -26.279500 -26.642600
C -19.689900 -25.061700 -23.415600
C -19.655000 -26.017400 -25.483100
H -19.536100 -23.886500 -20.438700
C -19.298000 -24.384100 -21.186800
H -19.153500 -30.515100 -25.005300
H -18.771900 -28.363100 -23.793300
C -18.600100 -30.164900 -25.665400
C -18.563900 -25.867200 -23.376000
N -18.513400 -28.020900 -24.538300
H -18.483100 -31.836400 -26.767300
C -18.430700 -26.589400 -24.692700
C -18.193100 -30.954000 -26.722100
C -18.179300 -25.187100 -21.135600
C -18.174300 -28.833700 -25.596400
C -17.798500 -25.942300 -22.238400
H -17.674200 -25.224600 -20.354900
C -17.361700 -30.461600 -27.716200
C -17.318100 -28.339100 -26.588100
N -17.205200 -26.261100 -25.397000
H -17.103000 -31.004100 -28.426300
H -17.044400 -26.485700 -22.206000
C -16.921200 -29.153400 -27.640100
C -16.756400 -26.984800 -26.445300
H -16.748100 -25.581300 -25.136200
H -16.355900 -28.816900 -28.297000
O -15.871600 -26.560100 -27.193200
31
Fragment
O -16.100600 -23.681500 -25.195800
H -15.616300 -21.424700 -24.092000
H -15.224100 -24.660300 -27.252800
C -15.215800 -23.256800 -25.943700
C -15.051000 -21.088200 -24.748900
H -14.927800 -23.755900 -30.183000
H -14.869200 -19.237500 -23.962700
N -14.767000 -23.980500 -26.992000
C -14.654100 -21.902500 -25.800900
C -14.610500 -19.780000 -24.672800
H -14.298000 -25.017000 -32.034100
C -14.173700 -24.299300 -30.150600
C -13.797900 -21.407900 -26.792600
C -13.792900 -25.054500 -31.253400
C -13.779100 -19.287600 -25.666900
C -13.541500 -23.652200 -27.696300
H -13.489100 -18.405200 -25.621700
N -13.458800 -22.220700 -27.850700
C -13.408300 -24.374400 -29.013000
C -13.372100 -20.076700 -26.723600
H -13.200300 -21.878500 -28.595700
H -12.818700 -19.726500 -27.383700
C -12.674200 -25.857500 -31.202200
H -12.436100 -26.355100 -31.950300
C -12.317200 -24.224200 -26.905900
C -12.282300 -25.179900 -28.973400
O -12.036800 -23.962100 -25.746400
C -11.896500 -25.938400 -30.058000
N -11.653500 -25.065400 -27.719500
H -11.143400 -26.482300 -30.022400
H -10.933400 -25.482500 -27.500700
62
Fragment
H -21.038800 -24.759100 -24.888300
H -20.828800 -23.759300 -22.366600
N -20.318700 -25.176200 -24.669500
C -20.075700 -24.303200 -22.331000
O -19.935400 -26.279500 -26.642600
C -19.689900 -25.061700 -23.415600
C -19.655000 -26.017400 -25.483100
H -19.536100 -23.886500 -20.438700
C -19.298000 -24.384100 -21.186800
H -19.153500 -30.515100 -25.005300
H -18.771900 -28.363100 -23.793300
C -18.600100 -30.164900 -25.665400
C -18.563900 -25.867200 -23.376000
N -18.513400 -28.020900 -24.538300
H -18.483100 -31.836400 -26.767300
C -18.430700 -26.589400 -24.692700
C -18.193100 -30.954000 -26.722100
C -18.179300 -25.187100 -21.135600
C -18.174300 -28.833700 -25.596400
C -17.798500 -25.942300 -22.238400
H -17.674200 -25.224600 -20.354900
C -17.361700 -30.461600 -27.716200
C -17.318100 -28.339100 -26.588100
N -17.205200 -26.261100 -25.397000
H -17.103000 -31.004100 -28.426300
H -17.044400 -26.485700 -22.206000
C -16.921200 -29.153400 -27.640100
C -16.756400 -26.984800 -26.445300
H -16.748100 -25.581300 -25.136200
H -16.355900 -28.816900 -28.297000
O -15.871600 -26.560100 -27.193200
O -16.100600 -23.681500 -25.195800
H -15.616300 -21.424700 -24.092000
H -15.224100 -24.660300 -27.252800
C -15.215800 -23.256800 -25.943700
C -15.051000 -21.088200 -24.748900
H -14.927800 -23.755900 -30.183000
H -14.869200 -19.237500 -23.962700
N -14.767000 -23.980500 -26.992000
C -14.654100 -21.902500 -25.800900
C -14.610500 -19.780000 -24.672800
H -14.298000 -25.017000 -32.034100
C -14.173700 -24.299300 -30.150600
C -13.797900 -21.407900 -26.792600
C -13.792900 -25.054500 -31.253400
C -13.779100 -19.287600 -25.666900
C -13.541500 -23.652200 -27.696300
H -13.489100 -18.405200 -25.621700
N -13.458800 -22.220700 -27.850700
C -13.408300 -24.374400 -29.013000
C -13.372100 -20.076700 -26.723600
H -13.200300 -21.878500 -28.595700
H -12.818700 -19.726500 -27.383700
C -12.674200 -25.857500 -31.202200
H -12.436100 -26.355100 -31.950300
C -12.317200 -24.224200 -26.905900
C -12.282300 -25.179900 -28.973400
O -12.036800 -23.962100 -25.746400
C -11.896500 -25.938400 -30.058000
N -11.653500 -25.065400 -27.719500
H -11.143400 -26.482300 -30.022400
H -10.933400 -25.482500 -27.500700
