23
Fragment
H -16.009000 -2.273600 -30.311200
H -16.008700 -2.477200 -28.003400
C -15.373300 -2.801700 -29.886000
C -15.369400 -2.928100 -28.506700
H -14.461200 -3.791200 -26.941600
C -14.431500 -3.712200 -27.867400
C -14.411700 -3.476000 -30.616300
H -14.410000 -3.415700 -31.543700
H -13.508000 -5.883300 -32.275600
C -13.449900 -4.242600 -29.972900
C -13.434100 -4.392900 -28.580400
H -12.812900 -5.451800 -27.186300
C -12.693500 -5.683400 -31.875100
N -12.480100 -4.925500 -30.785600
N -12.468700 -5.119000 -27.902200
H -12.187700 -5.755100 -28.407500
O -11.876600 -7.462100 -34.142500
C -11.447700 -6.096600 -32.264300
N -11.151000 -4.842300 -30.510100
C -11.062900 -6.980400 -33.382100
N -10.533100 -5.559800 -31.408100
O -9.767900 -7.172500 -33.439600
H -9.579700 -7.563600 -34.136600
23
Fragment
H -7.087000 -6.224400 -33.211700
O -6.898800 -6.615500 -33.908800
N -6.133600 -8.228200 -35.940200
C -5.603900 -6.807600 -33.966200
N -5.515700 -8.945700 -36.838200
C -5.219000 -7.691400 -35.084000
O -4.790100 -6.325900 -33.205900
H -4.479000 -8.032900 -38.940800
N -4.198000 -8.669000 -39.446100
N -4.186600 -8.862500 -36.562700
C -3.973200 -8.104600 -35.473300
H -3.853800 -8.336200 -40.162000
C -3.232600 -9.395100 -38.767900
C -3.216800 -9.545400 -37.375400
H -3.158700 -7.904700 -35.072800
H -2.256700 -10.372300 -35.804600
C -2.255000 -10.312000 -36.732000
C -2.235200 -10.075800 -39.480900
H -2.205600 -9.996800 -40.406700
C -1.297300 -10.859900 -38.841600
C -1.293400 -10.986300 -37.462300
H -0.658000 -11.310800 -39.344900
H -0.657700 -11.514400 -37.037100
46
Fragment
H -16.009000 -2.273600 -30.311200
H -16.008700 -2.477200 -28.003400
C -15.373300 -2.801700 -29.886000
C -15.369400 -2.928100 -28.506700
H -14.461200 -3.791200 -26.941600
C -14.431500 -3.712200 -27.867400
C -14.411700 -3.476000 -30.616300
H -14.410000 -3.415700 -31.543700
H -13.508000 -5.883300 -32.275600
C -13.449900 -4.242600 -29.972900
C -13.434100 -4.392900 -28.580400
H -12.812900 -5.451800 -27.186300
C -12.693500 -5.683400 -31.875100
N -12.480100 -4.925500 -30.785600
N -12.468700 -5.119000 -27.902200
H -12.187700 -5.755100 -28.407500
O -11.876600 -7.462100 -34.142500
C -11.447700 -6.096600 -32.264300
N -11.151000 -4.842300 -30.510100
C -11.062900 -6.980400 -33.382100
N -10.533100 -5.559800 -31.408100
O -9.767900 -7.172500 -33.439600
H -9.579700 -7.563600 -34.136600
H -7.087000 -6.224400 -33.211700
O -6.898800 -6.615500 -33.908800
N -6.133600 -8.228200 -35.940200
C -5.603900 -6.807600 -33.966200
N -5.515700 -8.945700 -36.838200
C -5.219000 -7.691400 -35.084000
O -4.790100 -6.325900 -33.205900
H -4.479000 -8.032900 -38.940800
N -4.198000 -8.669000 -39.446100
N -4.186600 -8.862500 -36.562700
C -3.973200 -8.104600 -35.473300
H -3.853800 -8.336200 -40.162000
C -3.232600 -9.395100 -38.767900
C -3.216800 -9.545400 -37.375400
H -3.158700 -7.904700 -35.072800
H -2.256700 -10.372300 -35.804600
C -2.255000 -10.312000 -36.732000
C -2.235200 -10.075800 -39.480900
H -2.205600 -9.996800 -40.406700
C -1.297300 -10.859900 -38.841600
C -1.293400 -10.986300 -37.462300
H -0.658000 -11.310800 -39.344900
H -0.657700 -11.514400 -37.037100
