23
Fragment
H -16.009000 -2.273600 -30.311200
H -16.008700 -2.477200 -28.003400
C -15.373300 -2.801700 -29.886000
C -15.369400 -2.928100 -28.506700
H -14.461200 -3.791200 -26.941600
C -14.431500 -3.712200 -27.867400
C -14.411700 -3.476000 -30.616300
H -14.410000 -3.415700 -31.543700
H -13.508000 -5.883300 -32.275600
C -13.449900 -4.242600 -29.972900
C -13.434100 -4.392900 -28.580400
H -12.812900 -5.451800 -27.186300
C -12.693500 -5.683400 -31.875100
N -12.480100 -4.925500 -30.785600
N -12.468700 -5.119000 -27.902200
H -12.187700 -5.755100 -28.407500
O -11.876600 -7.462100 -34.142500
C -11.447700 -6.096600 -32.264300
N -11.151000 -4.842300 -30.510100
C -11.062900 -6.980400 -33.382100
N -10.533100 -5.559800 -31.408100
O -9.767900 -7.172500 -33.439600
H -9.579700 -7.563600 -34.136600
23
Fragment
H -13.278500 -9.861600 -21.987000
O -13.090300 -9.470500 -22.684000
N -12.325000 -7.857800 -24.715500
C -11.795300 -9.278400 -22.741500
N -11.707100 -7.140300 -25.613500
C -11.410500 -8.394600 -23.859300
O -10.981600 -9.760100 -21.981100
H -10.670500 -8.053100 -27.716100
N -10.389500 -7.417000 -28.221400
N -10.378100 -7.223500 -25.338000
C -10.164700 -7.981400 -24.248500
H -10.045300 -7.749800 -28.937300
C -9.424100 -6.690900 -27.543200
C -9.408200 -6.540600 -26.150700
H -9.350200 -8.181300 -23.848000
H -8.448200 -5.713700 -24.579900
C -8.446500 -5.774000 -25.507300
C -8.426700 -6.010200 -28.256200
H -8.397000 -6.089200 -29.182000
C -7.488700 -5.226100 -27.616800
C -7.484800 -5.099700 -26.237600
H -6.849500 -4.775200 -28.120200
H -6.849200 -4.571600 -25.812400
46
Fragment
H -16.009000 -2.273600 -30.311200
H -16.008700 -2.477200 -28.003400
C -15.373300 -2.801700 -29.886000
C -15.369400 -2.928100 -28.506700
H -14.461200 -3.791200 -26.941600
C -14.431500 -3.712200 -27.867400
C -14.411700 -3.476000 -30.616300
H -14.410000 -3.415700 -31.543700
H -13.508000 -5.883300 -32.275600
C -13.449900 -4.242600 -29.972900
C -13.434100 -4.392900 -28.580400
H -12.812900 -5.451800 -27.186300
C -12.693500 -5.683400 -31.875100
N -12.480100 -4.925500 -30.785600
N -12.468700 -5.119000 -27.902200
H -12.187700 -5.755100 -28.407500
O -11.876600 -7.462100 -34.142500
C -11.447700 -6.096600 -32.264300
N -11.151000 -4.842300 -30.510100
C -11.062900 -6.980400 -33.382100
N -10.533100 -5.559800 -31.408100
O -9.767900 -7.172500 -33.439600
H -9.579700 -7.563600 -34.136600
H -13.278500 -9.861600 -21.987000
O -13.090300 -9.470500 -22.684000
N -12.325000 -7.857800 -24.715500
C -11.795300 -9.278400 -22.741500
N -11.707100 -7.140300 -25.613500
C -11.410500 -8.394600 -23.859300
O -10.981600 -9.760100 -21.981100
H -10.670500 -8.053100 -27.716100
N -10.389500 -7.417000 -28.221400
N -10.378100 -7.223500 -25.338000
C -10.164700 -7.981400 -24.248500
H -10.045300 -7.749800 -28.937300
C -9.424100 -6.690900 -27.543200
C -9.408200 -6.540600 -26.150700
H -9.350200 -8.181300 -23.848000
H -8.448200 -5.713700 -24.579900
C -8.446500 -5.774000 -25.507300
C -8.426700 -6.010200 -28.256200
H -8.397000 -6.089200 -29.182000
C -7.488700 -5.226100 -27.616800
C -7.484800 -5.099700 -26.237600
H -6.849500 -4.775200 -28.120200
H -6.849200 -4.571600 -25.812400
