23
Fragment
H -16.009000 -2.273600 -30.311200
H -16.008700 -2.477200 -28.003400
C -15.373300 -2.801700 -29.886000
C -15.369400 -2.928100 -28.506700
H -14.461200 -3.791200 -26.941600
C -14.431500 -3.712200 -27.867400
C -14.411700 -3.476000 -30.616300
H -14.410000 -3.415700 -31.543700
H -13.508000 -5.883300 -32.275600
C -13.449900 -4.242600 -29.972900
C -13.434100 -4.392900 -28.580400
H -12.812900 -5.451800 -27.186300
C -12.693500 -5.683400 -31.875100
N -12.480100 -4.925500 -30.785600
N -12.468700 -5.119000 -27.902200
H -12.187700 -5.755100 -28.407500
O -11.876600 -7.462100 -34.142500
C -11.447700 -6.096600 -32.264300
N -11.151000 -4.842300 -30.510100
C -11.062900 -6.980400 -33.382100
N -10.533100 -5.559800 -31.408100
O -9.767900 -7.172500 -33.439600
H -9.579700 -7.563600 -34.136600
23
Fragment
H -17.850100 -6.224400 -33.211700
O -17.661900 -6.615500 -33.908800
N -16.896700 -8.228200 -35.940200
C -16.367000 -6.807600 -33.966200
N -16.278800 -8.945700 -36.838200
C -15.982100 -7.691400 -35.084000
O -15.553200 -6.325900 -33.205900
H -15.242100 -8.032900 -38.940800
N -14.961100 -8.669000 -39.446100
N -14.949700 -8.862500 -36.562700
C -14.736300 -8.104600 -35.473300
H -14.616900 -8.336200 -40.162000
C -13.995700 -9.395100 -38.767900
C -13.979900 -9.545400 -37.375400
H -13.921800 -7.904700 -35.072800
H -13.019800 -10.372300 -35.804600
C -13.018100 -10.312000 -36.732000
C -12.998300 -10.075800 -39.480900
H -12.968700 -9.996800 -40.406700
C -12.060400 -10.859900 -38.841600
C -12.056500 -10.986300 -37.462300
H -11.421100 -11.310800 -39.344900
H -11.420800 -11.514400 -37.037100
46
Fragment
H -16.009000 -2.273600 -30.311200
H -16.008700 -2.477200 -28.003400
C -15.373300 -2.801700 -29.886000
C -15.369400 -2.928100 -28.506700
H -14.461200 -3.791200 -26.941600
C -14.431500 -3.712200 -27.867400
C -14.411700 -3.476000 -30.616300
H -14.410000 -3.415700 -31.543700
H -13.508000 -5.883300 -32.275600
C -13.449900 -4.242600 -29.972900
C -13.434100 -4.392900 -28.580400
H -12.812900 -5.451800 -27.186300
C -12.693500 -5.683400 -31.875100
N -12.480100 -4.925500 -30.785600
N -12.468700 -5.119000 -27.902200
H -12.187700 -5.755100 -28.407500
O -11.876600 -7.462100 -34.142500
C -11.447700 -6.096600 -32.264300
N -11.151000 -4.842300 -30.510100
C -11.062900 -6.980400 -33.382100
N -10.533100 -5.559800 -31.408100
O -9.767900 -7.172500 -33.439600
H -9.579700 -7.563600 -34.136600
H -17.850100 -6.224400 -33.211700
O -17.661900 -6.615500 -33.908800
N -16.896700 -8.228200 -35.940200
C -16.367000 -6.807600 -33.966200
N -16.278800 -8.945700 -36.838200
C -15.982100 -7.691400 -35.084000
O -15.553200 -6.325900 -33.205900
H -15.242100 -8.032900 -38.940800
N -14.961100 -8.669000 -39.446100
N -14.949700 -8.862500 -36.562700
C -14.736300 -8.104600 -35.473300
H -14.616900 -8.336200 -40.162000
C -13.995700 -9.395100 -38.767900
C -13.979900 -9.545400 -37.375400
H -13.921800 -7.904700 -35.072800
H -13.019800 -10.372300 -35.804600
C -13.018100 -10.312000 -36.732000
C -12.998300 -10.075800 -39.480900
H -12.968700 -9.996800 -40.406700
C -12.060400 -10.859900 -38.841600
C -12.056500 -10.986300 -37.462300
H -11.421100 -11.310800 -39.344900
H -11.420800 -11.514400 -37.037100
