38
Fragment
H -19.693500 -11.838600 -30.093000
N -19.155000 -11.588800 -33.681000
C -18.791700 -12.125200 -30.177700
C -18.666600 -11.875700 -32.683100
C -18.126900 -12.210800 -31.398700
N -18.039000 -12.483300 -29.143600
H -17.637800 -14.862400 -25.262000
H -17.587500 -14.463400 -27.562200
C -16.910100 -14.387900 -25.645700
C -16.877300 -14.156400 -27.010100
N -16.835800 -12.821200 -29.711800
C -16.835500 -12.655800 -31.094000
H -15.926000 -14.060000 -23.901900
C -15.885600 -13.929200 -24.841900
C -15.798100 -13.470500 -27.573300
N -15.748800 -12.903900 -31.850200
C -15.721900 -13.247600 -29.030800
H -14.835200 -10.836000 -25.317500
H -14.829000 -10.257800 -23.825200
C -14.800300 -13.278500 -25.403600
C -14.738600 -13.046300 -26.760000
C -14.670400 -13.292900 -31.190200
C -14.611500 -13.474100 -29.793200
C -14.266000 -10.544900 -24.574600
H -13.987900 -12.604500 -27.139000
H -13.881400 -13.461300 -31.691800
H -13.801700 -13.753800 -29.383300
H -13.704800 -9.796800 -24.866700
N -13.692500 -12.927600 -24.548500
H -13.426000 -14.824600 -23.868000
C -13.398600 -11.678000 -24.139100
C -12.850800 -14.044900 -24.070000
O -12.418800 -11.501800 -23.380400
H -12.396300 -13.776000 -23.232500
H -12.271200 -14.650300 -25.925700
C -11.828400 -14.437500 -25.078200
H -11.339800 -15.224200 -24.757600
H -11.202000 -13.696200 -25.213100
38
Fragment
H -19.693500 -4.648600 -30.093000
N -19.155000 -4.398800 -33.681000
C -18.791700 -4.935200 -30.177700
C -18.666600 -4.685700 -32.683100
C -18.126900 -5.020800 -31.398700
N -18.039000 -5.293300 -29.143600
H -17.637800 -7.672400 -25.262000
H -17.587500 -7.273400 -27.562200
C -16.910100 -7.197900 -25.645700
C -16.877300 -6.966400 -27.010100
N -16.835800 -5.631200 -29.711800
C -16.835500 -5.465800 -31.094000
H -15.926000 -6.870000 -23.901900
C -15.885600 -6.739200 -24.841900
C -15.798100 -6.280500 -27.573300
N -15.748800 -5.713900 -31.850200
C -15.721900 -6.057600 -29.030800
H -14.835200 -3.646000 -25.317500
H -14.829000 -3.067800 -23.825200
C -14.800300 -6.088500 -25.403600
C -14.738600 -5.856300 -26.760000
C -14.670400 -6.102900 -31.190200
C -14.611500 -6.284100 -29.793200
C -14.266000 -3.354900 -24.574600
H -13.987900 -5.414500 -27.139000
H -13.881400 -6.271300 -31.691800
H -13.801700 -6.563800 -29.383300
H -13.704800 -2.606800 -24.866700
N -13.692500 -5.737600 -24.548500
H -13.426000 -7.634600 -23.868000
C -13.398600 -4.488000 -24.139100
C -12.850800 -6.854900 -24.070000
O -12.418800 -4.311800 -23.380400
H -12.396300 -6.586000 -23.232500
H -12.271200 -7.460300 -25.925700
C -11.828400 -7.247500 -25.078200
H -11.339800 -8.034200 -24.757600
H -11.202000 -6.506200 -25.213100
76
Fragment
H -19.693500 -11.838600 -30.093000
N -19.155000 -11.588800 -33.681000
C -18.791700 -12.125200 -30.177700
C -18.666600 -11.875700 -32.683100
C -18.126900 -12.210800 -31.398700
N -18.039000 -12.483300 -29.143600
H -17.637800 -14.862400 -25.262000
H -17.587500 -14.463400 -27.562200
C -16.910100 -14.387900 -25.645700
C -16.877300 -14.156400 -27.010100
N -16.835800 -12.821200 -29.711800
C -16.835500 -12.655800 -31.094000
H -15.926000 -14.060000 -23.901900
C -15.885600 -13.929200 -24.841900
C -15.798100 -13.470500 -27.573300
N -15.748800 -12.903900 -31.850200
C -15.721900 -13.247600 -29.030800
H -14.835200 -10.836000 -25.317500
H -14.829000 -10.257800 -23.825200
C -14.800300 -13.278500 -25.403600
C -14.738600 -13.046300 -26.760000
C -14.670400 -13.292900 -31.190200
C -14.611500 -13.474100 -29.793200
C -14.266000 -10.544900 -24.574600
H -13.987900 -12.604500 -27.139000
H -13.881400 -13.461300 -31.691800
H -13.801700 -13.753800 -29.383300
H -13.704800 -9.796800 -24.866700
N -13.692500 -12.927600 -24.548500
H -13.426000 -14.824600 -23.868000
C -13.398600 -11.678000 -24.139100
C -12.850800 -14.044900 -24.070000
O -12.418800 -11.501800 -23.380400
H -12.396300 -13.776000 -23.232500
H -12.271200 -14.650300 -25.925700
C -11.828400 -14.437500 -25.078200
H -11.339800 -15.224200 -24.757600
H -11.202000 -13.696200 -25.213100
H -19.693500 -4.648600 -30.093000
N -19.155000 -4.398800 -33.681000
C -18.791700 -4.935200 -30.177700
C -18.666600 -4.685700 -32.683100
C -18.126900 -5.020800 -31.398700
N -18.039000 -5.293300 -29.143600
H -17.637800 -7.672400 -25.262000
H -17.587500 -7.273400 -27.562200
C -16.910100 -7.197900 -25.645700
C -16.877300 -6.966400 -27.010100
N -16.835800 -5.631200 -29.711800
C -16.835500 -5.465800 -31.094000
H -15.926000 -6.870000 -23.901900
C -15.885600 -6.739200 -24.841900
C -15.798100 -6.280500 -27.573300
N -15.748800 -5.713900 -31.850200
C -15.721900 -6.057600 -29.030800
H -14.835200 -3.646000 -25.317500
H -14.829000 -3.067800 -23.825200
C -14.800300 -6.088500 -25.403600
C -14.738600 -5.856300 -26.760000
C -14.670400 -6.102900 -31.190200
C -14.611500 -6.284100 -29.793200
C -14.266000 -3.354900 -24.574600
H -13.987900 -5.414500 -27.139000
H -13.881400 -6.271300 -31.691800
H -13.801700 -6.563800 -29.383300
H -13.704800 -2.606800 -24.866700
N -13.692500 -5.737600 -24.548500
H -13.426000 -7.634600 -23.868000
C -13.398600 -4.488000 -24.139100
C -12.850800 -6.854900 -24.070000
O -12.418800 -4.311800 -23.380400
H -12.396300 -6.586000 -23.232500
H -12.271200 -7.460300 -25.925700
C -11.828400 -7.247500 -25.078200
H -11.339800 -8.034200 -24.757600
H -11.202000 -6.506200 -25.213100
