38
Fragment
H -19.693500 -11.838600 -30.093000
N -19.155000 -11.588800 -33.681000
C -18.791700 -12.125200 -30.177700
C -18.666600 -11.875700 -32.683100
C -18.126900 -12.210800 -31.398700
N -18.039000 -12.483300 -29.143600
H -17.637800 -14.862400 -25.262000
H -17.587500 -14.463400 -27.562200
C -16.910100 -14.387900 -25.645700
C -16.877300 -14.156400 -27.010100
N -16.835800 -12.821200 -29.711800
C -16.835500 -12.655800 -31.094000
H -15.926000 -14.060000 -23.901900
C -15.885600 -13.929200 -24.841900
C -15.798100 -13.470500 -27.573300
N -15.748800 -12.903900 -31.850200
C -15.721900 -13.247600 -29.030800
H -14.835200 -10.836000 -25.317500
H -14.829000 -10.257800 -23.825200
C -14.800300 -13.278500 -25.403600
C -14.738600 -13.046300 -26.760000
C -14.670400 -13.292900 -31.190200
C -14.611500 -13.474100 -29.793200
C -14.266000 -10.544900 -24.574600
H -13.987900 -12.604500 -27.139000
H -13.881400 -13.461300 -31.691800
H -13.801700 -13.753800 -29.383300
H -13.704800 -9.796800 -24.866700
N -13.692500 -12.927600 -24.548500
H -13.426000 -14.824600 -23.868000
C -13.398600 -11.678000 -24.139100
C -12.850800 -14.044900 -24.070000
O -12.418800 -11.501800 -23.380400
H -12.396300 -13.776000 -23.232500
H -12.271200 -14.650300 -25.925700
C -11.828400 -14.437500 -25.078200
H -11.339800 -15.224200 -24.757600
H -11.202000 -13.696200 -25.213100
38
Fragment
H -23.311500 -15.063800 -36.449600
H -23.173700 -13.535800 -36.905100
C -22.685100 -14.322500 -36.584500
H -22.242300 -14.109700 -35.737000
H -22.117200 -14.984000 -38.430300
O -22.094700 -17.258200 -38.282300
C -21.662700 -14.715100 -37.592700
C -21.114900 -17.082000 -37.523600
H -21.087500 -13.935400 -37.794700
N -20.821000 -15.832400 -37.114200
H -20.808700 -18.963200 -36.796000
H -20.711800 -15.006200 -32.279400
H -20.632100 -15.298700 -29.971000
H -20.525600 -16.155500 -34.523700
C -20.247500 -18.215100 -37.088100
C -19.902000 -15.285900 -31.869500
C -19.843100 -15.467100 -30.472500
C -19.774900 -15.713700 -34.902700
C -19.713200 -15.481500 -36.259100
H -19.684500 -18.502200 -37.837500
H -19.678300 -17.924000 -36.345200
C -18.791600 -15.512400 -32.631900
N -18.764700 -15.856100 -29.812500
C -18.715400 -15.289500 -34.089400
C -18.627900 -14.830800 -36.820900
H -18.587500 -14.700000 -37.760800
C -17.678000 -16.104200 -30.568700
N -17.677700 -15.938800 -31.950900
C -17.636200 -14.603600 -34.652600
C -17.603400 -14.372100 -36.017000
H -16.926000 -14.296600 -34.100500
H -16.875700 -13.897600 -36.400700
N -16.474500 -16.276700 -32.519100
C -16.386600 -16.549200 -30.264100
C -15.846900 -16.884300 -28.979600
C -15.721800 -16.634800 -31.485000
N -15.358500 -17.171200 -27.981700
H -14.819900 -16.921400 -31.569700
76
Fragment
H -19.693500 -11.838600 -30.093000
N -19.155000 -11.588800 -33.681000
C -18.791700 -12.125200 -30.177700
C -18.666600 -11.875700 -32.683100
C -18.126900 -12.210800 -31.398700
N -18.039000 -12.483300 -29.143600
H -17.637800 -14.862400 -25.262000
H -17.587500 -14.463400 -27.562200
C -16.910100 -14.387900 -25.645700
C -16.877300 -14.156400 -27.010100
N -16.835800 -12.821200 -29.711800
C -16.835500 -12.655800 -31.094000
H -15.926000 -14.060000 -23.901900
C -15.885600 -13.929200 -24.841900
C -15.798100 -13.470500 -27.573300
N -15.748800 -12.903900 -31.850200
C -15.721900 -13.247600 -29.030800
H -14.835200 -10.836000 -25.317500
H -14.829000 -10.257800 -23.825200
C -14.800300 -13.278500 -25.403600
C -14.738600 -13.046300 -26.760000
C -14.670400 -13.292900 -31.190200
C -14.611500 -13.474100 -29.793200
C -14.266000 -10.544900 -24.574600
H -13.987900 -12.604500 -27.139000
H -13.881400 -13.461300 -31.691800
H -13.801700 -13.753800 -29.383300
H -13.704800 -9.796800 -24.866700
N -13.692500 -12.927600 -24.548500
H -13.426000 -14.824600 -23.868000
C -13.398600 -11.678000 -24.139100
C -12.850800 -14.044900 -24.070000
O -12.418800 -11.501800 -23.380400
H -12.396300 -13.776000 -23.232500
H -12.271200 -14.650300 -25.925700
C -11.828400 -14.437500 -25.078200
H -11.339800 -15.224200 -24.757600
H -11.202000 -13.696200 -25.213100
H -23.311500 -15.063800 -36.449600
H -23.173700 -13.535800 -36.905100
C -22.685100 -14.322500 -36.584500
H -22.242300 -14.109700 -35.737000
H -22.117200 -14.984000 -38.430300
O -22.094700 -17.258200 -38.282300
C -21.662700 -14.715100 -37.592700
C -21.114900 -17.082000 -37.523600
H -21.087500 -13.935400 -37.794700
N -20.821000 -15.832400 -37.114200
H -20.808700 -18.963200 -36.796000
H -20.711800 -15.006200 -32.279400
H -20.632100 -15.298700 -29.971000
H -20.525600 -16.155500 -34.523700
C -20.247500 -18.215100 -37.088100
C -19.902000 -15.285900 -31.869500
C -19.843100 -15.467100 -30.472500
C -19.774900 -15.713700 -34.902700
C -19.713200 -15.481500 -36.259100
H -19.684500 -18.502200 -37.837500
H -19.678300 -17.924000 -36.345200
C -18.791600 -15.512400 -32.631900
N -18.764700 -15.856100 -29.812500
C -18.715400 -15.289500 -34.089400
C -18.627900 -14.830800 -36.820900
H -18.587500 -14.700000 -37.760800
C -17.678000 -16.104200 -30.568700
N -17.677700 -15.938800 -31.950900
C -17.636200 -14.603600 -34.652600
C -17.603400 -14.372100 -36.017000
H -16.926000 -14.296600 -34.100500
H -16.875700 -13.897600 -36.400700
N -16.474500 -16.276700 -32.519100
C -16.386600 -16.549200 -30.264100
C -15.846900 -16.884300 -28.979600
C -15.721800 -16.634800 -31.485000
N -15.358500 -17.171200 -27.981700
H -14.819900 -16.921400 -31.569700
