38
Fragment
H -19.693500 -11.838600 -30.093000
N -19.155000 -11.588800 -33.681000
C -18.791700 -12.125200 -30.177700
C -18.666600 -11.875700 -32.683100
C -18.126900 -12.210800 -31.398700
N -18.039000 -12.483300 -29.143600
H -17.637800 -14.862400 -25.262000
H -17.587500 -14.463400 -27.562200
C -16.910100 -14.387900 -25.645700
C -16.877300 -14.156400 -27.010100
N -16.835800 -12.821200 -29.711800
C -16.835500 -12.655800 -31.094000
H -15.926000 -14.060000 -23.901900
C -15.885600 -13.929200 -24.841900
C -15.798100 -13.470500 -27.573300
N -15.748800 -12.903900 -31.850200
C -15.721900 -13.247600 -29.030800
H -14.835200 -10.836000 -25.317500
H -14.829000 -10.257800 -23.825200
C -14.800300 -13.278500 -25.403600
C -14.738600 -13.046300 -26.760000
C -14.670400 -13.292900 -31.190200
C -14.611500 -13.474100 -29.793200
C -14.266000 -10.544900 -24.574600
H -13.987900 -12.604500 -27.139000
H -13.881400 -13.461300 -31.691800
H -13.801700 -13.753800 -29.383300
H -13.704800 -9.796800 -24.866700
N -13.692500 -12.927600 -24.548500
H -13.426000 -14.824600 -23.868000
C -13.398600 -11.678000 -24.139100
C -12.850800 -14.044900 -24.070000
O -12.418800 -11.501800 -23.380400
H -12.396300 -13.776000 -23.232500
H -12.271200 -14.650300 -25.925700
C -11.828400 -14.437500 -25.078200
H -11.339800 -15.224200 -24.757600
H -11.202000 -13.696200 -25.213100
12
Fragment
O -12.991700 -9.200300 -21.016500
H -12.622200 -7.004400 -19.743800
C -11.932600 -8.825700 -21.459400
C -11.770900 -6.790200 -20.107600
O -11.740700 -4.956800 -18.671700
H -11.711900 -10.078800 -22.717400
H -11.297100 -4.301200 -18.391100
O -11.268300 -9.423200 -22.436800
C -11.238100 -7.589800 -21.000900
C -11.076400 -5.554300 -19.649000
H -10.386800 -7.375600 -21.364700
O -10.017300 -5.179700 -20.092000
50
Fragment
H -19.693500 -11.838600 -30.093000
N -19.155000 -11.588800 -33.681000
C -18.791700 -12.125200 -30.177700
C -18.666600 -11.875700 -32.683100
C -18.126900 -12.210800 -31.398700
N -18.039000 -12.483300 -29.143600
H -17.637800 -14.862400 -25.262000
H -17.587500 -14.463400 -27.562200
C -16.910100 -14.387900 -25.645700
C -16.877300 -14.156400 -27.010100
N -16.835800 -12.821200 -29.711800
C -16.835500 -12.655800 -31.094000
H -15.926000 -14.060000 -23.901900
C -15.885600 -13.929200 -24.841900
C -15.798100 -13.470500 -27.573300
N -15.748800 -12.903900 -31.850200
C -15.721900 -13.247600 -29.030800
H -14.835200 -10.836000 -25.317500
H -14.829000 -10.257800 -23.825200
C -14.800300 -13.278500 -25.403600
C -14.738600 -13.046300 -26.760000
C -14.670400 -13.292900 -31.190200
C -14.611500 -13.474100 -29.793200
C -14.266000 -10.544900 -24.574600
H -13.987900 -12.604500 -27.139000
H -13.881400 -13.461300 -31.691800
H -13.801700 -13.753800 -29.383300
H -13.704800 -9.796800 -24.866700
N -13.692500 -12.927600 -24.548500
H -13.426000 -14.824600 -23.868000
C -13.398600 -11.678000 -24.139100
C -12.850800 -14.044900 -24.070000
O -12.418800 -11.501800 -23.380400
H -12.396300 -13.776000 -23.232500
H -12.271200 -14.650300 -25.925700
C -11.828400 -14.437500 -25.078200
H -11.339800 -15.224200 -24.757600
H -11.202000 -13.696200 -25.213100
O -12.991700 -9.200300 -21.016500
H -12.622200 -7.004400 -19.743800
C -11.932600 -8.825700 -21.459400
C -11.770900 -6.790200 -20.107600
O -11.740700 -4.956800 -18.671700
H -11.711900 -10.078800 -22.717400
H -11.297100 -4.301200 -18.391100
O -11.268300 -9.423200 -22.436800
C -11.238100 -7.589800 -21.000900
C -11.076400 -5.554300 -19.649000
H -10.386800 -7.375600 -21.364700
O -10.017300 -5.179700 -20.092000
