38
Fragment
H -19.693500 -11.838600 -30.093000
N -19.155000 -11.588800 -33.681000
C -18.791700 -12.125200 -30.177700
C -18.666600 -11.875700 -32.683100
C -18.126900 -12.210800 -31.398700
N -18.039000 -12.483300 -29.143600
H -17.637800 -14.862400 -25.262000
H -17.587500 -14.463400 -27.562200
C -16.910100 -14.387900 -25.645700
C -16.877300 -14.156400 -27.010100
N -16.835800 -12.821200 -29.711800
C -16.835500 -12.655800 -31.094000
H -15.926000 -14.060000 -23.901900
C -15.885600 -13.929200 -24.841900
C -15.798100 -13.470500 -27.573300
N -15.748800 -12.903900 -31.850200
C -15.721900 -13.247600 -29.030800
H -14.835200 -10.836000 -25.317500
H -14.829000 -10.257800 -23.825200
C -14.800300 -13.278500 -25.403600
C -14.738600 -13.046300 -26.760000
C -14.670400 -13.292900 -31.190200
C -14.611500 -13.474100 -29.793200
C -14.266000 -10.544900 -24.574600
H -13.987900 -12.604500 -27.139000
H -13.881400 -13.461300 -31.691800
H -13.801700 -13.753800 -29.383300
H -13.704800 -9.796800 -24.866700
N -13.692500 -12.927600 -24.548500
H -13.426000 -14.824600 -23.868000
C -13.398600 -11.678000 -24.139100
C -12.850800 -14.044900 -24.070000
O -12.418800 -11.501800 -23.380400
H -12.396300 -13.776000 -23.232500
H -12.271200 -14.650300 -25.925700
C -11.828400 -14.437500 -25.078200
H -11.339800 -15.224200 -24.757600
H -11.202000 -13.696200 -25.213100
38
Fragment
H -20.041300 -13.326400 -19.815900
N -19.502800 -13.576200 -23.403900
C -19.139400 -13.039800 -19.900600
C -19.014400 -13.289300 -22.406000
C -18.474700 -12.954200 -21.121500
N -18.386800 -12.681700 -18.866500
H -17.985600 -10.302600 -14.984900
H -17.935200 -10.701600 -17.285100
C -17.257800 -10.777100 -15.368600
C -17.225100 -11.008600 -16.733000
N -17.183500 -12.343800 -19.434600
C -17.183200 -12.509200 -20.816900
H -16.273700 -11.105000 -13.624800
C -16.233400 -11.235800 -14.564700
C -16.145800 -11.694500 -17.296200
N -16.096500 -12.261100 -21.573100
C -16.069700 -11.917400 -18.753700
H -15.183000 -14.329000 -15.040400
H -15.176700 -14.907200 -13.548100
C -15.148100 -11.886500 -15.126500
C -15.086300 -12.118700 -16.482900
C -15.018200 -11.872100 -20.913100
C -14.959300 -11.690900 -19.516000
C -14.613700 -14.620100 -14.297500
H -14.335600 -12.560500 -16.861900
H -14.229200 -11.703700 -21.414600
H -14.149400 -11.411200 -19.106200
H -14.052500 -15.368200 -14.589600
N -14.040200 -12.237400 -14.271400
H -13.773700 -10.340400 -13.590900
C -13.746400 -13.487000 -13.862000
C -13.198500 -11.120100 -13.792900
O -12.766500 -13.663200 -13.103300
H -12.744100 -11.389000 -12.955300
H -12.618900 -10.514700 -15.648600
C -12.176200 -10.727500 -14.801100
H -11.687600 -9.940800 -14.480500
H -11.549800 -11.468800 -14.935900
76
Fragment
H -19.693500 -11.838600 -30.093000
N -19.155000 -11.588800 -33.681000
C -18.791700 -12.125200 -30.177700
C -18.666600 -11.875700 -32.683100
C -18.126900 -12.210800 -31.398700
N -18.039000 -12.483300 -29.143600
H -17.637800 -14.862400 -25.262000
H -17.587500 -14.463400 -27.562200
C -16.910100 -14.387900 -25.645700
C -16.877300 -14.156400 -27.010100
N -16.835800 -12.821200 -29.711800
C -16.835500 -12.655800 -31.094000
H -15.926000 -14.060000 -23.901900
C -15.885600 -13.929200 -24.841900
C -15.798100 -13.470500 -27.573300
N -15.748800 -12.903900 -31.850200
C -15.721900 -13.247600 -29.030800
H -14.835200 -10.836000 -25.317500
H -14.829000 -10.257800 -23.825200
C -14.800300 -13.278500 -25.403600
C -14.738600 -13.046300 -26.760000
C -14.670400 -13.292900 -31.190200
C -14.611500 -13.474100 -29.793200
C -14.266000 -10.544900 -24.574600
H -13.987900 -12.604500 -27.139000
H -13.881400 -13.461300 -31.691800
H -13.801700 -13.753800 -29.383300
H -13.704800 -9.796800 -24.866700
N -13.692500 -12.927600 -24.548500
H -13.426000 -14.824600 -23.868000
C -13.398600 -11.678000 -24.139100
C -12.850800 -14.044900 -24.070000
O -12.418800 -11.501800 -23.380400
H -12.396300 -13.776000 -23.232500
H -12.271200 -14.650300 -25.925700
C -11.828400 -14.437500 -25.078200
H -11.339800 -15.224200 -24.757600
H -11.202000 -13.696200 -25.213100
H -20.041300 -13.326400 -19.815900
N -19.502800 -13.576200 -23.403900
C -19.139400 -13.039800 -19.900600
C -19.014400 -13.289300 -22.406000
C -18.474700 -12.954200 -21.121500
N -18.386800 -12.681700 -18.866500
H -17.985600 -10.302600 -14.984900
H -17.935200 -10.701600 -17.285100
C -17.257800 -10.777100 -15.368600
C -17.225100 -11.008600 -16.733000
N -17.183500 -12.343800 -19.434600
C -17.183200 -12.509200 -20.816900
H -16.273700 -11.105000 -13.624800
C -16.233400 -11.235800 -14.564700
C -16.145800 -11.694500 -17.296200
N -16.096500 -12.261100 -21.573100
C -16.069700 -11.917400 -18.753700
H -15.183000 -14.329000 -15.040400
H -15.176700 -14.907200 -13.548100
C -15.148100 -11.886500 -15.126500
C -15.086300 -12.118700 -16.482900
C -15.018200 -11.872100 -20.913100
C -14.959300 -11.690900 -19.516000
C -14.613700 -14.620100 -14.297500
H -14.335600 -12.560500 -16.861900
H -14.229200 -11.703700 -21.414600
H -14.149400 -11.411200 -19.106200
H -14.052500 -15.368200 -14.589600
N -14.040200 -12.237400 -14.271400
H -13.773700 -10.340400 -13.590900
C -13.746400 -13.487000 -13.862000
C -13.198500 -11.120100 -13.792900
O -12.766500 -13.663200 -13.103300
H -12.744100 -11.389000 -12.955300
H -12.618900 -10.514700 -15.648600
C -12.176200 -10.727500 -14.801100
H -11.687600 -9.940800 -14.480500
H -11.549800 -11.468800 -14.935900
