45
Fragment
H -7.636800 -12.109700 -45.616000
H -7.291400 -10.594000 -45.822300
C -6.940800 -11.450100 -45.564400
O -6.445800 -11.377600 -44.206000
H -6.223900 -11.694500 -46.153300
C -5.914300 -12.499200 -43.731200
O -5.867200 -13.539700 -44.337600
H -5.699800 -15.927600 -40.307400
H -5.440800 -7.919700 -40.248900
C -5.404900 -12.352400 -42.320400
H -5.402100 -8.772700 -41.562600
N -5.259300 -11.145300 -41.827700
H -5.236200 -14.388200 -42.069300
C -5.144800 -13.569200 -41.639000
C -4.917900 -8.534200 -40.768800
C -4.831100 -11.051100 -40.517500
C -4.771400 -15.860300 -40.073200
C -4.757500 -13.501600 -40.334700
C -4.645500 -9.768500 -39.959900
C -4.590400 -12.217500 -39.717200
H -4.556900 -16.527800 -39.418800
O -4.507200 -14.555900 -39.532100
H -4.233000 -15.996400 -40.857400
C -4.229200 -9.656400 -38.614800
C -4.211000 -12.094300 -38.389200
H -4.154900 -4.209400 -36.447500
H -4.086400 -8.120800 -41.012700
H -4.076200 -12.856300 -37.873300
N -4.034500 -8.391900 -38.093300
C -4.030900 -10.837900 -37.824200
H -3.878800 -11.270600 -33.909000
C -3.689900 -8.322000 -36.825900
C -3.653900 -10.676600 -36.449000
C -3.496000 -9.421200 -35.944700
C -3.493900 -6.960000 -36.208400
O -3.492400 -11.830500 -35.769000
O -3.476300 -5.967700 -37.092400
O -3.371800 -6.801800 -35.020900
C -3.296800 -4.626400 -36.561800
H -3.269100 -9.286900 -35.052200
C -3.174400 -11.736500 -34.367300
H -3.083700 -12.618500 -34.000700
H -2.850500 -4.675200 -35.714200
H -2.768300 -4.108300 -37.173200
H -2.349600 -11.257700 -34.257900
45
Fragment
H -9.607700 -4.026500 -58.346600
H -9.262200 -5.542300 -58.552800
C -8.911700 -4.686200 -58.294900
O -8.416600 -4.758700 -56.936500
H -8.194800 -4.441800 -58.883800
C -7.885100 -3.637000 -56.461700
O -7.838100 -2.596500 -57.068200
H -7.670700 -0.208700 -53.037900
H -7.411700 -8.216600 -52.979400
C -7.375700 -3.783800 -55.050900
H -7.372900 -7.363500 -54.293200
N -7.230100 -4.990900 -54.558200
H -7.207100 -1.748100 -54.799900
C -7.115600 -2.567100 -54.369600
C -6.888800 -7.602000 -53.499300
C -6.801900 -5.085200 -53.248000
C -6.742300 -0.275900 -52.803700
C -6.728400 -2.634600 -53.065200
C -6.616300 -6.367800 -52.690400
C -6.561300 -3.918700 -52.447800
H -6.527700 0.391600 -52.149400
O -6.478000 -1.580400 -52.262700
H -6.203800 -0.139800 -53.587900
C -6.200000 -6.479900 -51.345300
C -6.181800 -4.041900 -51.119700
H -6.125800 -11.926800 -49.178000
H -6.057200 -8.015400 -53.743200
H -6.047000 -3.280000 -50.603900
N -6.005400 -7.744300 -50.823900
C -6.001800 -5.298400 -50.554700
H -5.849600 -4.865600 -46.639600
C -5.660700 -7.814200 -49.556400
C -5.624700 -5.459600 -49.179600
C -5.466800 -6.715000 -48.675200
C -5.464800 -9.176300 -48.939000
O -5.463200 -4.305800 -48.499500
O -5.447100 -10.168500 -49.823000
O -5.342700 -9.334500 -47.751500
C -5.267700 -11.509900 -49.292400
H -5.240000 -6.849300 -47.782800
C -5.145200 -4.399700 -47.097900
H -5.054500 -3.517700 -46.731200
H -4.821300 -11.461000 -48.444800
H -4.739200 -12.028000 -49.903700
H -4.320400 -4.878500 -46.988400
90
Fragment
H -7.636800 -12.109700 -45.616000
H -7.291400 -10.594000 -45.822300
C -6.940800 -11.450100 -45.564400
O -6.445800 -11.377600 -44.206000
H -6.223900 -11.694500 -46.153300
C -5.914300 -12.499200 -43.731200
O -5.867200 -13.539700 -44.337600
H -5.699800 -15.927600 -40.307400
H -5.440800 -7.919700 -40.248900
C -5.404900 -12.352400 -42.320400
H -5.402100 -8.772700 -41.562600
N -5.259300 -11.145300 -41.827700
H -5.236200 -14.388200 -42.069300
C -5.144800 -13.569200 -41.639000
C -4.917900 -8.534200 -40.768800
C -4.831100 -11.051100 -40.517500
C -4.771400 -15.860300 -40.073200
C -4.757500 -13.501600 -40.334700
C -4.645500 -9.768500 -39.959900
C -4.590400 -12.217500 -39.717200
H -4.556900 -16.527800 -39.418800
O -4.507200 -14.555900 -39.532100
H -4.233000 -15.996400 -40.857400
C -4.229200 -9.656400 -38.614800
C -4.211000 -12.094300 -38.389200
H -4.154900 -4.209400 -36.447500
H -4.086400 -8.120800 -41.012700
H -4.076200 -12.856300 -37.873300
N -4.034500 -8.391900 -38.093300
C -4.030900 -10.837900 -37.824200
H -3.878800 -11.270600 -33.909000
C -3.689900 -8.322000 -36.825900
C -3.653900 -10.676600 -36.449000
C -3.496000 -9.421200 -35.944700
C -3.493900 -6.960000 -36.208400
O -3.492400 -11.830500 -35.769000
O -3.476300 -5.967700 -37.092400
O -3.371800 -6.801800 -35.020900
C -3.296800 -4.626400 -36.561800
H -3.269100 -9.286900 -35.052200
C -3.174400 -11.736500 -34.367300
H -3.083700 -12.618500 -34.000700
H -2.850500 -4.675200 -35.714200
H -2.768300 -4.108300 -37.173200
H -2.349600 -11.257700 -34.257900
H -9.607700 -4.026500 -58.346600
H -9.262200 -5.542300 -58.552800
C -8.911700 -4.686200 -58.294900
O -8.416600 -4.758700 -56.936500
H -8.194800 -4.441800 -58.883800
C -7.885100 -3.637000 -56.461700
O -7.838100 -2.596500 -57.068200
H -7.670700 -0.208700 -53.037900
H -7.411700 -8.216600 -52.979400
C -7.375700 -3.783800 -55.050900
H -7.372900 -7.363500 -54.293200
N -7.230100 -4.990900 -54.558200
H -7.207100 -1.748100 -54.799900
C -7.115600 -2.567100 -54.369600
C -6.888800 -7.602000 -53.499300
C -6.801900 -5.085200 -53.248000
C -6.742300 -0.275900 -52.803700
C -6.728400 -2.634600 -53.065200
C -6.616300 -6.367800 -52.690400
C -6.561300 -3.918700 -52.447800
H -6.527700 0.391600 -52.149400
O -6.478000 -1.580400 -52.262700
H -6.203800 -0.139800 -53.587900
C -6.200000 -6.479900 -51.345300
C -6.181800 -4.041900 -51.119700
H -6.125800 -11.926800 -49.178000
H -6.057200 -8.015400 -53.743200
H -6.047000 -3.280000 -50.603900
N -6.005400 -7.744300 -50.823900
C -6.001800 -5.298400 -50.554700
H -5.849600 -4.865600 -46.639600
C -5.660700 -7.814200 -49.556400
C -5.624700 -5.459600 -49.179600
C -5.466800 -6.715000 -48.675200
C -5.464800 -9.176300 -48.939000
O -5.463200 -4.305800 -48.499500
O -5.447100 -10.168500 -49.823000
O -5.342700 -9.334500 -47.751500
C -5.267700 -11.509900 -49.292400
H -5.240000 -6.849300 -47.782800
C -5.145200 -4.399700 -47.097900
H -5.054500 -3.517700 -46.731200
H -4.821300 -11.461000 -48.444800
H -4.739200 -12.028000 -49.903700
H -4.320400 -4.878500 -46.988400
