45
Fragment
H -7.636800 -12.109700 -45.616000
H -7.291400 -10.594000 -45.822300
C -6.940800 -11.450100 -45.564400
O -6.445800 -11.377600 -44.206000
H -6.223900 -11.694500 -46.153300
C -5.914300 -12.499200 -43.731200
O -5.867200 -13.539700 -44.337600
H -5.699800 -15.927600 -40.307400
H -5.440800 -7.919700 -40.248900
C -5.404900 -12.352400 -42.320400
H -5.402100 -8.772700 -41.562600
N -5.259300 -11.145300 -41.827700
H -5.236200 -14.388200 -42.069300
C -5.144800 -13.569200 -41.639000
C -4.917900 -8.534200 -40.768800
C -4.831100 -11.051100 -40.517500
C -4.771400 -15.860300 -40.073200
C -4.757500 -13.501600 -40.334700
C -4.645500 -9.768500 -39.959900
C -4.590400 -12.217500 -39.717200
H -4.556900 -16.527800 -39.418800
O -4.507200 -14.555900 -39.532100
H -4.233000 -15.996400 -40.857400
C -4.229200 -9.656400 -38.614800
C -4.211000 -12.094300 -38.389200
H -4.154900 -4.209400 -36.447500
H -4.086400 -8.120800 -41.012700
H -4.076200 -12.856300 -37.873300
N -4.034500 -8.391900 -38.093300
C -4.030900 -10.837900 -37.824200
H -3.878800 -11.270600 -33.909000
C -3.689900 -8.322000 -36.825900
C -3.653900 -10.676600 -36.449000
C -3.496000 -9.421200 -35.944700
C -3.493900 -6.960000 -36.208400
O -3.492400 -11.830500 -35.769000
O -3.476300 -5.967700 -37.092400
O -3.371800 -6.801800 -35.020900
C -3.296800 -4.626400 -36.561800
H -3.269100 -9.286900 -35.052200
C -3.174400 -11.736500 -34.367300
H -3.083700 -12.618500 -34.000700
H -2.850500 -4.675200 -35.714200
H -2.768300 -4.108300 -37.173200
H -2.349600 -11.257700 -34.257900
45
Fragment
H -11.446300 -16.636500 -54.855900
H -11.027500 -9.487000 -51.940600
H -10.945400 -10.054000 -53.399500
H -10.712200 -17.997300 -55.113000
C -10.621500 -17.115300 -54.746400
H -10.526800 -14.665700 -54.061500
C -10.499000 -10.005100 -52.551900
O -10.424100 -12.180500 -54.092800
O -10.319600 -11.346500 -52.021300
O -10.303500 -17.209200 -53.344800
C -10.302000 -12.338700 -52.905300
C -10.299900 -14.800000 -53.169100
C -10.142000 -16.055400 -52.664700
C -10.106000 -13.700800 -52.287900
H -9.917100 -16.649400 -55.204700
C -9.764900 -16.216600 -51.289500
N -9.761400 -13.770700 -51.020400
H -9.719700 -18.235000 -51.240400
H -9.709500 -13.499600 -48.101000
H -9.641000 -9.588200 -52.666200
C -9.584900 -17.473100 -50.724600
C -9.566700 -15.035100 -50.499000
H -9.562900 -21.375200 -48.256400
O -9.288700 -19.934600 -49.581600
H -9.239000 -21.906600 -49.694900
C -9.205400 -17.596300 -49.396500
C -9.150400 -15.147200 -49.153900
C -9.038300 -18.880400 -48.779100
C -9.024400 -21.239100 -49.040600
C -8.964800 -16.429800 -48.596300
C -8.877900 -13.913000 -48.345000
C -8.651100 -18.947900 -47.474700
H -8.559600 -19.766900 -47.044400
N -8.536600 -16.524100 -47.286000
H -8.393800 -14.151500 -47.551100
C -8.391000 -17.731200 -46.793400
H -8.355000 -13.298400 -48.864900
H -8.096000 -21.306300 -48.806300
O -7.928700 -18.918500 -44.776100
C -7.881600 -17.878000 -45.382600
H -7.572000 -17.073200 -42.960500
O -7.350100 -16.756300 -44.907700
C -6.855000 -16.828800 -43.549400
H -6.504500 -15.972700 -43.291500
H -6.159000 -17.488500 -43.497700
90
Fragment
H -7.636800 -12.109700 -45.616000
H -7.291400 -10.594000 -45.822300
C -6.940800 -11.450100 -45.564400
O -6.445800 -11.377600 -44.206000
H -6.223900 -11.694500 -46.153300
C -5.914300 -12.499200 -43.731200
O -5.867200 -13.539700 -44.337600
H -5.699800 -15.927600 -40.307400
H -5.440800 -7.919700 -40.248900
C -5.404900 -12.352400 -42.320400
H -5.402100 -8.772700 -41.562600
N -5.259300 -11.145300 -41.827700
H -5.236200 -14.388200 -42.069300
C -5.144800 -13.569200 -41.639000
C -4.917900 -8.534200 -40.768800
C -4.831100 -11.051100 -40.517500
C -4.771400 -15.860300 -40.073200
C -4.757500 -13.501600 -40.334700
C -4.645500 -9.768500 -39.959900
C -4.590400 -12.217500 -39.717200
H -4.556900 -16.527800 -39.418800
O -4.507200 -14.555900 -39.532100
H -4.233000 -15.996400 -40.857400
C -4.229200 -9.656400 -38.614800
C -4.211000 -12.094300 -38.389200
H -4.154900 -4.209400 -36.447500
H -4.086400 -8.120800 -41.012700
H -4.076200 -12.856300 -37.873300
N -4.034500 -8.391900 -38.093300
C -4.030900 -10.837900 -37.824200
H -3.878800 -11.270600 -33.909000
C -3.689900 -8.322000 -36.825900
C -3.653900 -10.676600 -36.449000
C -3.496000 -9.421200 -35.944700
C -3.493900 -6.960000 -36.208400
O -3.492400 -11.830500 -35.769000
O -3.476300 -5.967700 -37.092400
O -3.371800 -6.801800 -35.020900
C -3.296800 -4.626400 -36.561800
H -3.269100 -9.286900 -35.052200
C -3.174400 -11.736500 -34.367300
H -3.083700 -12.618500 -34.000700
H -2.850500 -4.675200 -35.714200
H -2.768300 -4.108300 -37.173200
H -2.349600 -11.257700 -34.257900
H -11.446300 -16.636500 -54.855900
H -11.027500 -9.487000 -51.940600
H -10.945400 -10.054000 -53.399500
H -10.712200 -17.997300 -55.113000
C -10.621500 -17.115300 -54.746400
H -10.526800 -14.665700 -54.061500
C -10.499000 -10.005100 -52.551900
O -10.424100 -12.180500 -54.092800
O -10.319600 -11.346500 -52.021300
O -10.303500 -17.209200 -53.344800
C -10.302000 -12.338700 -52.905300
C -10.299900 -14.800000 -53.169100
C -10.142000 -16.055400 -52.664700
C -10.106000 -13.700800 -52.287900
H -9.917100 -16.649400 -55.204700
C -9.764900 -16.216600 -51.289500
N -9.761400 -13.770700 -51.020400
H -9.719700 -18.235000 -51.240400
H -9.709500 -13.499600 -48.101000
H -9.641000 -9.588200 -52.666200
C -9.584900 -17.473100 -50.724600
C -9.566700 -15.035100 -50.499000
H -9.562900 -21.375200 -48.256400
O -9.288700 -19.934600 -49.581600
H -9.239000 -21.906600 -49.694900
C -9.205400 -17.596300 -49.396500
C -9.150400 -15.147200 -49.153900
C -9.038300 -18.880400 -48.779100
C -9.024400 -21.239100 -49.040600
C -8.964800 -16.429800 -48.596300
C -8.877900 -13.913000 -48.345000
C -8.651100 -18.947900 -47.474700
H -8.559600 -19.766900 -47.044400
N -8.536600 -16.524100 -47.286000
H -8.393800 -14.151500 -47.551100
C -8.391000 -17.731200 -46.793400
H -8.355000 -13.298400 -48.864900
H -8.096000 -21.306300 -48.806300
O -7.928700 -18.918500 -44.776100
C -7.881600 -17.878000 -45.382600
H -7.572000 -17.073200 -42.960500
O -7.350100 -16.756300 -44.907700
C -6.855000 -16.828800 -43.549400
H -6.504500 -15.972700 -43.291500
H -6.159000 -17.488500 -43.497700
