25
Fragment
H -14.197100 -42.140300 -9.206900
C -13.657600 -42.777900 -9.693100
H -13.567600 -44.102900 -8.110900
H -13.548400 -41.704100 -11.382300
C -13.305700 -43.937300 -9.026300
C -13.258200 -42.532200 -10.982900
H -13.232300 -46.860600 -7.861600
C -12.517700 -44.862000 -9.709500
C -12.467600 -43.434900 -11.682500
C -12.283300 -46.700400 -7.985100
H -12.159900 -43.238900 -12.590800
C -12.105700 -44.619100 -11.033700
N -12.019800 -46.062800 -9.288900
H -11.977300 -46.137300 -7.258900
H -11.828900 -47.556200 -7.912400
C -11.274300 -45.742600 -11.411300
C -11.241800 -46.603800 -10.301200
H -10.615500 -45.469300 -13.329500
C -10.558000 -46.038000 -12.551000
C -10.513800 -47.788000 -10.323100
H -10.468800 -48.417400 -9.599300
C -9.833300 -47.213900 -12.583000
C -9.812500 -48.072400 -11.491000
H -9.344700 -48.917000 -11.546500
H -9.270500 -47.462300 -13.329500
25
Fragment
H -19.916000 -35.349700 -9.421000
H -19.841800 -33.895000 -7.638000
C -19.374000 -34.739600 -7.582500
C -19.353200 -35.598100 -8.674500
H -18.717700 -34.394600 -5.690800
C -18.672700 -35.024000 -6.414600
C -18.628500 -36.774000 -8.642500
H -18.571000 -37.342700 -9.421000
C -17.944700 -36.208200 -6.392700
C -17.912200 -37.069400 -7.502800
H -17.357600 -35.255800 -4.003900
H -17.209200 -36.674700 -3.350400
N -17.166700 -36.749200 -5.380400
C -17.080800 -38.192900 -7.125200
H -17.026600 -39.573100 -8.682300
C -16.903200 -36.111600 -4.076600
C -16.718900 -39.377100 -7.774000
C -16.668800 -37.950000 -5.801000
H -15.954200 -35.951400 -3.953100
C -15.928300 -40.279800 -7.074400
C -15.880800 -38.874700 -5.117800
H -15.638100 -41.107900 -7.473800
H -15.618900 -38.709100 -4.202400
C -15.528900 -40.034100 -5.784600
H -14.989400 -40.671700 -5.298400
50
Fragment
H -14.197100 -42.140300 -9.206900
C -13.657600 -42.777900 -9.693100
H -13.567600 -44.102900 -8.110900
H -13.548400 -41.704100 -11.382300
C -13.305700 -43.937300 -9.026300
C -13.258200 -42.532200 -10.982900
H -13.232300 -46.860600 -7.861600
C -12.517700 -44.862000 -9.709500
C -12.467600 -43.434900 -11.682500
C -12.283300 -46.700400 -7.985100
H -12.159900 -43.238900 -12.590800
C -12.105700 -44.619100 -11.033700
N -12.019800 -46.062800 -9.288900
H -11.977300 -46.137300 -7.258900
H -11.828900 -47.556200 -7.912400
C -11.274300 -45.742600 -11.411300
C -11.241800 -46.603800 -10.301200
H -10.615500 -45.469300 -13.329500
C -10.558000 -46.038000 -12.551000
C -10.513800 -47.788000 -10.323100
H -10.468800 -48.417400 -9.599300
C -9.833300 -47.213900 -12.583000
C -9.812500 -48.072400 -11.491000
H -9.344700 -48.917000 -11.546500
H -9.270500 -47.462300 -13.329500
H -19.916000 -35.349700 -9.421000
H -19.841800 -33.895000 -7.638000
C -19.374000 -34.739600 -7.582500
C -19.353200 -35.598100 -8.674500
H -18.717700 -34.394600 -5.690800
C -18.672700 -35.024000 -6.414600
C -18.628500 -36.774000 -8.642500
H -18.571000 -37.342700 -9.421000
C -17.944700 -36.208200 -6.392700
C -17.912200 -37.069400 -7.502800
H -17.357600 -35.255800 -4.003900
H -17.209200 -36.674700 -3.350400
N -17.166700 -36.749200 -5.380400
C -17.080800 -38.192900 -7.125200
H -17.026600 -39.573100 -8.682300
C -16.903200 -36.111600 -4.076600
C -16.718900 -39.377100 -7.774000
C -16.668800 -37.950000 -5.801000
H -15.954200 -35.951400 -3.953100
C -15.928300 -40.279800 -7.074400
C -15.880800 -38.874700 -5.117800
H -15.638100 -41.107900 -7.473800
H -15.618900 -38.709100 -4.202400
C -15.528900 -40.034100 -5.784600
H -14.989400 -40.671700 -5.298400
