25
Fragment
H -14.197100 -42.140300 -9.206900
C -13.657600 -42.777900 -9.693100
H -13.567600 -44.102900 -8.110900
H -13.548400 -41.704100 -11.382300
C -13.305700 -43.937300 -9.026300
C -13.258200 -42.532200 -10.982900
H -13.232300 -46.860600 -7.861600
C -12.517700 -44.862000 -9.709500
C -12.467600 -43.434900 -11.682500
C -12.283300 -46.700400 -7.985100
H -12.159900 -43.238900 -12.590800
C -12.105700 -44.619100 -11.033700
N -12.019800 -46.062800 -9.288900
H -11.977300 -46.137300 -7.258900
H -11.828900 -47.556200 -7.912400
C -11.274300 -45.742600 -11.411300
C -11.241800 -46.603800 -10.301200
H -10.615500 -45.469300 -13.329500
C -10.558000 -46.038000 -12.551000
C -10.513800 -47.788000 -10.323100
H -10.468800 -48.417400 -9.599300
C -9.833300 -47.213900 -12.583000
C -9.812500 -48.072400 -11.491000
H -9.344700 -48.917000 -11.546500
H -9.270500 -47.462300 -13.329500
25
Fragment
H -14.197100 -42.140300 -17.023900
C -13.657600 -42.777900 -17.510100
H -13.567600 -44.102900 -15.927900
H -13.548400 -41.704100 -19.199300
C -13.305700 -43.937300 -16.843300
C -13.258200 -42.532200 -18.799900
H -13.232300 -46.860600 -15.678600
C -12.517700 -44.862000 -17.526500
C -12.467600 -43.434900 -19.499500
C -12.283300 -46.700400 -15.802100
H -12.159900 -43.238900 -20.407800
C -12.105700 -44.619100 -18.850700
N -12.019800 -46.062800 -17.105900
H -11.977300 -46.137300 -15.075900
H -11.828900 -47.556200 -15.729400
C -11.274300 -45.742600 -19.228300
C -11.241800 -46.603800 -18.118200
H -10.615500 -45.469300 -21.146500
C -10.558000 -46.038000 -20.368000
C -10.513800 -47.788000 -18.140100
H -10.468800 -48.417400 -17.416300
C -9.833300 -47.213900 -20.400000
C -9.812500 -48.072400 -19.308000
H -9.344700 -48.917000 -19.363500
H -9.270500 -47.462300 -21.146500
50
Fragment
H -14.197100 -42.140300 -9.206900
C -13.657600 -42.777900 -9.693100
H -13.567600 -44.102900 -8.110900
H -13.548400 -41.704100 -11.382300
C -13.305700 -43.937300 -9.026300
C -13.258200 -42.532200 -10.982900
H -13.232300 -46.860600 -7.861600
C -12.517700 -44.862000 -9.709500
C -12.467600 -43.434900 -11.682500
C -12.283300 -46.700400 -7.985100
H -12.159900 -43.238900 -12.590800
C -12.105700 -44.619100 -11.033700
N -12.019800 -46.062800 -9.288900
H -11.977300 -46.137300 -7.258900
H -11.828900 -47.556200 -7.912400
C -11.274300 -45.742600 -11.411300
C -11.241800 -46.603800 -10.301200
H -10.615500 -45.469300 -13.329500
C -10.558000 -46.038000 -12.551000
C -10.513800 -47.788000 -10.323100
H -10.468800 -48.417400 -9.599300
C -9.833300 -47.213900 -12.583000
C -9.812500 -48.072400 -11.491000
H -9.344700 -48.917000 -11.546500
H -9.270500 -47.462300 -13.329500
H -14.197100 -42.140300 -17.023900
C -13.657600 -42.777900 -17.510100
H -13.567600 -44.102900 -15.927900
H -13.548400 -41.704100 -19.199300
C -13.305700 -43.937300 -16.843300
C -13.258200 -42.532200 -18.799900
H -13.232300 -46.860600 -15.678600
C -12.517700 -44.862000 -17.526500
C -12.467600 -43.434900 -19.499500
C -12.283300 -46.700400 -15.802100
H -12.159900 -43.238900 -20.407800
C -12.105700 -44.619100 -18.850700
N -12.019800 -46.062800 -17.105900
H -11.977300 -46.137300 -15.075900
H -11.828900 -47.556200 -15.729400
C -11.274300 -45.742600 -19.228300
C -11.241800 -46.603800 -18.118200
H -10.615500 -45.469300 -21.146500
C -10.558000 -46.038000 -20.368000
C -10.513800 -47.788000 -18.140100
H -10.468800 -48.417400 -17.416300
C -9.833300 -47.213900 -20.400000
C -9.812500 -48.072400 -19.308000
H -9.344700 -48.917000 -19.363500
H -9.270500 -47.462300 -21.146500
