25
Fragment
H -14.197100 -42.140300 -9.206900
C -13.657600 -42.777900 -9.693100
H -13.567600 -44.102900 -8.110900
H -13.548400 -41.704100 -11.382300
C -13.305700 -43.937300 -9.026300
C -13.258200 -42.532200 -10.982900
H -13.232300 -46.860600 -7.861600
C -12.517700 -44.862000 -9.709500
C -12.467600 -43.434900 -11.682500
C -12.283300 -46.700400 -7.985100
H -12.159900 -43.238900 -12.590800
C -12.105700 -44.619100 -11.033700
N -12.019800 -46.062800 -9.288900
H -11.977300 -46.137300 -7.258900
H -11.828900 -47.556200 -7.912400
C -11.274300 -45.742600 -11.411300
C -11.241800 -46.603800 -10.301200
H -10.615500 -45.469300 -13.329500
C -10.558000 -46.038000 -12.551000
C -10.513800 -47.788000 -10.323100
H -10.468800 -48.417400 -9.599300
C -9.833300 -47.213900 -12.583000
C -9.812500 -48.072400 -11.491000
H -9.344700 -48.917000 -11.546500
H -9.270500 -47.462300 -13.329500
25
Fragment
H -14.197100 -42.140300 -1.389900
C -13.657600 -42.777900 -1.876100
H -13.567600 -44.102900 -0.293900
H -13.548400 -41.704100 -3.565300
C -13.305700 -43.937300 -1.209300
C -13.258200 -42.532200 -3.165900
H -13.232300 -46.860600 -0.044600
C -12.517700 -44.862000 -1.892500
C -12.467600 -43.434900 -3.865500
C -12.283300 -46.700400 -0.168100
H -12.159900 -43.238900 -4.773800
C -12.105700 -44.619100 -3.216700
N -12.019800 -46.062800 -1.471900
H -11.977300 -46.137300 0.558100
H -11.828900 -47.556200 -0.095400
C -11.274300 -45.742600 -3.594300
C -11.241800 -46.603800 -2.484200
H -10.615500 -45.469300 -5.512500
C -10.558000 -46.038000 -4.734000
C -10.513800 -47.788000 -2.506100
H -10.468800 -48.417400 -1.782300
C -9.833300 -47.213900 -4.766000
C -9.812500 -48.072400 -3.674000
H -9.344700 -48.917000 -3.729500
H -9.270500 -47.462300 -5.512500
50
Fragment
H -14.197100 -42.140300 -9.206900
C -13.657600 -42.777900 -9.693100
H -13.567600 -44.102900 -8.110900
H -13.548400 -41.704100 -11.382300
C -13.305700 -43.937300 -9.026300
C -13.258200 -42.532200 -10.982900
H -13.232300 -46.860600 -7.861600
C -12.517700 -44.862000 -9.709500
C -12.467600 -43.434900 -11.682500
C -12.283300 -46.700400 -7.985100
H -12.159900 -43.238900 -12.590800
C -12.105700 -44.619100 -11.033700
N -12.019800 -46.062800 -9.288900
H -11.977300 -46.137300 -7.258900
H -11.828900 -47.556200 -7.912400
C -11.274300 -45.742600 -11.411300
C -11.241800 -46.603800 -10.301200
H -10.615500 -45.469300 -13.329500
C -10.558000 -46.038000 -12.551000
C -10.513800 -47.788000 -10.323100
H -10.468800 -48.417400 -9.599300
C -9.833300 -47.213900 -12.583000
C -9.812500 -48.072400 -11.491000
H -9.344700 -48.917000 -11.546500
H -9.270500 -47.462300 -13.329500
H -14.197100 -42.140300 -1.389900
C -13.657600 -42.777900 -1.876100
H -13.567600 -44.102900 -0.293900
H -13.548400 -41.704100 -3.565300
C -13.305700 -43.937300 -1.209300
C -13.258200 -42.532200 -3.165900
H -13.232300 -46.860600 -0.044600
C -12.517700 -44.862000 -1.892500
C -12.467600 -43.434900 -3.865500
C -12.283300 -46.700400 -0.168100
H -12.159900 -43.238900 -4.773800
C -12.105700 -44.619100 -3.216700
N -12.019800 -46.062800 -1.471900
H -11.977300 -46.137300 0.558100
H -11.828900 -47.556200 -0.095400
C -11.274300 -45.742600 -3.594300
C -11.241800 -46.603800 -2.484200
H -10.615500 -45.469300 -5.512500
C -10.558000 -46.038000 -4.734000
C -10.513800 -47.788000 -2.506100
H -10.468800 -48.417400 -1.782300
C -9.833300 -47.213900 -4.766000
C -9.812500 -48.072400 -3.674000
H -9.344700 -48.917000 -3.729500
H -9.270500 -47.462300 -5.512500
