28
Fragment
H -24.447800 -10.196500 -21.974700
H -23.573900 -10.320800 -24.155400
C -23.513100 -10.435300 -22.094600
H -23.107400 -10.628000 -20.083700
C -22.985200 -10.481400 -23.383000
C -22.732700 -10.653800 -20.979300
C -21.643400 -10.758600 -23.591100
C -21.362300 -10.933100 -21.159100
H -21.244300 -10.781600 -24.486600
H -20.910000 -11.089500 -18.302600
C -20.854700 -10.989700 -22.465800
C -20.264800 -11.176800 -20.270100
C -20.132400 -11.229200 -18.876900
N -19.501200 -11.288500 -22.409200
C -19.135300 -11.384800 -21.072500
H -19.013800 -11.540500 -24.338500
H -18.889700 -9.217600 -23.955600
C -18.881800 -11.481200 -18.354200
H -18.770200 -11.511200 -17.378700
C -18.575200 -11.208900 -23.537800
C -18.117600 -9.794300 -23.777500
C -17.886200 -11.666900 -20.534800
H -17.803200 -11.766800 -23.369700
C -17.771400 -11.713700 -19.163200
H -17.682800 -9.442500 -22.980200
H -17.515200 -9.727300 -24.513300
H -17.124800 -11.839400 -21.114100
H -16.900600 -11.905700 -18.765300
28
Fragment
H -24.339700 -8.414700 -31.173400
H -24.115500 -8.348400 -28.824700
H -23.725100 -6.236300 -25.425500
H -23.557500 -5.951500 -26.958600
C -23.468900 -8.222700 -30.775600
H -23.437100 -8.275800 -26.569100
C -23.354100 -8.175900 -29.403900
C -23.122700 -6.303300 -26.161300
C -22.665100 -7.717900 -26.401000
H -22.470100 -8.020200 -32.560100
C -22.358500 -7.990200 -31.584600
H -22.350600 -5.726600 -25.983100
H -22.226500 -8.049500 -25.600300
C -22.105000 -7.893800 -28.866300
N -21.739200 -7.797500 -27.529600
C -21.107900 -7.738200 -31.061900
C -20.975600 -7.685800 -29.668600
C -20.385600 -7.498700 -27.473000
H -20.330300 -7.598500 -31.636200
H -19.996000 -7.290600 -25.452100
C -19.878000 -7.442100 -28.779700
C -19.596900 -7.267600 -26.347700
C -18.507600 -7.162800 -28.959500
C -18.255100 -6.990400 -26.555800
H -18.132900 -7.137000 -29.855100
C -17.727200 -6.944300 -27.844200
H -17.666400 -6.829800 -25.783400
H -16.792500 -6.705500 -27.964000
56
Fragment
H -24.447800 -10.196500 -21.974700
H -23.573900 -10.320800 -24.155400
C -23.513100 -10.435300 -22.094600
H -23.107400 -10.628000 -20.083700
C -22.985200 -10.481400 -23.383000
C -22.732700 -10.653800 -20.979300
C -21.643400 -10.758600 -23.591100
C -21.362300 -10.933100 -21.159100
H -21.244300 -10.781600 -24.486600
H -20.910000 -11.089500 -18.302600
C -20.854700 -10.989700 -22.465800
C -20.264800 -11.176800 -20.270100
C -20.132400 -11.229200 -18.876900
N -19.501200 -11.288500 -22.409200
C -19.135300 -11.384800 -21.072500
H -19.013800 -11.540500 -24.338500
H -18.889700 -9.217600 -23.955600
C -18.881800 -11.481200 -18.354200
H -18.770200 -11.511200 -17.378700
C -18.575200 -11.208900 -23.537800
C -18.117600 -9.794300 -23.777500
C -17.886200 -11.666900 -20.534800
H -17.803200 -11.766800 -23.369700
C -17.771400 -11.713700 -19.163200
H -17.682800 -9.442500 -22.980200
H -17.515200 -9.727300 -24.513300
H -17.124800 -11.839400 -21.114100
H -16.900600 -11.905700 -18.765300
H -24.339700 -8.414700 -31.173400
H -24.115500 -8.348400 -28.824700
H -23.725100 -6.236300 -25.425500
H -23.557500 -5.951500 -26.958600
C -23.468900 -8.222700 -30.775600
H -23.437100 -8.275800 -26.569100
C -23.354100 -8.175900 -29.403900
C -23.122700 -6.303300 -26.161300
C -22.665100 -7.717900 -26.401000
H -22.470100 -8.020200 -32.560100
C -22.358500 -7.990200 -31.584600
H -22.350600 -5.726600 -25.983100
H -22.226500 -8.049500 -25.600300
C -22.105000 -7.893800 -28.866300
N -21.739200 -7.797500 -27.529600
C -21.107900 -7.738200 -31.061900
C -20.975600 -7.685800 -29.668600
C -20.385600 -7.498700 -27.473000
H -20.330300 -7.598500 -31.636200
H -19.996000 -7.290600 -25.452100
C -19.878000 -7.442100 -28.779700
C -19.596900 -7.267600 -26.347700
C -18.507600 -7.162800 -28.959500
C -18.255100 -6.990400 -26.555800
H -18.132900 -7.137000 -29.855100
C -17.727200 -6.944300 -27.844200
H -17.666400 -6.829800 -25.783400
H -16.792500 -6.705500 -27.964000
