28
Fragment
H -24.447800 -10.196500 -21.974700
H -23.573900 -10.320800 -24.155400
C -23.513100 -10.435300 -22.094600
H -23.107400 -10.628000 -20.083700
C -22.985200 -10.481400 -23.383000
C -22.732700 -10.653800 -20.979300
C -21.643400 -10.758600 -23.591100
C -21.362300 -10.933100 -21.159100
H -21.244300 -10.781600 -24.486600
H -20.910000 -11.089500 -18.302600
C -20.854700 -10.989700 -22.465800
C -20.264800 -11.176800 -20.270100
C -20.132400 -11.229200 -18.876900
N -19.501200 -11.288500 -22.409200
C -19.135300 -11.384800 -21.072500
H -19.013800 -11.540500 -24.338500
H -18.889700 -9.217600 -23.955600
C -18.881800 -11.481200 -18.354200
H -18.770200 -11.511200 -17.378700
C -18.575200 -11.208900 -23.537800
C -18.117600 -9.794300 -23.777500
C -17.886200 -11.666900 -20.534800
H -17.803200 -11.766800 -23.369700
C -17.771400 -11.713700 -19.163200
H -17.682800 -9.442500 -22.980200
H -17.515200 -9.727300 -24.513300
H -17.124800 -11.839400 -21.114100
H -16.900600 -11.905700 -18.765300
28
Fragment
H -32.561300 -7.258500 -21.974700
H -31.687400 -7.134200 -24.155400
C -31.626600 -7.019700 -22.094600
H -31.220900 -6.827000 -20.083700
C -31.098700 -6.973600 -23.383000
C -30.846200 -6.801200 -20.979300
C -29.756900 -6.696400 -23.591100
C -29.475800 -6.521900 -21.159100
H -29.357800 -6.673400 -24.486600
H -29.023500 -6.365500 -18.302600
C -28.968200 -6.465300 -22.465800
C -28.378300 -6.278200 -20.270100
C -28.245900 -6.225800 -18.876900
N -27.614700 -6.166500 -22.409200
C -27.248800 -6.070200 -21.072500
H -27.127300 -5.914500 -24.338500
H -27.003200 -8.237400 -23.955600
C -26.995300 -5.973800 -18.354200
H -26.883700 -5.943800 -17.378700
C -26.688700 -6.246100 -23.537800
C -26.231100 -7.660700 -23.777500
C -25.999700 -5.788100 -20.534800
H -25.916700 -5.688200 -23.369700
C -25.884900 -5.741300 -19.163200
H -25.796300 -8.012500 -22.980200
H -25.628700 -7.727700 -24.513300
H -25.238300 -5.615600 -21.114100
H -25.014100 -5.549300 -18.765300
56
Fragment
H -24.447800 -10.196500 -21.974700
H -23.573900 -10.320800 -24.155400
C -23.513100 -10.435300 -22.094600
H -23.107400 -10.628000 -20.083700
C -22.985200 -10.481400 -23.383000
C -22.732700 -10.653800 -20.979300
C -21.643400 -10.758600 -23.591100
C -21.362300 -10.933100 -21.159100
H -21.244300 -10.781600 -24.486600
H -20.910000 -11.089500 -18.302600
C -20.854700 -10.989700 -22.465800
C -20.264800 -11.176800 -20.270100
C -20.132400 -11.229200 -18.876900
N -19.501200 -11.288500 -22.409200
C -19.135300 -11.384800 -21.072500
H -19.013800 -11.540500 -24.338500
H -18.889700 -9.217600 -23.955600
C -18.881800 -11.481200 -18.354200
H -18.770200 -11.511200 -17.378700
C -18.575200 -11.208900 -23.537800
C -18.117600 -9.794300 -23.777500
C -17.886200 -11.666900 -20.534800
H -17.803200 -11.766800 -23.369700
C -17.771400 -11.713700 -19.163200
H -17.682800 -9.442500 -22.980200
H -17.515200 -9.727300 -24.513300
H -17.124800 -11.839400 -21.114100
H -16.900600 -11.905700 -18.765300
H -32.561300 -7.258500 -21.974700
H -31.687400 -7.134200 -24.155400
C -31.626600 -7.019700 -22.094600
H -31.220900 -6.827000 -20.083700
C -31.098700 -6.973600 -23.383000
C -30.846200 -6.801200 -20.979300
C -29.756900 -6.696400 -23.591100
C -29.475800 -6.521900 -21.159100
H -29.357800 -6.673400 -24.486600
H -29.023500 -6.365500 -18.302600
C -28.968200 -6.465300 -22.465800
C -28.378300 -6.278200 -20.270100
C -28.245900 -6.225800 -18.876900
N -27.614700 -6.166500 -22.409200
C -27.248800 -6.070200 -21.072500
H -27.127300 -5.914500 -24.338500
H -27.003200 -8.237400 -23.955600
C -26.995300 -5.973800 -18.354200
H -26.883700 -5.943800 -17.378700
C -26.688700 -6.246100 -23.537800
C -26.231100 -7.660700 -23.777500
C -25.999700 -5.788100 -20.534800
H -25.916700 -5.688200 -23.369700
C -25.884900 -5.741300 -19.163200
H -25.796300 -8.012500 -22.980200
H -25.628700 -7.727700 -24.513300
H -25.238300 -5.615600 -21.114100
H -25.014100 -5.549300 -18.765300
