28
Fragment
H -24.447800 -10.196500 -21.974700
H -23.573900 -10.320800 -24.155400
C -23.513100 -10.435300 -22.094600
H -23.107400 -10.628000 -20.083700
C -22.985200 -10.481400 -23.383000
C -22.732700 -10.653800 -20.979300
C -21.643400 -10.758600 -23.591100
C -21.362300 -10.933100 -21.159100
H -21.244300 -10.781600 -24.486600
H -20.910000 -11.089500 -18.302600
C -20.854700 -10.989700 -22.465800
C -20.264800 -11.176800 -20.270100
C -20.132400 -11.229200 -18.876900
N -19.501200 -11.288500 -22.409200
C -19.135300 -11.384800 -21.072500
H -19.013800 -11.540500 -24.338500
H -18.889700 -9.217600 -23.955600
C -18.881800 -11.481200 -18.354200
H -18.770200 -11.511200 -17.378700
C -18.575200 -11.208900 -23.537800
C -18.117600 -9.794300 -23.777500
C -17.886200 -11.666900 -20.534800
H -17.803200 -11.766800 -23.369700
C -17.771400 -11.713700 -19.163200
H -17.682800 -9.442500 -22.980200
H -17.515200 -9.727300 -24.513300
H -17.124800 -11.839400 -21.114100
H -16.900600 -11.905700 -18.765300
28
Fragment
H -21.410900 -9.040300 -14.527200
H -21.186700 -9.106600 -12.178400
H -20.796300 -11.218700 -8.779200
H -20.628800 -11.503500 -10.312400
C -20.540100 -9.232300 -14.129300
H -20.508300 -9.179200 -9.922800
C -20.425300 -9.279100 -12.757700
C -20.194000 -11.151700 -9.515000
C -19.736300 -9.737100 -9.754700
H -19.541300 -9.434800 -15.913800
C -19.429700 -9.464800 -14.938300
H -19.421900 -11.728400 -9.336900
H -19.297700 -9.405500 -8.954000
C -19.176200 -9.561200 -12.220000
N -18.810400 -9.657500 -10.883300
C -18.179100 -9.716800 -14.415700
C -18.046800 -9.769200 -13.022400
C -17.456800 -9.956300 -10.826700
H -17.401500 -9.856500 -14.990000
H -17.067200 -10.164400 -8.805900
C -16.949200 -10.012900 -12.133500
C -16.668200 -10.187400 -9.701400
C -15.578800 -10.292200 -12.313200
C -15.326300 -10.464600 -9.909500
H -15.204200 -10.318000 -13.208800
C -14.798400 -10.510700 -11.197900
H -14.737700 -10.625200 -9.137100
H -13.863800 -10.749500 -11.317800
56
Fragment
H -24.447800 -10.196500 -21.974700
H -23.573900 -10.320800 -24.155400
C -23.513100 -10.435300 -22.094600
H -23.107400 -10.628000 -20.083700
C -22.985200 -10.481400 -23.383000
C -22.732700 -10.653800 -20.979300
C -21.643400 -10.758600 -23.591100
C -21.362300 -10.933100 -21.159100
H -21.244300 -10.781600 -24.486600
H -20.910000 -11.089500 -18.302600
C -20.854700 -10.989700 -22.465800
C -20.264800 -11.176800 -20.270100
C -20.132400 -11.229200 -18.876900
N -19.501200 -11.288500 -22.409200
C -19.135300 -11.384800 -21.072500
H -19.013800 -11.540500 -24.338500
H -18.889700 -9.217600 -23.955600
C -18.881800 -11.481200 -18.354200
H -18.770200 -11.511200 -17.378700
C -18.575200 -11.208900 -23.537800
C -18.117600 -9.794300 -23.777500
C -17.886200 -11.666900 -20.534800
H -17.803200 -11.766800 -23.369700
C -17.771400 -11.713700 -19.163200
H -17.682800 -9.442500 -22.980200
H -17.515200 -9.727300 -24.513300
H -17.124800 -11.839400 -21.114100
H -16.900600 -11.905700 -18.765300
H -21.410900 -9.040300 -14.527200
H -21.186700 -9.106600 -12.178400
H -20.796300 -11.218700 -8.779200
H -20.628800 -11.503500 -10.312400
C -20.540100 -9.232300 -14.129300
H -20.508300 -9.179200 -9.922800
C -20.425300 -9.279100 -12.757700
C -20.194000 -11.151700 -9.515000
C -19.736300 -9.737100 -9.754700
H -19.541300 -9.434800 -15.913800
C -19.429700 -9.464800 -14.938300
H -19.421900 -11.728400 -9.336900
H -19.297700 -9.405500 -8.954000
C -19.176200 -9.561200 -12.220000
N -18.810400 -9.657500 -10.883300
C -18.179100 -9.716800 -14.415700
C -18.046800 -9.769200 -13.022400
C -17.456800 -9.956300 -10.826700
H -17.401500 -9.856500 -14.990000
H -17.067200 -10.164400 -8.805900
C -16.949200 -10.012900 -12.133500
C -16.668200 -10.187400 -9.701400
C -15.578800 -10.292200 -12.313200
C -15.326300 -10.464600 -9.909500
H -15.204200 -10.318000 -13.208800
C -14.798400 -10.510700 -11.197900
H -14.737700 -10.625200 -9.137100
H -13.863800 -10.749500 -11.317800
