28
Fragment
H -24.447800 -10.196500 -21.974700
H -23.573900 -10.320800 -24.155400
C -23.513100 -10.435300 -22.094600
H -23.107400 -10.628000 -20.083700
C -22.985200 -10.481400 -23.383000
C -22.732700 -10.653800 -20.979300
C -21.643400 -10.758600 -23.591100
C -21.362300 -10.933100 -21.159100
H -21.244300 -10.781600 -24.486600
H -20.910000 -11.089500 -18.302600
C -20.854700 -10.989700 -22.465800
C -20.264800 -11.176800 -20.270100
C -20.132400 -11.229200 -18.876900
N -19.501200 -11.288500 -22.409200
C -19.135300 -11.384800 -21.072500
H -19.013800 -11.540500 -24.338500
H -18.889700 -9.217600 -23.955600
C -18.881800 -11.481200 -18.354200
H -18.770200 -11.511200 -17.378700
C -18.575200 -11.208900 -23.537800
C -18.117600 -9.794300 -23.777500
C -17.886200 -11.666900 -20.534800
H -17.803200 -11.766800 -23.369700
C -17.771400 -11.713700 -19.163200
H -17.682800 -9.442500 -22.980200
H -17.515200 -9.727300 -24.513300
H -17.124800 -11.839400 -21.114100
H -16.900600 -11.905700 -18.765300
17
Fragment
N -23.587300 -7.140500 -16.558000
H -23.364600 -7.218000 -20.028800
O -23.129900 -7.036500 -22.434200
C -22.883300 -7.274500 -17.422000
C -22.415900 -7.314300 -19.829000
C -21.965200 -7.426100 -18.530600
N -21.952400 -7.267600 -22.239400
C -21.493300 -7.437200 -20.847800
O -21.114500 -7.382800 -23.121600
C -20.630200 -7.652300 -18.247600
H -20.303500 -7.720000 -17.327100
C -20.157600 -7.682300 -20.624700
C -19.763900 -7.793300 -19.309700
H -19.517900 -7.784200 -21.365500
N -18.343400 -8.069800 -19.020000
O -17.971300 -8.040500 -17.859800
O -17.606500 -8.311400 -19.968800
45
Fragment
H -24.447800 -10.196500 -21.974700
H -23.573900 -10.320800 -24.155400
C -23.513100 -10.435300 -22.094600
H -23.107400 -10.628000 -20.083700
C -22.985200 -10.481400 -23.383000
C -22.732700 -10.653800 -20.979300
C -21.643400 -10.758600 -23.591100
C -21.362300 -10.933100 -21.159100
H -21.244300 -10.781600 -24.486600
H -20.910000 -11.089500 -18.302600
C -20.854700 -10.989700 -22.465800
C -20.264800 -11.176800 -20.270100
C -20.132400 -11.229200 -18.876900
N -19.501200 -11.288500 -22.409200
C -19.135300 -11.384800 -21.072500
H -19.013800 -11.540500 -24.338500
H -18.889700 -9.217600 -23.955600
C -18.881800 -11.481200 -18.354200
H -18.770200 -11.511200 -17.378700
C -18.575200 -11.208900 -23.537800
C -18.117600 -9.794300 -23.777500
C -17.886200 -11.666900 -20.534800
H -17.803200 -11.766800 -23.369700
C -17.771400 -11.713700 -19.163200
H -17.682800 -9.442500 -22.980200
H -17.515200 -9.727300 -24.513300
H -17.124800 -11.839400 -21.114100
H -16.900600 -11.905700 -18.765300
N -23.587300 -7.140500 -16.558000
H -23.364600 -7.218000 -20.028800
O -23.129900 -7.036500 -22.434200
C -22.883300 -7.274500 -17.422000
C -22.415900 -7.314300 -19.829000
C -21.965200 -7.426100 -18.530600
N -21.952400 -7.267600 -22.239400
C -21.493300 -7.437200 -20.847800
O -21.114500 -7.382800 -23.121600
C -20.630200 -7.652300 -18.247600
H -20.303500 -7.720000 -17.327100
C -20.157600 -7.682300 -20.624700
C -19.763900 -7.793300 -19.309700
H -19.517900 -7.784200 -21.365500
N -18.343400 -8.069800 -19.020000
O -17.971300 -8.040500 -17.859800
O -17.606500 -8.311400 -19.968800
