28
Fragment
H -24.447800 -10.196500 -21.974700
H -23.573900 -10.320800 -24.155400
C -23.513100 -10.435300 -22.094600
H -23.107400 -10.628000 -20.083700
C -22.985200 -10.481400 -23.383000
C -22.732700 -10.653800 -20.979300
C -21.643400 -10.758600 -23.591100
C -21.362300 -10.933100 -21.159100
H -21.244300 -10.781600 -24.486600
H -20.910000 -11.089500 -18.302600
C -20.854700 -10.989700 -22.465800
C -20.264800 -11.176800 -20.270100
C -20.132400 -11.229200 -18.876900
N -19.501200 -11.288500 -22.409200
C -19.135300 -11.384800 -21.072500
H -19.013800 -11.540500 -24.338500
H -18.889700 -9.217600 -23.955600
C -18.881800 -11.481200 -18.354200
H -18.770200 -11.511200 -17.378700
C -18.575200 -11.208900 -23.537800
C -18.117600 -9.794300 -23.777500
C -17.886200 -11.666900 -20.534800
H -17.803200 -11.766800 -23.369700
C -17.771400 -11.713700 -19.163200
H -17.682800 -9.442500 -22.980200
H -17.515200 -9.727300 -24.513300
H -17.124800 -11.839400 -21.114100
H -16.900600 -11.905700 -18.765300
28
Fragment
H -32.561300 -14.240500 -21.974700
H -31.687400 -14.116200 -24.155400
C -31.626600 -14.001700 -22.094600
H -31.220900 -13.809000 -20.083700
C -31.098700 -13.955600 -23.383000
C -30.846200 -13.783200 -20.979300
C -29.756900 -13.678400 -23.591100
C -29.475800 -13.503900 -21.159100
H -29.357800 -13.655400 -24.486600
H -29.023500 -13.347500 -18.302600
C -28.968200 -13.447300 -22.465800
C -28.378300 -13.260200 -20.270100
C -28.245900 -13.207800 -18.876900
N -27.614700 -13.148500 -22.409200
C -27.248800 -13.052200 -21.072500
H -27.127300 -12.896500 -24.338500
H -27.003200 -15.219400 -23.955600
C -26.995300 -12.955800 -18.354200
H -26.883700 -12.925800 -17.378700
C -26.688700 -13.228100 -23.537800
C -26.231100 -14.642700 -23.777500
C -25.999700 -12.770100 -20.534800
H -25.916700 -12.670200 -23.369700
C -25.884900 -12.723300 -19.163200
H -25.796300 -14.994500 -22.980200
H -25.628700 -14.709700 -24.513300
H -25.238300 -12.597600 -21.114100
H -25.014100 -12.531300 -18.765300
56
Fragment
H -24.447800 -10.196500 -21.974700
H -23.573900 -10.320800 -24.155400
C -23.513100 -10.435300 -22.094600
H -23.107400 -10.628000 -20.083700
C -22.985200 -10.481400 -23.383000
C -22.732700 -10.653800 -20.979300
C -21.643400 -10.758600 -23.591100
C -21.362300 -10.933100 -21.159100
H -21.244300 -10.781600 -24.486600
H -20.910000 -11.089500 -18.302600
C -20.854700 -10.989700 -22.465800
C -20.264800 -11.176800 -20.270100
C -20.132400 -11.229200 -18.876900
N -19.501200 -11.288500 -22.409200
C -19.135300 -11.384800 -21.072500
H -19.013800 -11.540500 -24.338500
H -18.889700 -9.217600 -23.955600
C -18.881800 -11.481200 -18.354200
H -18.770200 -11.511200 -17.378700
C -18.575200 -11.208900 -23.537800
C -18.117600 -9.794300 -23.777500
C -17.886200 -11.666900 -20.534800
H -17.803200 -11.766800 -23.369700
C -17.771400 -11.713700 -19.163200
H -17.682800 -9.442500 -22.980200
H -17.515200 -9.727300 -24.513300
H -17.124800 -11.839400 -21.114100
H -16.900600 -11.905700 -18.765300
H -32.561300 -14.240500 -21.974700
H -31.687400 -14.116200 -24.155400
C -31.626600 -14.001700 -22.094600
H -31.220900 -13.809000 -20.083700
C -31.098700 -13.955600 -23.383000
C -30.846200 -13.783200 -20.979300
C -29.756900 -13.678400 -23.591100
C -29.475800 -13.503900 -21.159100
H -29.357800 -13.655400 -24.486600
H -29.023500 -13.347500 -18.302600
C -28.968200 -13.447300 -22.465800
C -28.378300 -13.260200 -20.270100
C -28.245900 -13.207800 -18.876900
N -27.614700 -13.148500 -22.409200
C -27.248800 -13.052200 -21.072500
H -27.127300 -12.896500 -24.338500
H -27.003200 -15.219400 -23.955600
C -26.995300 -12.955800 -18.354200
H -26.883700 -12.925800 -17.378700
C -26.688700 -13.228100 -23.537800
C -26.231100 -14.642700 -23.777500
C -25.999700 -12.770100 -20.534800
H -25.916700 -12.670200 -23.369700
C -25.884900 -12.723300 -19.163200
H -25.796300 -14.994500 -22.980200
H -25.628700 -14.709700 -24.513300
H -25.238300 -12.597600 -21.114100
H -25.014100 -12.531300 -18.765300
