28
Fragment
H -24.447800 -10.196500 -21.974700
H -23.573900 -10.320800 -24.155400
C -23.513100 -10.435300 -22.094600
H -23.107400 -10.628000 -20.083700
C -22.985200 -10.481400 -23.383000
C -22.732700 -10.653800 -20.979300
C -21.643400 -10.758600 -23.591100
C -21.362300 -10.933100 -21.159100
H -21.244300 -10.781600 -24.486600
H -20.910000 -11.089500 -18.302600
C -20.854700 -10.989700 -22.465800
C -20.264800 -11.176800 -20.270100
C -20.132400 -11.229200 -18.876900
N -19.501200 -11.288500 -22.409200
C -19.135300 -11.384800 -21.072500
H -19.013800 -11.540500 -24.338500
H -18.889700 -9.217600 -23.955600
C -18.881800 -11.481200 -18.354200
H -18.770200 -11.511200 -17.378700
C -18.575200 -11.208900 -23.537800
C -18.117600 -9.794300 -23.777500
C -17.886200 -11.666900 -20.534800
H -17.803200 -11.766800 -23.369700
C -17.771400 -11.713700 -19.163200
H -17.682800 -9.442500 -22.980200
H -17.515200 -9.727300 -24.513300
H -17.124800 -11.839400 -21.114100
H -16.900600 -11.905700 -18.765300
17
Fragment
O -28.818500 -11.802400 -13.323700
O -28.453700 -11.531500 -15.432700
N -28.081600 -11.560800 -14.272500
H -26.907100 -11.275200 -11.927000
C -26.661100 -11.284300 -13.982900
C -26.267500 -11.173300 -12.667800
H -26.121500 -11.211000 -15.965400
C -25.794800 -11.143300 -15.044900
O -25.310500 -10.873800 -10.170900
C -24.931700 -10.928200 -12.444700
N -24.472600 -10.758600 -11.053100
C -24.459900 -10.917100 -14.761900
C -24.009100 -10.805300 -13.463500
C -23.541800 -10.765500 -15.870500
O -23.295200 -10.527500 -10.858400
H -23.060400 -10.709000 -13.263700
N -22.837800 -10.631500 -16.734500
45
Fragment
H -24.447800 -10.196500 -21.974700
H -23.573900 -10.320800 -24.155400
C -23.513100 -10.435300 -22.094600
H -23.107400 -10.628000 -20.083700
C -22.985200 -10.481400 -23.383000
C -22.732700 -10.653800 -20.979300
C -21.643400 -10.758600 -23.591100
C -21.362300 -10.933100 -21.159100
H -21.244300 -10.781600 -24.486600
H -20.910000 -11.089500 -18.302600
C -20.854700 -10.989700 -22.465800
C -20.264800 -11.176800 -20.270100
C -20.132400 -11.229200 -18.876900
N -19.501200 -11.288500 -22.409200
C -19.135300 -11.384800 -21.072500
H -19.013800 -11.540500 -24.338500
H -18.889700 -9.217600 -23.955600
C -18.881800 -11.481200 -18.354200
H -18.770200 -11.511200 -17.378700
C -18.575200 -11.208900 -23.537800
C -18.117600 -9.794300 -23.777500
C -17.886200 -11.666900 -20.534800
H -17.803200 -11.766800 -23.369700
C -17.771400 -11.713700 -19.163200
H -17.682800 -9.442500 -22.980200
H -17.515200 -9.727300 -24.513300
H -17.124800 -11.839400 -21.114100
H -16.900600 -11.905700 -18.765300
O -28.818500 -11.802400 -13.323700
O -28.453700 -11.531500 -15.432700
N -28.081600 -11.560800 -14.272500
H -26.907100 -11.275200 -11.927000
C -26.661100 -11.284300 -13.982900
C -26.267500 -11.173300 -12.667800
H -26.121500 -11.211000 -15.965400
C -25.794800 -11.143300 -15.044900
O -25.310500 -10.873800 -10.170900
C -24.931700 -10.928200 -12.444700
N -24.472600 -10.758600 -11.053100
C -24.459900 -10.917100 -14.761900
C -24.009100 -10.805300 -13.463500
C -23.541800 -10.765500 -15.870500
O -23.295200 -10.527500 -10.858400
H -23.060400 -10.709000 -13.263700
N -22.837800 -10.631500 -16.734500
