28
Fragment
H -24.447800 -10.196500 -21.974700
H -23.573900 -10.320800 -24.155400
C -23.513100 -10.435300 -22.094600
H -23.107400 -10.628000 -20.083700
C -22.985200 -10.481400 -23.383000
C -22.732700 -10.653800 -20.979300
C -21.643400 -10.758600 -23.591100
C -21.362300 -10.933100 -21.159100
H -21.244300 -10.781600 -24.486600
H -20.910000 -11.089500 -18.302600
C -20.854700 -10.989700 -22.465800
C -20.264800 -11.176800 -20.270100
C -20.132400 -11.229200 -18.876900
N -19.501200 -11.288500 -22.409200
C -19.135300 -11.384800 -21.072500
H -19.013800 -11.540500 -24.338500
H -18.889700 -9.217600 -23.955600
C -18.881800 -11.481200 -18.354200
H -18.770200 -11.511200 -17.378700
C -18.575200 -11.208900 -23.537800
C -18.117600 -9.794300 -23.777500
C -17.886200 -11.666900 -20.534800
H -17.803200 -11.766800 -23.369700
C -17.771400 -11.713700 -19.163200
H -17.682800 -9.442500 -22.980200
H -17.515200 -9.727300 -24.513300
H -17.124800 -11.839400 -21.114100
H -16.900600 -11.905700 -18.765300
28
Fragment
H -16.334300 -7.258500 -21.974700
H -15.460400 -7.134200 -24.155400
C -15.399600 -7.019700 -22.094600
H -14.993900 -6.827000 -20.083700
C -14.871700 -6.973600 -23.383000
C -14.619200 -6.801200 -20.979300
C -13.529900 -6.696400 -23.591100
C -13.248800 -6.521900 -21.159100
H -13.130800 -6.673400 -24.486600
H -12.796500 -6.365500 -18.302600
C -12.741200 -6.465300 -22.465800
C -12.151300 -6.278200 -20.270100
C -12.018900 -6.225800 -18.876900
N -11.387700 -6.166500 -22.409200
C -11.021800 -6.070200 -21.072500
H -10.900300 -5.914500 -24.338500
H -10.776200 -8.237400 -23.955600
C -10.768300 -5.973800 -18.354200
H -10.656700 -5.943800 -17.378700
C -10.461700 -6.246100 -23.537800
C -10.004100 -7.660700 -23.777500
C -9.772700 -5.788100 -20.534800
H -9.689700 -5.688200 -23.369700
C -9.657900 -5.741300 -19.163200
H -9.569300 -8.012500 -22.980200
H -9.401700 -7.727700 -24.513300
H -9.011300 -5.615600 -21.114100
H -8.787100 -5.549300 -18.765300
56
Fragment
H -24.447800 -10.196500 -21.974700
H -23.573900 -10.320800 -24.155400
C -23.513100 -10.435300 -22.094600
H -23.107400 -10.628000 -20.083700
C -22.985200 -10.481400 -23.383000
C -22.732700 -10.653800 -20.979300
C -21.643400 -10.758600 -23.591100
C -21.362300 -10.933100 -21.159100
H -21.244300 -10.781600 -24.486600
H -20.910000 -11.089500 -18.302600
C -20.854700 -10.989700 -22.465800
C -20.264800 -11.176800 -20.270100
C -20.132400 -11.229200 -18.876900
N -19.501200 -11.288500 -22.409200
C -19.135300 -11.384800 -21.072500
H -19.013800 -11.540500 -24.338500
H -18.889700 -9.217600 -23.955600
C -18.881800 -11.481200 -18.354200
H -18.770200 -11.511200 -17.378700
C -18.575200 -11.208900 -23.537800
C -18.117600 -9.794300 -23.777500
C -17.886200 -11.666900 -20.534800
H -17.803200 -11.766800 -23.369700
C -17.771400 -11.713700 -19.163200
H -17.682800 -9.442500 -22.980200
H -17.515200 -9.727300 -24.513300
H -17.124800 -11.839400 -21.114100
H -16.900600 -11.905700 -18.765300
H -16.334300 -7.258500 -21.974700
H -15.460400 -7.134200 -24.155400
C -15.399600 -7.019700 -22.094600
H -14.993900 -6.827000 -20.083700
C -14.871700 -6.973600 -23.383000
C -14.619200 -6.801200 -20.979300
C -13.529900 -6.696400 -23.591100
C -13.248800 -6.521900 -21.159100
H -13.130800 -6.673400 -24.486600
H -12.796500 -6.365500 -18.302600
C -12.741200 -6.465300 -22.465800
C -12.151300 -6.278200 -20.270100
C -12.018900 -6.225800 -18.876900
N -11.387700 -6.166500 -22.409200
C -11.021800 -6.070200 -21.072500
H -10.900300 -5.914500 -24.338500
H -10.776200 -8.237400 -23.955600
C -10.768300 -5.973800 -18.354200
H -10.656700 -5.943800 -17.378700
C -10.461700 -6.246100 -23.537800
C -10.004100 -7.660700 -23.777500
C -9.772700 -5.788100 -20.534800
H -9.689700 -5.688200 -23.369700
C -9.657900 -5.741300 -19.163200
H -9.569300 -8.012500 -22.980200
H -9.401700 -7.727700 -24.513300
H -9.011300 -5.615600 -21.114100
H -8.787100 -5.549300 -18.765300
