24
Fragment
H -40.361800 -14.419700 -10.768900
N -39.463200 -14.539200 -10.992200
N -39.340400 -16.977900 -10.979600
C -38.818900 -15.740600 -11.111800
H -38.731000 -18.821400 -11.073200
H -38.718900 -12.644900 -11.174800
C -38.529700 -13.575200 -11.203200
C -38.424000 -17.926900 -11.164100
C -37.495400 -15.440400 -11.398800
N -37.326200 -14.068500 -11.453200
N -37.122200 -17.785200 -11.462300
C -36.616500 -16.533200 -11.583400
N -35.322900 -16.360000 -11.869800
H -35.015800 -15.536200 -11.920500
H -34.700700 -17.948200 -12.952600
H -34.420800 -18.098900 -11.379500
C -34.412800 -17.463600 -12.138700
H -33.025100 -16.237700 -13.064900
C -33.010700 -16.909200 -12.337700
H -32.718400 -16.453600 -11.508200
O -32.325200 -19.168800 -12.723100
C -32.025100 -17.991300 -12.681900
O -30.814100 -17.537600 -12.931900
H -30.183100 -18.285300 -13.072000
24
Fragment
H -35.290900 -18.580200 -15.360800
O -34.659900 -19.327900 -15.500900
C -33.448900 -18.874200 -15.750900
O -33.148800 -17.696700 -15.709700
H -32.755600 -20.411900 -16.924600
C -32.463300 -19.956300 -16.095100
H -32.448900 -20.627800 -15.367900
C -31.061200 -19.401900 -16.294100
H -31.053200 -18.766600 -17.053300
H -30.773300 -18.917300 -15.480200
H -30.458200 -21.329300 -16.512400
N -30.151100 -20.505500 -16.563000
C -28.857500 -20.332300 -16.849400
N -28.351800 -19.080300 -16.970500
N -28.147800 -22.797000 -16.979600
C -27.978600 -21.425100 -17.034000
C -27.050000 -18.938600 -17.268700
C -26.944300 -23.290300 -17.229600
H -26.755100 -24.220600 -17.258000
H -26.743000 -18.044100 -17.359700
C -26.655100 -21.124900 -17.321000
N -26.133600 -19.887600 -17.453200
N -26.010800 -22.326300 -17.440600
H -25.112200 -22.445800 -17.663900
48
Fragment
H -40.361800 -14.419700 -10.768900
N -39.463200 -14.539200 -10.992200
N -39.340400 -16.977900 -10.979600
C -38.818900 -15.740600 -11.111800
H -38.731000 -18.821400 -11.073200
H -38.718900 -12.644900 -11.174800
C -38.529700 -13.575200 -11.203200
C -38.424000 -17.926900 -11.164100
C -37.495400 -15.440400 -11.398800
N -37.326200 -14.068500 -11.453200
N -37.122200 -17.785200 -11.462300
C -36.616500 -16.533200 -11.583400
N -35.322900 -16.360000 -11.869800
H -35.015800 -15.536200 -11.920500
H -34.700700 -17.948200 -12.952600
H -34.420800 -18.098900 -11.379500
C -34.412800 -17.463600 -12.138700
H -33.025100 -16.237700 -13.064900
C -33.010700 -16.909200 -12.337700
H -32.718400 -16.453600 -11.508200
O -32.325200 -19.168800 -12.723100
C -32.025100 -17.991300 -12.681900
O -30.814100 -17.537600 -12.931900
H -30.183100 -18.285300 -13.072000
H -35.290900 -18.580200 -15.360800
O -34.659900 -19.327900 -15.500900
C -33.448900 -18.874200 -15.750900
O -33.148800 -17.696700 -15.709700
H -32.755600 -20.411900 -16.924600
C -32.463300 -19.956300 -16.095100
H -32.448900 -20.627800 -15.367900
C -31.061200 -19.401900 -16.294100
H -31.053200 -18.766600 -17.053300
H -30.773300 -18.917300 -15.480200
H -30.458200 -21.329300 -16.512400
N -30.151100 -20.505500 -16.563000
C -28.857500 -20.332300 -16.849400
N -28.351800 -19.080300 -16.970500
N -28.147800 -22.797000 -16.979600
C -27.978600 -21.425100 -17.034000
C -27.050000 -18.938600 -17.268700
C -26.944300 -23.290300 -17.229600
H -26.755100 -24.220600 -17.258000
H -26.743000 -18.044100 -17.359700
C -26.655100 -21.124900 -17.321000
N -26.133600 -19.887600 -17.453200
N -26.010800 -22.326300 -17.440600
H -25.112200 -22.445800 -17.663900
