24
Fragment
H -40.361800 -14.419700 -10.768900
N -39.463200 -14.539200 -10.992200
N -39.340400 -16.977900 -10.979600
C -38.818900 -15.740600 -11.111800
H -38.731000 -18.821400 -11.073200
H -38.718900 -12.644900 -11.174800
C -38.529700 -13.575200 -11.203200
C -38.424000 -17.926900 -11.164100
C -37.495400 -15.440400 -11.398800
N -37.326200 -14.068500 -11.453200
N -37.122200 -17.785200 -11.462300
C -36.616500 -16.533200 -11.583400
N -35.322900 -16.360000 -11.869800
H -35.015800 -15.536200 -11.920500
H -34.700700 -17.948200 -12.952600
H -34.420800 -18.098900 -11.379500
C -34.412800 -17.463600 -12.138700
H -33.025100 -16.237700 -13.064900
C -33.010700 -16.909200 -12.337700
H -32.718400 -16.453600 -11.508200
O -32.325200 -19.168800 -12.723100
C -32.025100 -17.991300 -12.681900
O -30.814100 -17.537600 -12.931900
H -30.183100 -18.285300 -13.072000
24
Fragment
H -51.362900 -13.313700 -8.252600
O -50.731900 -14.061400 -8.392700
C -49.520900 -13.607700 -8.642700
O -49.220800 -12.430200 -8.601500
H -48.827600 -15.145400 -9.816400
C -48.535300 -14.689800 -8.986900
H -48.520900 -15.361300 -8.259700
C -47.133200 -14.135400 -9.185900
H -47.125200 -13.500100 -9.945100
H -46.845300 -13.650800 -8.372000
H -46.530200 -16.062800 -9.404200
N -46.223100 -15.239000 -9.454800
C -44.929500 -15.065800 -9.741200
N -44.423800 -13.813800 -9.862300
N -44.219800 -17.530500 -9.871400
C -44.050600 -16.158600 -9.925800
C -43.122000 -13.672100 -10.160500
C -43.016300 -18.023800 -10.121400
H -42.827100 -18.954100 -10.149800
H -42.815000 -12.777600 -10.251500
C -42.727100 -15.858400 -10.212800
N -42.205600 -14.621100 -10.345000
N -42.082800 -17.059800 -10.332400
H -41.184200 -17.179300 -10.555700
48
Fragment
H -40.361800 -14.419700 -10.768900
N -39.463200 -14.539200 -10.992200
N -39.340400 -16.977900 -10.979600
C -38.818900 -15.740600 -11.111800
H -38.731000 -18.821400 -11.073200
H -38.718900 -12.644900 -11.174800
C -38.529700 -13.575200 -11.203200
C -38.424000 -17.926900 -11.164100
C -37.495400 -15.440400 -11.398800
N -37.326200 -14.068500 -11.453200
N -37.122200 -17.785200 -11.462300
C -36.616500 -16.533200 -11.583400
N -35.322900 -16.360000 -11.869800
H -35.015800 -15.536200 -11.920500
H -34.700700 -17.948200 -12.952600
H -34.420800 -18.098900 -11.379500
C -34.412800 -17.463600 -12.138700
H -33.025100 -16.237700 -13.064900
C -33.010700 -16.909200 -12.337700
H -32.718400 -16.453600 -11.508200
O -32.325200 -19.168800 -12.723100
C -32.025100 -17.991300 -12.681900
O -30.814100 -17.537600 -12.931900
H -30.183100 -18.285300 -13.072000
H -51.362900 -13.313700 -8.252600
O -50.731900 -14.061400 -8.392700
C -49.520900 -13.607700 -8.642700
O -49.220800 -12.430200 -8.601500
H -48.827600 -15.145400 -9.816400
C -48.535300 -14.689800 -8.986900
H -48.520900 -15.361300 -8.259700
C -47.133200 -14.135400 -9.185900
H -47.125200 -13.500100 -9.945100
H -46.845300 -13.650800 -8.372000
H -46.530200 -16.062800 -9.404200
N -46.223100 -15.239000 -9.454800
C -44.929500 -15.065800 -9.741200
N -44.423800 -13.813800 -9.862300
N -44.219800 -17.530500 -9.871400
C -44.050600 -16.158600 -9.925800
C -43.122000 -13.672100 -10.160500
C -43.016300 -18.023800 -10.121400
H -42.827100 -18.954100 -10.149800
H -42.815000 -12.777600 -10.251500
C -42.727100 -15.858400 -10.212800
N -42.205600 -14.621100 -10.345000
N -42.082800 -17.059800 -10.332400
H -41.184200 -17.179300 -10.555700
