24
Fragment
H -40.361800 -14.419700 -10.768900
N -39.463200 -14.539200 -10.992200
N -39.340400 -16.977900 -10.979600
C -38.818900 -15.740600 -11.111800
H -38.731000 -18.821400 -11.073200
H -38.718900 -12.644900 -11.174800
C -38.529700 -13.575200 -11.203200
C -38.424000 -17.926900 -11.164100
C -37.495400 -15.440400 -11.398800
N -37.326200 -14.068500 -11.453200
N -37.122200 -17.785200 -11.462300
C -36.616500 -16.533200 -11.583400
N -35.322900 -16.360000 -11.869800
H -35.015800 -15.536200 -11.920500
H -34.700700 -17.948200 -12.952600
H -34.420800 -18.098900 -11.379500
C -34.412800 -17.463600 -12.138700
H -33.025100 -16.237700 -13.064900
C -33.010700 -16.909200 -12.337700
H -32.718400 -16.453600 -11.508200
O -32.325200 -19.168800 -12.723100
C -32.025100 -17.991300 -12.681900
O -30.814100 -17.537600 -12.931900
H -30.183100 -18.285300 -13.072000
3
Fragment
H -42.316500 -10.785800 -12.083900
O -41.367200 -10.922700 -11.747000
H -41.289200 -10.206500 -11.046100
27
Fragment
H -40.361800 -14.419700 -10.768900
N -39.463200 -14.539200 -10.992200
N -39.340400 -16.977900 -10.979600
C -38.818900 -15.740600 -11.111800
H -38.731000 -18.821400 -11.073200
H -38.718900 -12.644900 -11.174800
C -38.529700 -13.575200 -11.203200
C -38.424000 -17.926900 -11.164100
C -37.495400 -15.440400 -11.398800
N -37.326200 -14.068500 -11.453200
N -37.122200 -17.785200 -11.462300
C -36.616500 -16.533200 -11.583400
N -35.322900 -16.360000 -11.869800
H -35.015800 -15.536200 -11.920500
H -34.700700 -17.948200 -12.952600
H -34.420800 -18.098900 -11.379500
C -34.412800 -17.463600 -12.138700
H -33.025100 -16.237700 -13.064900
C -33.010700 -16.909200 -12.337700
H -32.718400 -16.453600 -11.508200
O -32.325200 -19.168800 -12.723100
C -32.025100 -17.991300 -12.681900
O -30.814100 -17.537600 -12.931900
H -30.183100 -18.285300 -13.072000
H -42.316500 -10.785800 -12.083900
O -41.367200 -10.922700 -11.747000
H -41.289200 -10.206500 -11.046100
