24
Fragment
H -40.361800 -14.419700 -10.768900
N -39.463200 -14.539200 -10.992200
N -39.340400 -16.977900 -10.979600
C -38.818900 -15.740600 -11.111800
H -38.731000 -18.821400 -11.073200
H -38.718900 -12.644900 -11.174800
C -38.529700 -13.575200 -11.203200
C -38.424000 -17.926900 -11.164100
C -37.495400 -15.440400 -11.398800
N -37.326200 -14.068500 -11.453200
N -37.122200 -17.785200 -11.462300
C -36.616500 -16.533200 -11.583400
N -35.322900 -16.360000 -11.869800
H -35.015800 -15.536200 -11.920500
H -34.700700 -17.948200 -12.952600
H -34.420800 -18.098900 -11.379500
C -34.412800 -17.463600 -12.138700
H -33.025100 -16.237700 -13.064900
C -33.010700 -16.909200 -12.337700
H -32.718400 -16.453600 -11.508200
O -32.325200 -19.168800 -12.723100
C -32.025100 -17.991300 -12.681900
O -30.814100 -17.537600 -12.931900
H -30.183100 -18.285300 -13.072000
24
Fragment
H -41.188800 -17.179300 -7.214800
N -40.290200 -17.059800 -7.438100
N -40.167400 -14.621100 -7.425500
C -39.645900 -15.858400 -7.557700
H -39.558000 -12.777600 -7.519100
H -39.545900 -18.954100 -7.620700
C -39.356700 -18.023800 -7.649100
C -39.251000 -13.672100 -7.610000
C -38.322400 -16.158600 -7.844700
N -38.153200 -17.530500 -7.899100
N -37.949200 -13.813800 -7.908200
C -37.443500 -15.065800 -8.029300
N -36.149900 -15.239000 -8.315700
H -35.842800 -16.062800 -8.366400
H -35.527700 -13.650800 -9.398500
H -35.247800 -13.500100 -7.825400
C -35.239800 -14.135400 -8.584600
H -33.852100 -15.361300 -9.510800
C -33.837700 -14.689800 -8.783600
H -33.545400 -15.145400 -7.954100
O -33.152200 -12.430200 -9.169000
C -32.852100 -13.607700 -9.127800
O -31.641100 -14.061400 -9.377800
H -31.010100 -13.313700 -9.517900
48
Fragment
H -40.361800 -14.419700 -10.768900
N -39.463200 -14.539200 -10.992200
N -39.340400 -16.977900 -10.979600
C -38.818900 -15.740600 -11.111800
H -38.731000 -18.821400 -11.073200
H -38.718900 -12.644900 -11.174800
C -38.529700 -13.575200 -11.203200
C -38.424000 -17.926900 -11.164100
C -37.495400 -15.440400 -11.398800
N -37.326200 -14.068500 -11.453200
N -37.122200 -17.785200 -11.462300
C -36.616500 -16.533200 -11.583400
N -35.322900 -16.360000 -11.869800
H -35.015800 -15.536200 -11.920500
H -34.700700 -17.948200 -12.952600
H -34.420800 -18.098900 -11.379500
C -34.412800 -17.463600 -12.138700
H -33.025100 -16.237700 -13.064900
C -33.010700 -16.909200 -12.337700
H -32.718400 -16.453600 -11.508200
O -32.325200 -19.168800 -12.723100
C -32.025100 -17.991300 -12.681900
O -30.814100 -17.537600 -12.931900
H -30.183100 -18.285300 -13.072000
H -41.188800 -17.179300 -7.214800
N -40.290200 -17.059800 -7.438100
N -40.167400 -14.621100 -7.425500
C -39.645900 -15.858400 -7.557700
H -39.558000 -12.777600 -7.519100
H -39.545900 -18.954100 -7.620700
C -39.356700 -18.023800 -7.649100
C -39.251000 -13.672100 -7.610000
C -38.322400 -16.158600 -7.844700
N -38.153200 -17.530500 -7.899100
N -37.949200 -13.813800 -7.908200
C -37.443500 -15.065800 -8.029300
N -36.149900 -15.239000 -8.315700
H -35.842800 -16.062800 -8.366400
H -35.527700 -13.650800 -9.398500
H -35.247800 -13.500100 -7.825400
C -35.239800 -14.135400 -8.584600
H -33.852100 -15.361300 -9.510800
C -33.837700 -14.689800 -8.783600
H -33.545400 -15.145400 -7.954100
O -33.152200 -12.430200 -9.169000
C -32.852100 -13.607700 -9.127800
O -31.641100 -14.061400 -9.377800
H -31.010100 -13.313700 -9.517900
