14
Fragment
H -8.113100 -12.400800 -19.397100
O -8.013500 -13.255300 -21.843900
H -7.471600 -12.235900 -17.206800
C -7.420500 -12.928400 -19.070300
C -7.153000 -13.915100 -21.292500
C -7.039300 -12.837900 -17.768400
C -6.777400 -13.796400 -19.879600
H -6.698200 -14.542000 -21.806900
C -6.029000 -13.619400 -17.269400
H -5.790600 -13.539000 -16.373300
C -5.735000 -14.607700 -19.399600
C -5.374600 -14.504500 -18.053100
H -5.295000 -15.200300 -19.965100
H -4.696000 -15.035600 -17.702100
14
Fragment
H -10.354600 -15.465100 -20.240800
H -10.000000 -14.845600 -18.044100
C -9.734900 -15.922000 -19.720000
C -9.527300 -15.556700 -18.411700
H -9.170400 -17.191200 -21.129100
C -9.032700 -16.948200 -20.242000
H -8.918900 -15.138200 -15.953400
C -8.612700 -16.252400 -17.648400
C -8.391100 -15.835900 -16.268700
C -8.128300 -17.634300 -19.495400
C -7.921500 -17.285500 -18.182000
H -7.649700 -18.337900 -19.871900
O -7.597700 -16.301800 -15.500300
H -7.309500 -17.756300 -17.662500
28
Fragment
H -8.113100 -12.400800 -19.397100
O -8.013500 -13.255300 -21.843900
H -7.471600 -12.235900 -17.206800
C -7.420500 -12.928400 -19.070300
C -7.153000 -13.915100 -21.292500
C -7.039300 -12.837900 -17.768400
C -6.777400 -13.796400 -19.879600
H -6.698200 -14.542000 -21.806900
C -6.029000 -13.619400 -17.269400
H -5.790600 -13.539000 -16.373300
C -5.735000 -14.607700 -19.399600
C -5.374600 -14.504500 -18.053100
H -5.295000 -15.200300 -19.965100
H -4.696000 -15.035600 -17.702100
H -10.354600 -15.465100 -20.240800
H -10.000000 -14.845600 -18.044100
C -9.734900 -15.922000 -19.720000
C -9.527300 -15.556700 -18.411700
H -9.170400 -17.191200 -21.129100
C -9.032700 -16.948200 -20.242000
H -8.918900 -15.138200 -15.953400
C -8.612700 -16.252400 -17.648400
C -8.391100 -15.835900 -16.268700
C -8.128300 -17.634300 -19.495400
C -7.921500 -17.285500 -18.182000
H -7.649700 -18.337900 -19.871900
O -7.597700 -16.301800 -15.500300
H -7.309500 -17.756300 -17.662500
