14
Fragment
H -8.113100 -12.400800 -19.397100
O -8.013500 -13.255300 -21.843900
H -7.471600 -12.235900 -17.206800
C -7.420500 -12.928400 -19.070300
C -7.153000 -13.915100 -21.292500
C -7.039300 -12.837900 -17.768400
C -6.777400 -13.796400 -19.879600
H -6.698200 -14.542000 -21.806900
C -6.029000 -13.619400 -17.269400
H -5.790600 -13.539000 -16.373300
C -5.735000 -14.607700 -19.399600
C -5.374600 -14.504500 -18.053100
H -5.295000 -15.200300 -19.965100
H -4.696000 -15.035600 -17.702100
36
Fragment
O -13.542100 -11.917100 -23.619300
N -12.843600 -11.138300 -24.234500
O -12.791000 -9.930200 -24.085200
H -12.464500 -13.604400 -25.144600
O -12.253000 -14.795000 -27.142100
N -12.038200 -11.671600 -25.194400
C -11.726700 -13.094100 -25.147200
N -11.414000 -13.964900 -27.397400
H -11.188600 -14.129400 -23.344900
O -11.182200 -13.187200 -21.288700
H -11.180200 -10.194700 -26.267800
N -10.985700 -13.176000 -26.366100
C -10.918000 -10.909300 -25.710000
O -10.860300 -13.788300 -28.467000
C -10.780800 -13.460600 -23.918000
N -10.604300 -12.256100 -21.768600
N -10.538700 -12.242800 -23.170000
O -10.321000 -8.373100 -25.151000
C -10.205700 -11.977500 -26.576700
H -10.157100 -11.747100 -27.518700
O -10.151000 -11.275100 -21.228700
N -10.022900 -10.494300 -24.666000
N -9.824000 -9.169900 -24.382600
C -9.472800 -11.515900 -23.810800
N -9.471200 -13.786600 -24.454100
O -9.410300 -15.704900 -23.365300
O -9.132400 -8.917600 -23.433000
H -8.877800 -11.095600 -23.153500
N -8.877600 -12.146200 -26.072500
N -8.756700 -14.888800 -23.992000
C -8.743800 -12.552400 -24.706800
O -8.032400 -12.060000 -28.102000
H -7.916900 -12.647500 -24.468100
N -7.816000 -12.313800 -26.946800
O -7.597100 -14.952900 -24.302200
O -6.751900 -12.636900 -26.463100
50
Fragment
H -8.113100 -12.400800 -19.397100
O -8.013500 -13.255300 -21.843900
H -7.471600 -12.235900 -17.206800
C -7.420500 -12.928400 -19.070300
C -7.153000 -13.915100 -21.292500
C -7.039300 -12.837900 -17.768400
C -6.777400 -13.796400 -19.879600
H -6.698200 -14.542000 -21.806900
C -6.029000 -13.619400 -17.269400
H -5.790600 -13.539000 -16.373300
C -5.735000 -14.607700 -19.399600
C -5.374600 -14.504500 -18.053100
H -5.295000 -15.200300 -19.965100
H -4.696000 -15.035600 -17.702100
O -13.542100 -11.917100 -23.619300
N -12.843600 -11.138300 -24.234500
O -12.791000 -9.930200 -24.085200
H -12.464500 -13.604400 -25.144600
O -12.253000 -14.795000 -27.142100
N -12.038200 -11.671600 -25.194400
C -11.726700 -13.094100 -25.147200
N -11.414000 -13.964900 -27.397400
H -11.188600 -14.129400 -23.344900
O -11.182200 -13.187200 -21.288700
H -11.180200 -10.194700 -26.267800
N -10.985700 -13.176000 -26.366100
C -10.918000 -10.909300 -25.710000
O -10.860300 -13.788300 -28.467000
C -10.780800 -13.460600 -23.918000
N -10.604300 -12.256100 -21.768600
N -10.538700 -12.242800 -23.170000
O -10.321000 -8.373100 -25.151000
C -10.205700 -11.977500 -26.576700
H -10.157100 -11.747100 -27.518700
O -10.151000 -11.275100 -21.228700
N -10.022900 -10.494300 -24.666000
N -9.824000 -9.169900 -24.382600
C -9.472800 -11.515900 -23.810800
N -9.471200 -13.786600 -24.454100
O -9.410300 -15.704900 -23.365300
O -9.132400 -8.917600 -23.433000
H -8.877800 -11.095600 -23.153500
N -8.877600 -12.146200 -26.072500
N -8.756700 -14.888800 -23.992000
C -8.743800 -12.552400 -24.706800
O -8.032400 -12.060000 -28.102000
H -7.916900 -12.647500 -24.468100
N -7.816000 -12.313800 -26.946800
O -7.597100 -14.952900 -24.302200
O -6.751900 -12.636900 -26.463100
