14
Fragment
H -8.113100 -12.400800 -19.397100
O -8.013500 -13.255300 -21.843900
H -7.471600 -12.235900 -17.206800
C -7.420500 -12.928400 -19.070300
C -7.153000 -13.915100 -21.292500
C -7.039300 -12.837900 -17.768400
C -6.777400 -13.796400 -19.879600
H -6.698200 -14.542000 -21.806900
C -6.029000 -13.619400 -17.269400
H -5.790600 -13.539000 -16.373300
C -5.735000 -14.607700 -19.399600
C -5.374600 -14.504500 -18.053100
H -5.295000 -15.200300 -19.965100
H -4.696000 -15.035600 -17.702100
36
Fragment
O -5.673100 -11.917100 -23.619300
N -4.974600 -11.138300 -24.234500
O -4.922000 -9.930200 -24.085200
H -4.595500 -13.604400 -25.144600
O -4.384000 -14.795000 -27.142100
N -4.169200 -11.671600 -25.194400
C -3.857700 -13.094100 -25.147200
N -3.545000 -13.964900 -27.397400
H -3.319600 -14.129400 -23.344900
O -3.313200 -13.187200 -21.288700
H -3.311200 -10.194700 -26.267800
N -3.116700 -13.176000 -26.366100
C -3.049000 -10.909300 -25.710000
O -2.991300 -13.788300 -28.467000
C -2.911800 -13.460600 -23.918000
N -2.735300 -12.256100 -21.768600
N -2.669700 -12.242800 -23.170000
O -2.452000 -8.373100 -25.151000
C -2.336700 -11.977500 -26.576700
H -2.288100 -11.747100 -27.518700
O -2.282000 -11.275100 -21.228700
N -2.153900 -10.494300 -24.666000
N -1.955000 -9.169900 -24.382600
C -1.603800 -11.515900 -23.810800
N -1.602200 -13.786600 -24.454100
O -1.541300 -15.704900 -23.365300
O -1.263400 -8.917600 -23.433000
H -1.008800 -11.095600 -23.153500
N -1.008600 -12.146200 -26.072500
N -0.887700 -14.888800 -23.992000
C -0.874800 -12.552400 -24.706800
O -0.163400 -12.060000 -28.102000
H -0.047900 -12.647500 -24.468100
N 0.053000 -12.313800 -26.946800
O 0.271900 -14.952900 -24.302200
O 1.117100 -12.636900 -26.463100
50
Fragment
H -8.113100 -12.400800 -19.397100
O -8.013500 -13.255300 -21.843900
H -7.471600 -12.235900 -17.206800
C -7.420500 -12.928400 -19.070300
C -7.153000 -13.915100 -21.292500
C -7.039300 -12.837900 -17.768400
C -6.777400 -13.796400 -19.879600
H -6.698200 -14.542000 -21.806900
C -6.029000 -13.619400 -17.269400
H -5.790600 -13.539000 -16.373300
C -5.735000 -14.607700 -19.399600
C -5.374600 -14.504500 -18.053100
H -5.295000 -15.200300 -19.965100
H -4.696000 -15.035600 -17.702100
O -5.673100 -11.917100 -23.619300
N -4.974600 -11.138300 -24.234500
O -4.922000 -9.930200 -24.085200
H -4.595500 -13.604400 -25.144600
O -4.384000 -14.795000 -27.142100
N -4.169200 -11.671600 -25.194400
C -3.857700 -13.094100 -25.147200
N -3.545000 -13.964900 -27.397400
H -3.319600 -14.129400 -23.344900
O -3.313200 -13.187200 -21.288700
H -3.311200 -10.194700 -26.267800
N -3.116700 -13.176000 -26.366100
C -3.049000 -10.909300 -25.710000
O -2.991300 -13.788300 -28.467000
C -2.911800 -13.460600 -23.918000
N -2.735300 -12.256100 -21.768600
N -2.669700 -12.242800 -23.170000
O -2.452000 -8.373100 -25.151000
C -2.336700 -11.977500 -26.576700
H -2.288100 -11.747100 -27.518700
O -2.282000 -11.275100 -21.228700
N -2.153900 -10.494300 -24.666000
N -1.955000 -9.169900 -24.382600
C -1.603800 -11.515900 -23.810800
N -1.602200 -13.786600 -24.454100
O -1.541300 -15.704900 -23.365300
O -1.263400 -8.917600 -23.433000
H -1.008800 -11.095600 -23.153500
N -1.008600 -12.146200 -26.072500
N -0.887700 -14.888800 -23.992000
C -0.874800 -12.552400 -24.706800
O -0.163400 -12.060000 -28.102000
H -0.047900 -12.647500 -24.468100
N 0.053000 -12.313800 -26.946800
O 0.271900 -14.952900 -24.302200
O 1.117100 -12.636900 -26.463100
