14
Fragment
H -8.113100 -12.400800 -19.397100
O -8.013500 -13.255300 -21.843900
H -7.471600 -12.235900 -17.206800
C -7.420500 -12.928400 -19.070300
C -7.153000 -13.915100 -21.292500
C -7.039300 -12.837900 -17.768400
C -6.777400 -13.796400 -19.879600
H -6.698200 -14.542000 -21.806900
C -6.029000 -13.619400 -17.269400
H -5.790600 -13.539000 -16.373300
C -5.735000 -14.607700 -19.399600
C -5.374600 -14.504500 -18.053100
H -5.295000 -15.200300 -19.965100
H -4.696000 -15.035600 -17.702100
14
Fragment
H -8.053500 -8.161400 -20.589200
H -7.454400 -7.996700 -18.326200
C -7.374900 -8.692500 -20.238200
C -7.014400 -8.589300 -18.891600
H -6.958900 -9.658000 -21.917900
C -6.720400 -9.577600 -21.021900
H -6.051200 -8.655000 -16.484400
C -5.972100 -9.400600 -18.411700
C -5.710100 -10.359100 -20.522800
C -5.596400 -9.281900 -16.998800
C -5.328900 -10.268600 -19.220900
H -5.277900 -10.961100 -21.084500
O -4.735900 -9.941700 -16.447400
H -4.636300 -10.796200 -18.894200
28
Fragment
H -8.113100 -12.400800 -19.397100
O -8.013500 -13.255300 -21.843900
H -7.471600 -12.235900 -17.206800
C -7.420500 -12.928400 -19.070300
C -7.153000 -13.915100 -21.292500
C -7.039300 -12.837900 -17.768400
C -6.777400 -13.796400 -19.879600
H -6.698200 -14.542000 -21.806900
C -6.029000 -13.619400 -17.269400
H -5.790600 -13.539000 -16.373300
C -5.735000 -14.607700 -19.399600
C -5.374600 -14.504500 -18.053100
H -5.295000 -15.200300 -19.965100
H -4.696000 -15.035600 -17.702100
H -8.053500 -8.161400 -20.589200
H -7.454400 -7.996700 -18.326200
C -7.374900 -8.692500 -20.238200
C -7.014400 -8.589300 -18.891600
H -6.958900 -9.658000 -21.917900
C -6.720400 -9.577600 -21.021900
H -6.051200 -8.655000 -16.484400
C -5.972100 -9.400600 -18.411700
C -5.710100 -10.359100 -20.522800
C -5.596400 -9.281900 -16.998800
C -5.328900 -10.268600 -19.220900
H -5.277900 -10.961100 -21.084500
O -4.735900 -9.941700 -16.447400
H -4.636300 -10.796200 -18.894200
