30
Fragment
H -23.786500 -12.089200 -13.870500
N -23.682600 -15.567700 -12.638000
H -23.252000 -13.150700 -14.951800
H -23.111700 -10.660600 -15.602100
C -22.956100 -12.407200 -14.425700
C -22.824400 -14.815800 -12.595900
C -22.401400 -11.289000 -15.312600
H -22.150300 -11.681600 -16.122700
C -21.801300 -12.724300 -13.510600
C -21.742400 -13.862200 -12.525000
O -21.489900 -12.852700 -10.358700
N -21.422300 -10.588300 -12.281600
H -21.402900 -11.110500 -11.472500
H -21.170400 -9.835100 -14.612600
C -21.131900 -13.743800 -11.109200
C -21.119700 -10.783800 -14.715200
N -21.011600 -15.455300 -15.727400
H -20.972700 -9.912200 -12.273000
C -20.939000 -11.466100 -13.329400
C -20.907400 -14.764200 -14.833000
C -20.787600 -13.830900 -13.745100
H -20.437000 -11.113600 -15.298500
N -20.244800 -14.673900 -10.823400
H -20.066500 -15.310000 -11.411000
H -19.758700 -14.518300 -10.032700
N -19.552200 -11.937200 -13.124900
C -19.463500 -13.184200 -13.417900
H -18.407700 -14.820200 -13.429800
N -18.334500 -13.913200 -13.476300
H -17.646200 -13.557500 -13.086300
30
Fragment
H -19.824700 -4.363800 -13.870500
N -19.720800 -7.842300 -12.638000
H -19.290200 -5.425400 -14.951800
H -19.149900 -2.935200 -15.602100
C -18.994300 -4.681900 -14.425700
C -18.862600 -7.090500 -12.595900
C -18.439600 -3.563600 -15.312600
H -18.188500 -3.956200 -16.122700
C -17.839500 -4.998900 -13.510600
C -17.780600 -6.136800 -12.525000
O -17.528100 -5.127300 -10.358700
N -17.460600 -2.863000 -12.281600
H -17.441200 -3.385200 -11.472500
H -17.208600 -2.109700 -14.612600
C -17.170100 -6.018400 -11.109200
C -17.157900 -3.058400 -14.715200
N -17.049800 -7.729900 -15.727400
H -17.010900 -2.186800 -12.273000
C -16.977200 -3.740700 -13.329400
C -16.945600 -7.038800 -14.833000
C -16.825900 -6.105500 -13.745100
H -16.475200 -3.388200 -15.298500
N -16.283000 -6.948500 -10.823400
H -16.104800 -7.584600 -11.411000
H -15.796900 -6.793000 -10.032700
N -15.590500 -4.211900 -13.124900
C -15.501700 -5.458800 -13.417900
H -14.445900 -7.094900 -13.429800
N -14.372700 -6.187800 -13.476300
H -13.684400 -5.832100 -13.086300
60
Fragment
H -23.786500 -12.089200 -13.870500
N -23.682600 -15.567700 -12.638000
H -23.252000 -13.150700 -14.951800
H -23.111700 -10.660600 -15.602100
C -22.956100 -12.407200 -14.425700
C -22.824400 -14.815800 -12.595900
C -22.401400 -11.289000 -15.312600
H -22.150300 -11.681600 -16.122700
C -21.801300 -12.724300 -13.510600
C -21.742400 -13.862200 -12.525000
O -21.489900 -12.852700 -10.358700
N -21.422300 -10.588300 -12.281600
H -21.402900 -11.110500 -11.472500
H -21.170400 -9.835100 -14.612600
C -21.131900 -13.743800 -11.109200
C -21.119700 -10.783800 -14.715200
N -21.011600 -15.455300 -15.727400
H -20.972700 -9.912200 -12.273000
C -20.939000 -11.466100 -13.329400
C -20.907400 -14.764200 -14.833000
C -20.787600 -13.830900 -13.745100
H -20.437000 -11.113600 -15.298500
N -20.244800 -14.673900 -10.823400
H -20.066500 -15.310000 -11.411000
H -19.758700 -14.518300 -10.032700
N -19.552200 -11.937200 -13.124900
C -19.463500 -13.184200 -13.417900
H -18.407700 -14.820200 -13.429800
N -18.334500 -13.913200 -13.476300
H -17.646200 -13.557500 -13.086300
H -19.824700 -4.363800 -13.870500
N -19.720800 -7.842300 -12.638000
H -19.290200 -5.425400 -14.951800
H -19.149900 -2.935200 -15.602100
C -18.994300 -4.681900 -14.425700
C -18.862600 -7.090500 -12.595900
C -18.439600 -3.563600 -15.312600
H -18.188500 -3.956200 -16.122700
C -17.839500 -4.998900 -13.510600
C -17.780600 -6.136800 -12.525000
O -17.528100 -5.127300 -10.358700
N -17.460600 -2.863000 -12.281600
H -17.441200 -3.385200 -11.472500
H -17.208600 -2.109700 -14.612600
C -17.170100 -6.018400 -11.109200
C -17.157900 -3.058400 -14.715200
N -17.049800 -7.729900 -15.727400
H -17.010900 -2.186800 -12.273000
C -16.977200 -3.740700 -13.329400
C -16.945600 -7.038800 -14.833000
C -16.825900 -6.105500 -13.745100
H -16.475200 -3.388200 -15.298500
N -16.283000 -6.948500 -10.823400
H -16.104800 -7.584600 -11.411000
H -15.796900 -6.793000 -10.032700
N -15.590500 -4.211900 -13.124900
C -15.501700 -5.458800 -13.417900
H -14.445900 -7.094900 -13.429800
N -14.372700 -6.187800 -13.476300
H -13.684400 -5.832100 -13.086300
