30
Fragment
H -23.786500 -12.089200 -13.870500
N -23.682600 -15.567700 -12.638000
H -23.252000 -13.150700 -14.951800
H -23.111700 -10.660600 -15.602100
C -22.956100 -12.407200 -14.425700
C -22.824400 -14.815800 -12.595900
C -22.401400 -11.289000 -15.312600
H -22.150300 -11.681600 -16.122700
C -21.801300 -12.724300 -13.510600
C -21.742400 -13.862200 -12.525000
O -21.489900 -12.852700 -10.358700
N -21.422300 -10.588300 -12.281600
H -21.402900 -11.110500 -11.472500
H -21.170400 -9.835100 -14.612600
C -21.131900 -13.743800 -11.109200
C -21.119700 -10.783800 -14.715200
N -21.011600 -15.455300 -15.727400
H -20.972700 -9.912200 -12.273000
C -20.939000 -11.466100 -13.329400
C -20.907400 -14.764200 -14.833000
C -20.787600 -13.830900 -13.745100
H -20.437000 -11.113600 -15.298500
N -20.244800 -14.673900 -10.823400
H -20.066500 -15.310000 -11.411000
H -19.758700 -14.518300 -10.032700
N -19.552200 -11.937200 -13.124900
C -19.463500 -13.184200 -13.417900
H -18.407700 -14.820200 -13.429800
N -18.334500 -13.913200 -13.476300
H -17.646200 -13.557500 -13.086300
3
Fragment
H -20.650800 -15.250800 -6.798600
O -20.554200 -15.405300 -7.627100
H -19.841200 -14.842800 -7.939300
33
Fragment
H -23.786500 -12.089200 -13.870500
N -23.682600 -15.567700 -12.638000
H -23.252000 -13.150700 -14.951800
H -23.111700 -10.660600 -15.602100
C -22.956100 -12.407200 -14.425700
C -22.824400 -14.815800 -12.595900
C -22.401400 -11.289000 -15.312600
H -22.150300 -11.681600 -16.122700
C -21.801300 -12.724300 -13.510600
C -21.742400 -13.862200 -12.525000
O -21.489900 -12.852700 -10.358700
N -21.422300 -10.588300 -12.281600
H -21.402900 -11.110500 -11.472500
H -21.170400 -9.835100 -14.612600
C -21.131900 -13.743800 -11.109200
C -21.119700 -10.783800 -14.715200
N -21.011600 -15.455300 -15.727400
H -20.972700 -9.912200 -12.273000
C -20.939000 -11.466100 -13.329400
C -20.907400 -14.764200 -14.833000
C -20.787600 -13.830900 -13.745100
H -20.437000 -11.113600 -15.298500
N -20.244800 -14.673900 -10.823400
H -20.066500 -15.310000 -11.411000
H -19.758700 -14.518300 -10.032700
N -19.552200 -11.937200 -13.124900
C -19.463500 -13.184200 -13.417900
H -18.407700 -14.820200 -13.429800
N -18.334500 -13.913200 -13.476300
H -17.646200 -13.557500 -13.086300
H -20.650800 -15.250800 -6.798600
O -20.554200 -15.405300 -7.627100
H -19.841200 -14.842800 -7.939300
