30
Fragment
H -23.786500 -12.089200 -13.870500
N -23.682600 -15.567700 -12.638000
H -23.252000 -13.150700 -14.951800
H -23.111700 -10.660600 -15.602100
C -22.956100 -12.407200 -14.425700
C -22.824400 -14.815800 -12.595900
C -22.401400 -11.289000 -15.312600
H -22.150300 -11.681600 -16.122700
C -21.801300 -12.724300 -13.510600
C -21.742400 -13.862200 -12.525000
O -21.489900 -12.852700 -10.358700
N -21.422300 -10.588300 -12.281600
H -21.402900 -11.110500 -11.472500
H -21.170400 -9.835100 -14.612600
C -21.131900 -13.743800 -11.109200
C -21.119700 -10.783800 -14.715200
N -21.011600 -15.455300 -15.727400
H -20.972700 -9.912200 -12.273000
C -20.939000 -11.466100 -13.329400
C -20.907400 -14.764200 -14.833000
C -20.787600 -13.830900 -13.745100
H -20.437000 -11.113600 -15.298500
N -20.244800 -14.673900 -10.823400
H -20.066500 -15.310000 -11.411000
H -19.758700 -14.518300 -10.032700
N -19.552200 -11.937200 -13.124900
C -19.463500 -13.184200 -13.417900
H -18.407700 -14.820200 -13.429800
N -18.334500 -13.913200 -13.476300
H -17.646200 -13.557500 -13.086300
30
Fragment
H -27.748300 -19.814600 -13.870500
N -27.644400 -23.293100 -12.638000
H -27.213800 -20.876100 -14.951800
H -27.073500 -18.386000 -15.602100
C -26.917900 -20.132600 -14.425700
C -26.786200 -22.541200 -12.595900
C -26.363200 -19.014300 -15.312600
H -26.112100 -19.406900 -16.122700
C -25.763000 -20.449600 -13.510600
C -25.704100 -21.587600 -12.525000
O -25.451700 -20.578100 -10.358700
N -25.384100 -18.313700 -12.281600
H -25.364700 -18.835900 -11.472500
H -25.132200 -17.560400 -14.612600
C -25.093700 -21.469100 -11.109200
C -25.081400 -18.509200 -14.715200
N -24.973400 -23.180700 -15.727400
H -24.934400 -17.637500 -12.273000
C -24.900700 -19.191400 -13.329400
C -24.869200 -22.489600 -14.833000
C -24.749400 -21.556300 -13.745100
H -24.398800 -18.838900 -15.298500
N -24.206600 -22.399200 -10.823400
H -24.028300 -23.035400 -11.411000
H -23.720400 -22.243700 -10.032700
N -23.514000 -19.662600 -13.124900
C -23.425300 -20.909600 -13.417900
H -22.369500 -22.545600 -13.429800
N -22.296300 -21.638500 -13.476300
H -21.608000 -21.282900 -13.086300
60
Fragment
H -23.786500 -12.089200 -13.870500
N -23.682600 -15.567700 -12.638000
H -23.252000 -13.150700 -14.951800
H -23.111700 -10.660600 -15.602100
C -22.956100 -12.407200 -14.425700
C -22.824400 -14.815800 -12.595900
C -22.401400 -11.289000 -15.312600
H -22.150300 -11.681600 -16.122700
C -21.801300 -12.724300 -13.510600
C -21.742400 -13.862200 -12.525000
O -21.489900 -12.852700 -10.358700
N -21.422300 -10.588300 -12.281600
H -21.402900 -11.110500 -11.472500
H -21.170400 -9.835100 -14.612600
C -21.131900 -13.743800 -11.109200
C -21.119700 -10.783800 -14.715200
N -21.011600 -15.455300 -15.727400
H -20.972700 -9.912200 -12.273000
C -20.939000 -11.466100 -13.329400
C -20.907400 -14.764200 -14.833000
C -20.787600 -13.830900 -13.745100
H -20.437000 -11.113600 -15.298500
N -20.244800 -14.673900 -10.823400
H -20.066500 -15.310000 -11.411000
H -19.758700 -14.518300 -10.032700
N -19.552200 -11.937200 -13.124900
C -19.463500 -13.184200 -13.417900
H -18.407700 -14.820200 -13.429800
N -18.334500 -13.913200 -13.476300
H -17.646200 -13.557500 -13.086300
H -27.748300 -19.814600 -13.870500
N -27.644400 -23.293100 -12.638000
H -27.213800 -20.876100 -14.951800
H -27.073500 -18.386000 -15.602100
C -26.917900 -20.132600 -14.425700
C -26.786200 -22.541200 -12.595900
C -26.363200 -19.014300 -15.312600
H -26.112100 -19.406900 -16.122700
C -25.763000 -20.449600 -13.510600
C -25.704100 -21.587600 -12.525000
O -25.451700 -20.578100 -10.358700
N -25.384100 -18.313700 -12.281600
H -25.364700 -18.835900 -11.472500
H -25.132200 -17.560400 -14.612600
C -25.093700 -21.469100 -11.109200
C -25.081400 -18.509200 -14.715200
N -24.973400 -23.180700 -15.727400
H -24.934400 -17.637500 -12.273000
C -24.900700 -19.191400 -13.329400
C -24.869200 -22.489600 -14.833000
C -24.749400 -21.556300 -13.745100
H -24.398800 -18.838900 -15.298500
N -24.206600 -22.399200 -10.823400
H -24.028300 -23.035400 -11.411000
H -23.720400 -22.243700 -10.032700
N -23.514000 -19.662600 -13.124900
C -23.425300 -20.909600 -13.417900
H -22.369500 -22.545600 -13.429800
N -22.296300 -21.638500 -13.476300
H -21.608000 -21.282900 -13.086300
