30
Fragment
H -23.786500 -12.089200 -13.870500
N -23.682600 -15.567700 -12.638000
H -23.252000 -13.150700 -14.951800
H -23.111700 -10.660600 -15.602100
C -22.956100 -12.407200 -14.425700
C -22.824400 -14.815800 -12.595900
C -22.401400 -11.289000 -15.312600
H -22.150300 -11.681600 -16.122700
C -21.801300 -12.724300 -13.510600
C -21.742400 -13.862200 -12.525000
O -21.489900 -12.852700 -10.358700
N -21.422300 -10.588300 -12.281600
H -21.402900 -11.110500 -11.472500
H -21.170400 -9.835100 -14.612600
C -21.131900 -13.743800 -11.109200
C -21.119700 -10.783800 -14.715200
N -21.011600 -15.455300 -15.727400
H -20.972700 -9.912200 -12.273000
C -20.939000 -11.466100 -13.329400
C -20.907400 -14.764200 -14.833000
C -20.787600 -13.830900 -13.745100
H -20.437000 -11.113600 -15.298500
N -20.244800 -14.673900 -10.823400
H -20.066500 -15.310000 -11.411000
H -19.758700 -14.518300 -10.032700
N -19.552200 -11.937200 -13.124900
C -19.463500 -13.184200 -13.417900
H -18.407700 -14.820200 -13.429800
N -18.334500 -13.913200 -13.476300
H -17.646200 -13.557500 -13.086300
30
Fragment
H -20.359700 -12.074100 -8.517200
N -19.671300 -11.718400 -8.127200
H -19.598200 -10.811300 -8.173700
C -18.542400 -12.447300 -8.185600
N -18.453600 -13.694300 -8.478600
H -18.247200 -11.113200 -11.570800
H -17.939300 -10.321500 -10.192500
N -17.761100 -10.957700 -10.780100
H -17.568900 -14.518000 -6.305000
C -17.218200 -11.800600 -7.858400
C -17.098500 -10.867400 -6.770500
C -17.066900 -14.165500 -8.274100
H -17.033200 -15.719400 -9.330600
N -16.994300 -10.176300 -5.876200
C -16.886200 -14.847700 -6.888300
C -16.874000 -11.887800 -10.494300
H -16.835500 -15.796500 -6.990900
H -16.602900 -14.521000 -10.131000
N -16.583500 -15.043200 -9.321900
O -16.515900 -12.778800 -11.244800
C -16.263500 -11.769400 -9.078500
C -16.204600 -12.907300 -8.092900
H -15.855600 -13.950000 -5.480800
C -15.604500 -14.342600 -6.290900
C -15.181500 -10.815700 -9.007600
C -15.049800 -13.224300 -7.177800
H -14.894200 -14.971000 -6.001500
H -14.753900 -12.480800 -6.651700
N -14.323300 -10.063900 -8.965500
H -14.219400 -13.542400 -7.733000
60
Fragment
H -23.786500 -12.089200 -13.870500
N -23.682600 -15.567700 -12.638000
H -23.252000 -13.150700 -14.951800
H -23.111700 -10.660600 -15.602100
C -22.956100 -12.407200 -14.425700
C -22.824400 -14.815800 -12.595900
C -22.401400 -11.289000 -15.312600
H -22.150300 -11.681600 -16.122700
C -21.801300 -12.724300 -13.510600
C -21.742400 -13.862200 -12.525000
O -21.489900 -12.852700 -10.358700
N -21.422300 -10.588300 -12.281600
H -21.402900 -11.110500 -11.472500
H -21.170400 -9.835100 -14.612600
C -21.131900 -13.743800 -11.109200
C -21.119700 -10.783800 -14.715200
N -21.011600 -15.455300 -15.727400
H -20.972700 -9.912200 -12.273000
C -20.939000 -11.466100 -13.329400
C -20.907400 -14.764200 -14.833000
C -20.787600 -13.830900 -13.745100
H -20.437000 -11.113600 -15.298500
N -20.244800 -14.673900 -10.823400
H -20.066500 -15.310000 -11.411000
H -19.758700 -14.518300 -10.032700
N -19.552200 -11.937200 -13.124900
C -19.463500 -13.184200 -13.417900
H -18.407700 -14.820200 -13.429800
N -18.334500 -13.913200 -13.476300
H -17.646200 -13.557500 -13.086300
H -20.359700 -12.074100 -8.517200
N -19.671300 -11.718400 -8.127200
H -19.598200 -10.811300 -8.173700
C -18.542400 -12.447300 -8.185600
N -18.453600 -13.694300 -8.478600
H -18.247200 -11.113200 -11.570800
H -17.939300 -10.321500 -10.192500
N -17.761100 -10.957700 -10.780100
H -17.568900 -14.518000 -6.305000
C -17.218200 -11.800600 -7.858400
C -17.098500 -10.867400 -6.770500
C -17.066900 -14.165500 -8.274100
H -17.033200 -15.719400 -9.330600
N -16.994300 -10.176300 -5.876200
C -16.886200 -14.847700 -6.888300
C -16.874000 -11.887800 -10.494300
H -16.835500 -15.796500 -6.990900
H -16.602900 -14.521000 -10.131000
N -16.583500 -15.043200 -9.321900
O -16.515900 -12.778800 -11.244800
C -16.263500 -11.769400 -9.078500
C -16.204600 -12.907300 -8.092900
H -15.855600 -13.950000 -5.480800
C -15.604500 -14.342600 -6.290900
C -15.181500 -10.815700 -9.007600
C -15.049800 -13.224300 -7.177800
H -14.894200 -14.971000 -6.001500
H -14.753900 -12.480800 -6.651700
N -14.323300 -10.063900 -8.965500
H -14.219400 -13.542400 -7.733000
