30
Fragment
H -23.786500 -12.089200 -13.870500
N -23.682600 -15.567700 -12.638000
H -23.252000 -13.150700 -14.951800
H -23.111700 -10.660600 -15.602100
C -22.956100 -12.407200 -14.425700
C -22.824400 -14.815800 -12.595900
C -22.401400 -11.289000 -15.312600
H -22.150300 -11.681600 -16.122700
C -21.801300 -12.724300 -13.510600
C -21.742400 -13.862200 -12.525000
O -21.489900 -12.852700 -10.358700
N -21.422300 -10.588300 -12.281600
H -21.402900 -11.110500 -11.472500
H -21.170400 -9.835100 -14.612600
C -21.131900 -13.743800 -11.109200
C -21.119700 -10.783800 -14.715200
N -21.011600 -15.455300 -15.727400
H -20.972700 -9.912200 -12.273000
C -20.939000 -11.466100 -13.329400
C -20.907400 -14.764200 -14.833000
C -20.787600 -13.830900 -13.745100
H -20.437000 -11.113600 -15.298500
N -20.244800 -14.673900 -10.823400
H -20.066500 -15.310000 -11.411000
H -19.758700 -14.518300 -10.032700
N -19.552200 -11.937200 -13.124900
C -19.463500 -13.184200 -13.417900
H -18.407700 -14.820200 -13.429800
N -18.334500 -13.913200 -13.476300
H -17.646200 -13.557500 -13.086300
30
Fragment
H -21.077900 -13.301800 -19.318900
N -20.389600 -12.946100 -18.929000
H -20.316500 -12.039000 -18.975400
C -19.260700 -13.675100 -18.987300
N -19.171900 -14.922000 -19.280400
H -18.965500 -12.340900 -22.372600
H -18.657600 -11.549300 -20.994300
N -18.479300 -12.185400 -21.581900
H -18.287100 -15.745700 -17.106700
C -17.936500 -13.028300 -18.660100
C -17.816700 -12.095100 -17.572300
C -17.785200 -15.393200 -19.075900
H -17.751500 -16.947100 -20.132300
N -17.712500 -11.404000 -16.677900
C -17.604500 -16.075400 -17.690000
C -17.592200 -13.115500 -21.296100
H -17.553800 -17.024200 -17.792600
H -17.321200 -15.748700 -20.932700
N -17.301800 -16.270900 -20.123700
O -17.234200 -14.006600 -22.046600
C -16.981800 -12.997100 -19.880300
C -16.922900 -14.135000 -18.894600
H -16.573900 -15.177700 -16.282600
C -16.322700 -15.570300 -17.092700
C -15.899700 -12.043400 -19.809300
C -15.768000 -14.452000 -17.979500
H -15.612500 -16.198700 -16.803200
H -15.472100 -13.708500 -17.453500
N -15.041500 -11.291600 -19.767200
H -14.937600 -14.770100 -18.534700
60
Fragment
H -23.786500 -12.089200 -13.870500
N -23.682600 -15.567700 -12.638000
H -23.252000 -13.150700 -14.951800
H -23.111700 -10.660600 -15.602100
C -22.956100 -12.407200 -14.425700
C -22.824400 -14.815800 -12.595900
C -22.401400 -11.289000 -15.312600
H -22.150300 -11.681600 -16.122700
C -21.801300 -12.724300 -13.510600
C -21.742400 -13.862200 -12.525000
O -21.489900 -12.852700 -10.358700
N -21.422300 -10.588300 -12.281600
H -21.402900 -11.110500 -11.472500
H -21.170400 -9.835100 -14.612600
C -21.131900 -13.743800 -11.109200
C -21.119700 -10.783800 -14.715200
N -21.011600 -15.455300 -15.727400
H -20.972700 -9.912200 -12.273000
C -20.939000 -11.466100 -13.329400
C -20.907400 -14.764200 -14.833000
C -20.787600 -13.830900 -13.745100
H -20.437000 -11.113600 -15.298500
N -20.244800 -14.673900 -10.823400
H -20.066500 -15.310000 -11.411000
H -19.758700 -14.518300 -10.032700
N -19.552200 -11.937200 -13.124900
C -19.463500 -13.184200 -13.417900
H -18.407700 -14.820200 -13.429800
N -18.334500 -13.913200 -13.476300
H -17.646200 -13.557500 -13.086300
H -21.077900 -13.301800 -19.318900
N -20.389600 -12.946100 -18.929000
H -20.316500 -12.039000 -18.975400
C -19.260700 -13.675100 -18.987300
N -19.171900 -14.922000 -19.280400
H -18.965500 -12.340900 -22.372600
H -18.657600 -11.549300 -20.994300
N -18.479300 -12.185400 -21.581900
H -18.287100 -15.745700 -17.106700
C -17.936500 -13.028300 -18.660100
C -17.816700 -12.095100 -17.572300
C -17.785200 -15.393200 -19.075900
H -17.751500 -16.947100 -20.132300
N -17.712500 -11.404000 -16.677900
C -17.604500 -16.075400 -17.690000
C -17.592200 -13.115500 -21.296100
H -17.553800 -17.024200 -17.792600
H -17.321200 -15.748700 -20.932700
N -17.301800 -16.270900 -20.123700
O -17.234200 -14.006600 -22.046600
C -16.981800 -12.997100 -19.880300
C -16.922900 -14.135000 -18.894600
H -16.573900 -15.177700 -16.282600
C -16.322700 -15.570300 -17.092700
C -15.899700 -12.043400 -19.809300
C -15.768000 -14.452000 -17.979500
H -15.612500 -16.198700 -16.803200
H -15.472100 -13.708500 -17.453500
N -15.041500 -11.291600 -19.767200
H -14.937600 -14.770100 -18.534700
