21
Fragment
H -27.198400 -13.711000 -11.091500
H -26.921600 -15.899800 -11.862800
H -26.921600 -15.899800 -10.320200
H -26.699400 -12.402200 -11.091500
N -26.663000 -13.253200 -11.091500
C -26.309400 -15.975000 -11.091500
H -26.043800 -16.796100 -11.091500
O -25.570000 -10.890900 -11.091500
C -25.438600 -13.689800 -11.091500
N -25.184200 -15.027600 -11.091500
N -24.414000 -11.443200 -11.091500
C -24.331500 -12.782900 -11.091500
C -23.889800 -15.562500 -11.091500
O -23.720700 -16.764300 -11.091500
C -22.970000 -13.285000 -11.091500
N -22.844200 -14.677700 -11.091500
O -21.973400 -12.579500 -11.091500
C -21.501000 -15.279100 -11.091500
H -21.371000 -15.816900 -11.878000
H -21.371000 -15.816900 -10.305000
H -20.929300 -14.549500 -11.091500
3
Fragment
O -26.716200 -14.381800 -7.922500
H -26.348500 -13.579900 -7.922500
H -26.298200 -14.986100 -7.922500
24
Fragment
H -27.198400 -13.711000 -11.091500
H -26.921600 -15.899800 -11.862800
H -26.921600 -15.899800 -10.320200
H -26.699400 -12.402200 -11.091500
N -26.663000 -13.253200 -11.091500
C -26.309400 -15.975000 -11.091500
H -26.043800 -16.796100 -11.091500
O -25.570000 -10.890900 -11.091500
C -25.438600 -13.689800 -11.091500
N -25.184200 -15.027600 -11.091500
N -24.414000 -11.443200 -11.091500
C -24.331500 -12.782900 -11.091500
C -23.889800 -15.562500 -11.091500
O -23.720700 -16.764300 -11.091500
C -22.970000 -13.285000 -11.091500
N -22.844200 -14.677700 -11.091500
O -21.973400 -12.579500 -11.091500
C -21.501000 -15.279100 -11.091500
H -21.371000 -15.816900 -11.878000
H -21.371000 -15.816900 -10.305000
H -20.929300 -14.549500 -11.091500
O -26.716200 -14.381800 -7.922500
H -26.348500 -13.579900 -7.922500
H -26.298200 -14.986100 -7.922500
