21
Fragment
H -27.198400 -13.711000 -11.091500
H -26.921600 -15.899800 -11.862800
H -26.921600 -15.899800 -10.320200
H -26.699400 -12.402200 -11.091500
N -26.663000 -13.253200 -11.091500
C -26.309400 -15.975000 -11.091500
H -26.043800 -16.796100 -11.091500
O -25.570000 -10.890900 -11.091500
C -25.438600 -13.689800 -11.091500
N -25.184200 -15.027600 -11.091500
N -24.414000 -11.443200 -11.091500
C -24.331500 -12.782900 -11.091500
C -23.889800 -15.562500 -11.091500
O -23.720700 -16.764300 -11.091500
C -22.970000 -13.285000 -11.091500
N -22.844200 -14.677700 -11.091500
O -21.973400 -12.579500 -11.091500
C -21.501000 -15.279100 -11.091500
H -21.371000 -15.816900 -11.878000
H -21.371000 -15.816900 -10.305000
H -20.929300 -14.549500 -11.091500
21
Fragment
H -20.209400 -20.022000 -11.091500
H -19.932600 -17.833200 -11.862800
H -19.932600 -17.833200 -10.320200
H -19.710400 -21.330800 -11.091500
N -19.674000 -20.479800 -11.091500
C -19.320400 -17.758000 -11.091500
H -19.054800 -16.936900 -11.091500
O -18.581000 -22.842100 -11.091500
C -18.449600 -20.043200 -11.091500
N -18.195200 -18.705400 -11.091500
N -17.425000 -22.289800 -11.091500
C -17.342500 -20.950100 -11.091500
C -16.900800 -18.170500 -11.091500
O -16.731700 -16.968700 -11.091500
C -15.981000 -20.448000 -11.091500
N -15.855200 -19.055300 -11.091500
O -14.984400 -21.153500 -11.091500
C -14.512000 -18.453900 -11.091500
H -14.382000 -17.916100 -11.878000
H -14.382000 -17.916100 -10.305000
H -13.940300 -19.183500 -11.091500
42
Fragment
H -27.198400 -13.711000 -11.091500
H -26.921600 -15.899800 -11.862800
H -26.921600 -15.899800 -10.320200
H -26.699400 -12.402200 -11.091500
N -26.663000 -13.253200 -11.091500
C -26.309400 -15.975000 -11.091500
H -26.043800 -16.796100 -11.091500
O -25.570000 -10.890900 -11.091500
C -25.438600 -13.689800 -11.091500
N -25.184200 -15.027600 -11.091500
N -24.414000 -11.443200 -11.091500
C -24.331500 -12.782900 -11.091500
C -23.889800 -15.562500 -11.091500
O -23.720700 -16.764300 -11.091500
C -22.970000 -13.285000 -11.091500
N -22.844200 -14.677700 -11.091500
O -21.973400 -12.579500 -11.091500
C -21.501000 -15.279100 -11.091500
H -21.371000 -15.816900 -11.878000
H -21.371000 -15.816900 -10.305000
H -20.929300 -14.549500 -11.091500
H -20.209400 -20.022000 -11.091500
H -19.932600 -17.833200 -11.862800
H -19.932600 -17.833200 -10.320200
H -19.710400 -21.330800 -11.091500
N -19.674000 -20.479800 -11.091500
C -19.320400 -17.758000 -11.091500
H -19.054800 -16.936900 -11.091500
O -18.581000 -22.842100 -11.091500
C -18.449600 -20.043200 -11.091500
N -18.195200 -18.705400 -11.091500
N -17.425000 -22.289800 -11.091500
C -17.342500 -20.950100 -11.091500
C -16.900800 -18.170500 -11.091500
O -16.731700 -16.968700 -11.091500
C -15.981000 -20.448000 -11.091500
N -15.855200 -19.055300 -11.091500
O -14.984400 -21.153500 -11.091500
C -14.512000 -18.453900 -11.091500
H -14.382000 -17.916100 -11.878000
H -14.382000 -17.916100 -10.305000
H -13.940300 -19.183500 -11.091500
