22
Fragment
O -17.998400 -11.659800 -25.033600
H -17.969700 -12.204300 -23.150300
C -17.430400 -11.729400 -23.957000
H -16.719900 -10.847700 -26.131500
O -16.229600 -11.927500 -21.394400
C -16.118200 -11.243200 -23.658300
N -15.716300 -10.537600 -25.881300
C -15.643200 -11.422400 -22.313300
C -15.337800 -10.628400 -24.619700
H -15.082800 -10.171600 -26.686500
H -14.524300 -11.577400 -20.154000
N -14.346600 -10.943000 -22.094900
N -14.119300 -10.114900 -24.277000
H -13.873900 -8.692500 -25.838800
C -13.760400 -11.108600 -20.754500
C -13.574400 -10.260900 -23.024500
H -13.546300 -10.135300 -20.357200
C -13.292500 -9.402600 -25.277800
H -13.015200 -10.220000 -25.922200
H -12.863300 -11.705200 -20.734700
O -12.493400 -9.810900 -22.742400
H -12.398800 -8.929200 -24.901700
22
Fragment
H -15.369500 -12.710200 -28.171000
O -15.274900 -13.591900 -30.330300
H -14.905000 -15.486200 -32.338000
H -14.753100 -14.001000 -27.150500
C -14.475800 -13.183600 -27.794900
H -14.222000 -13.916300 -32.715500
C -14.193900 -14.041900 -30.048200
C -14.007900 -14.889600 -32.318200
H -13.894400 -12.473500 -27.233900
N -13.649100 -13.895900 -28.795700
N -13.421700 -14.724000 -30.977800
H -13.244000 -15.358400 -32.918700
H -12.685500 -13.952600 -26.386200
C -12.430500 -14.409400 -28.453000
C -12.125100 -15.203400 -30.759400
N -12.052000 -14.318600 -27.191400
C -11.650100 -15.024200 -29.414400
O -11.538700 -15.708500 -31.678300
H -11.048400 -14.628700 -26.941200
C -10.337900 -15.510400 -29.115700
H -9.798600 -15.985300 -29.922400
O -9.769900 -15.440800 -28.039100
44
Fragment
O -17.998400 -11.659800 -25.033600
H -17.969700 -12.204300 -23.150300
C -17.430400 -11.729400 -23.957000
H -16.719900 -10.847700 -26.131500
O -16.229600 -11.927500 -21.394400
C -16.118200 -11.243200 -23.658300
N -15.716300 -10.537600 -25.881300
C -15.643200 -11.422400 -22.313300
C -15.337800 -10.628400 -24.619700
H -15.082800 -10.171600 -26.686500
H -14.524300 -11.577400 -20.154000
N -14.346600 -10.943000 -22.094900
N -14.119300 -10.114900 -24.277000
H -13.873900 -8.692500 -25.838800
C -13.760400 -11.108600 -20.754500
C -13.574400 -10.260900 -23.024500
H -13.546300 -10.135300 -20.357200
C -13.292500 -9.402600 -25.277800
H -13.015200 -10.220000 -25.922200
H -12.863300 -11.705200 -20.734700
O -12.493400 -9.810900 -22.742400
H -12.398800 -8.929200 -24.901700
H -15.369500 -12.710200 -28.171000
O -15.274900 -13.591900 -30.330300
H -14.905000 -15.486200 -32.338000
H -14.753100 -14.001000 -27.150500
C -14.475800 -13.183600 -27.794900
H -14.222000 -13.916300 -32.715500
C -14.193900 -14.041900 -30.048200
C -14.007900 -14.889600 -32.318200
H -13.894400 -12.473500 -27.233900
N -13.649100 -13.895900 -28.795700
N -13.421700 -14.724000 -30.977800
H -13.244000 -15.358400 -32.918700
H -12.685500 -13.952600 -26.386200
C -12.430500 -14.409400 -28.453000
C -12.125100 -15.203400 -30.759400
N -12.052000 -14.318600 -27.191400
C -11.650100 -15.024200 -29.414400
O -11.538700 -15.708500 -31.678300
H -11.048400 -14.628700 -26.941200
C -10.337900 -15.510400 -29.115700
H -9.798600 -15.985300 -29.922400
O -9.769900 -15.440800 -28.039100
