22
Fragment
O -17.998400 -11.659800 -25.033600
H -17.969700 -12.204300 -23.150300
C -17.430400 -11.729400 -23.957000
H -16.719900 -10.847700 -26.131500
O -16.229600 -11.927500 -21.394400
C -16.118200 -11.243200 -23.658300
N -15.716300 -10.537600 -25.881300
C -15.643200 -11.422400 -22.313300
C -15.337800 -10.628400 -24.619700
H -15.082800 -10.171600 -26.686500
H -14.524300 -11.577400 -20.154000
N -14.346600 -10.943000 -22.094900
N -14.119300 -10.114900 -24.277000
H -13.873900 -8.692500 -25.838800
C -13.760400 -11.108600 -20.754500
C -13.574400 -10.260900 -23.024500
H -13.546300 -10.135300 -20.357200
C -13.292500 -9.402600 -25.277800
H -13.015200 -10.220000 -25.922200
H -12.863300 -11.705200 -20.734700
O -12.493400 -9.810900 -22.742400
H -12.398800 -8.929200 -24.901700
22
Fragment
O -25.776900 -15.440800 -25.033600
H -25.748200 -15.985300 -23.150300
C -25.208900 -15.510400 -23.957000
H -24.498400 -14.628700 -26.131500
O -24.008100 -15.708500 -21.394400
C -23.896700 -15.024200 -23.658300
N -23.494800 -14.318600 -25.881300
C -23.421700 -15.203400 -22.313300
C -23.116300 -14.409400 -24.619700
H -22.861300 -13.952600 -26.686500
H -22.302800 -15.358400 -20.154000
N -22.125100 -14.724000 -22.094900
N -21.897800 -13.895900 -24.277000
H -21.652400 -12.473500 -25.838800
C -21.538900 -14.889600 -20.754500
C -21.352900 -14.041900 -23.024500
H -21.324800 -13.916300 -20.357200
C -21.071000 -13.183600 -25.277800
H -20.793700 -14.001000 -25.922200
H -20.641800 -15.486200 -20.734700
O -20.271900 -13.591900 -22.742400
H -20.177300 -12.710200 -24.901700
44
Fragment
O -17.998400 -11.659800 -25.033600
H -17.969700 -12.204300 -23.150300
C -17.430400 -11.729400 -23.957000
H -16.719900 -10.847700 -26.131500
O -16.229600 -11.927500 -21.394400
C -16.118200 -11.243200 -23.658300
N -15.716300 -10.537600 -25.881300
C -15.643200 -11.422400 -22.313300
C -15.337800 -10.628400 -24.619700
H -15.082800 -10.171600 -26.686500
H -14.524300 -11.577400 -20.154000
N -14.346600 -10.943000 -22.094900
N -14.119300 -10.114900 -24.277000
H -13.873900 -8.692500 -25.838800
C -13.760400 -11.108600 -20.754500
C -13.574400 -10.260900 -23.024500
H -13.546300 -10.135300 -20.357200
C -13.292500 -9.402600 -25.277800
H -13.015200 -10.220000 -25.922200
H -12.863300 -11.705200 -20.734700
O -12.493400 -9.810900 -22.742400
H -12.398800 -8.929200 -24.901700
O -25.776900 -15.440800 -25.033600
H -25.748200 -15.985300 -23.150300
C -25.208900 -15.510400 -23.957000
H -24.498400 -14.628700 -26.131500
O -24.008100 -15.708500 -21.394400
C -23.896700 -15.024200 -23.658300
N -23.494800 -14.318600 -25.881300
C -23.421700 -15.203400 -22.313300
C -23.116300 -14.409400 -24.619700
H -22.861300 -13.952600 -26.686500
H -22.302800 -15.358400 -20.154000
N -22.125100 -14.724000 -22.094900
N -21.897800 -13.895900 -24.277000
H -21.652400 -12.473500 -25.838800
C -21.538900 -14.889600 -20.754500
C -21.352900 -14.041900 -23.024500
H -21.324800 -13.916300 -20.357200
C -21.071000 -13.183600 -25.277800
H -20.793700 -14.001000 -25.922200
H -20.641800 -15.486200 -20.734700
O -20.271900 -13.591900 -22.742400
H -20.177300 -12.710200 -24.901700
