22
Fragment
O -17.998400 -11.659800 -25.033600
H -17.969700 -12.204300 -23.150300
C -17.430400 -11.729400 -23.957000
H -16.719900 -10.847700 -26.131500
O -16.229600 -11.927500 -21.394400
C -16.118200 -11.243200 -23.658300
N -15.716300 -10.537600 -25.881300
C -15.643200 -11.422400 -22.313300
C -15.337800 -10.628400 -24.619700
H -15.082800 -10.171600 -26.686500
H -14.524300 -11.577400 -20.154000
N -14.346600 -10.943000 -22.094900
N -14.119300 -10.114900 -24.277000
H -13.873900 -8.692500 -25.838800
C -13.760400 -11.108600 -20.754500
C -13.574400 -10.260900 -23.024500
H -13.546300 -10.135300 -20.357200
C -13.292500 -9.402600 -25.277800
H -13.015200 -10.220000 -25.922200
H -12.863300 -11.705200 -20.734700
O -12.493400 -9.810900 -22.742400
H -12.398800 -8.929200 -24.901700
22
Fragment
O -21.810000 -11.026200 -17.451800
H -21.781300 -10.481700 -15.568500
C -21.242000 -10.956600 -16.375200
H -20.531500 -11.838300 -18.549700
O -20.041200 -10.758500 -13.812600
C -19.929800 -11.442800 -16.076500
N -19.527900 -12.148400 -18.299500
C -19.454800 -11.263600 -14.731500
C -19.149400 -12.057600 -17.037900
H -18.894400 -12.514400 -19.104700
H -18.335900 -11.108600 -12.572200
N -18.158200 -11.743000 -14.513100
N -17.930900 -12.571100 -16.695200
H -17.685500 -13.993500 -18.257000
C -17.572000 -11.577400 -13.172600
C -17.386000 -12.425100 -15.442600
H -17.357900 -12.550700 -12.775400
C -17.104100 -13.283400 -17.696000
H -16.826800 -12.466000 -18.340400
H -16.674900 -10.980800 -13.152900
O -16.305000 -12.875100 -15.160600
H -16.210400 -13.756800 -17.319900
44
Fragment
O -17.998400 -11.659800 -25.033600
H -17.969700 -12.204300 -23.150300
C -17.430400 -11.729400 -23.957000
H -16.719900 -10.847700 -26.131500
O -16.229600 -11.927500 -21.394400
C -16.118200 -11.243200 -23.658300
N -15.716300 -10.537600 -25.881300
C -15.643200 -11.422400 -22.313300
C -15.337800 -10.628400 -24.619700
H -15.082800 -10.171600 -26.686500
H -14.524300 -11.577400 -20.154000
N -14.346600 -10.943000 -22.094900
N -14.119300 -10.114900 -24.277000
H -13.873900 -8.692500 -25.838800
C -13.760400 -11.108600 -20.754500
C -13.574400 -10.260900 -23.024500
H -13.546300 -10.135300 -20.357200
C -13.292500 -9.402600 -25.277800
H -13.015200 -10.220000 -25.922200
H -12.863300 -11.705200 -20.734700
O -12.493400 -9.810900 -22.742400
H -12.398800 -8.929200 -24.901700
O -21.810000 -11.026200 -17.451800
H -21.781300 -10.481700 -15.568500
C -21.242000 -10.956600 -16.375200
H -20.531500 -11.838300 -18.549700
O -20.041200 -10.758500 -13.812600
C -19.929800 -11.442800 -16.076500
N -19.527900 -12.148400 -18.299500
C -19.454800 -11.263600 -14.731500
C -19.149400 -12.057600 -17.037900
H -18.894400 -12.514400 -19.104700
H -18.335900 -11.108600 -12.572200
N -18.158200 -11.743000 -14.513100
N -17.930900 -12.571100 -16.695200
H -17.685500 -13.993500 -18.257000
C -17.572000 -11.577400 -13.172600
C -17.386000 -12.425100 -15.442600
H -17.357900 -12.550700 -12.775400
C -17.104100 -13.283400 -17.696000
H -16.826800 -12.466000 -18.340400
H -16.674900 -10.980800 -13.152900
O -16.305000 -12.875100 -15.160600
H -16.210400 -13.756800 -17.319900
