21
Fragment
H -27.198400 -13.711000 -11.091500
H -26.921600 -15.899800 -11.862800
H -26.921600 -15.899800 -10.320200
H -26.699400 -12.402200 -11.091500
N -26.663000 -13.253200 -11.091500
C -26.309400 -15.975000 -11.091500
H -26.043800 -16.796100 -11.091500
O -25.570000 -10.890900 -11.091500
C -25.438600 -13.689800 -11.091500
N -25.184200 -15.027600 -11.091500
N -24.414000 -11.443200 -11.091500
C -24.331500 -12.782900 -11.091500
C -23.889800 -15.562500 -11.091500
O -23.720700 -16.764300 -11.091500
C -22.970000 -13.285000 -11.091500
N -22.844200 -14.677700 -11.091500
O -21.973400 -12.579500 -11.091500
C -21.501000 -15.279100 -11.091500
H -21.371000 -15.816900 -11.878000
H -21.371000 -15.816900 -10.305000
H -20.929300 -14.549500 -11.091500
21
Fragment
H -21.004700 -14.364500 -7.922500
H -20.563000 -13.097100 -8.709000
H -20.563000 -13.097100 -7.136000
C -20.433000 -13.634900 -7.922500
O -19.960600 -16.334500 -7.922500
N -19.089800 -14.236300 -7.922500
C -18.964000 -15.629000 -7.922500
O -18.213300 -12.149700 -7.922500
C -18.044200 -13.351500 -7.922500
C -17.602500 -16.131100 -7.922500
N -17.520000 -17.470800 -7.922500
N -16.749800 -13.886400 -7.922500
C -16.495400 -15.224200 -7.922500
O -16.364000 -18.023100 -7.922500
H -15.890200 -12.117900 -7.922500
C -15.624600 -12.939000 -7.922500
N -15.271000 -15.660800 -7.922500
H -15.234600 -16.511800 -7.922500
H -15.012400 -13.014200 -8.693800
H -15.012400 -13.014200 -7.151200
H -14.735600 -15.203000 -7.922500
42
Fragment
H -27.198400 -13.711000 -11.091500
H -26.921600 -15.899800 -11.862800
H -26.921600 -15.899800 -10.320200
H -26.699400 -12.402200 -11.091500
N -26.663000 -13.253200 -11.091500
C -26.309400 -15.975000 -11.091500
H -26.043800 -16.796100 -11.091500
O -25.570000 -10.890900 -11.091500
C -25.438600 -13.689800 -11.091500
N -25.184200 -15.027600 -11.091500
N -24.414000 -11.443200 -11.091500
C -24.331500 -12.782900 -11.091500
C -23.889800 -15.562500 -11.091500
O -23.720700 -16.764300 -11.091500
C -22.970000 -13.285000 -11.091500
N -22.844200 -14.677700 -11.091500
O -21.973400 -12.579500 -11.091500
C -21.501000 -15.279100 -11.091500
H -21.371000 -15.816900 -11.878000
H -21.371000 -15.816900 -10.305000
H -20.929300 -14.549500 -11.091500
H -21.004700 -14.364500 -7.922500
H -20.563000 -13.097100 -8.709000
H -20.563000 -13.097100 -7.136000
C -20.433000 -13.634900 -7.922500
O -19.960600 -16.334500 -7.922500
N -19.089800 -14.236300 -7.922500
C -18.964000 -15.629000 -7.922500
O -18.213300 -12.149700 -7.922500
C -18.044200 -13.351500 -7.922500
C -17.602500 -16.131100 -7.922500
N -17.520000 -17.470800 -7.922500
N -16.749800 -13.886400 -7.922500
C -16.495400 -15.224200 -7.922500
O -16.364000 -18.023100 -7.922500
H -15.890200 -12.117900 -7.922500
C -15.624600 -12.939000 -7.922500
N -15.271000 -15.660800 -7.922500
H -15.234600 -16.511800 -7.922500
H -15.012400 -13.014200 -8.693800
H -15.012400 -13.014200 -7.151200
H -14.735600 -15.203000 -7.922500
