20
Fragment
H -14.110200 -5.924100 -23.160200
C -13.399000 -5.481300 -22.607100
N -13.305600 -5.797900 -21.314100
H -12.722800 -4.409700 -24.229700
C -12.566300 -4.572600 -23.252700
C -12.344700 -5.175600 -20.625600
H -12.265800 -5.399300 -19.672900
C -11.557800 -3.935600 -22.529800
C -11.459600 -4.257300 -21.176600
H -11.433500 -3.051800 -25.154500
H -10.744800 -3.852700 -20.550500
C -10.718600 -2.647200 -24.528300
C -10.620400 -2.968900 -23.175200
H -9.912400 -1.505200 -26.032000
C -9.833500 -1.728900 -25.079400
C -9.611900 -2.331900 -22.452300
H -9.455400 -2.494800 -21.475200
N -8.872600 -1.106600 -24.390900
C -8.779200 -1.423200 -23.097900
H -8.068000 -0.980400 -22.544700
20
Fragment
H -16.663500 1.321100 -15.542700
C -15.952200 0.878300 -14.989600
N -15.858900 1.194900 -13.696600
H -15.276100 -0.193300 -16.612200
C -15.119500 -0.030400 -15.635200
C -14.897900 0.572600 -13.008100
H -14.819000 0.796300 -12.055400
C -14.111100 -0.667400 -14.912300
C -14.012800 -0.345700 -13.559100
H -13.986700 -1.551200 -17.537000
H -13.298000 -0.750300 -12.933000
C -13.271900 -1.955800 -16.910800
C -13.173600 -1.634100 -15.557700
H -12.465600 -3.097800 -18.414500
C -12.386700 -2.874100 -17.461900
C -12.165100 -2.271100 -14.834800
H -12.008600 -2.108200 -13.857700
N -11.425800 -3.496400 -16.773400
C -11.332400 -3.179800 -15.480400
H -10.621200 -3.622600 -14.927200
40
Fragment
H -14.110200 -5.924100 -23.160200
C -13.399000 -5.481300 -22.607100
N -13.305600 -5.797900 -21.314100
H -12.722800 -4.409700 -24.229700
C -12.566300 -4.572600 -23.252700
C -12.344700 -5.175600 -20.625600
H -12.265800 -5.399300 -19.672900
C -11.557800 -3.935600 -22.529800
C -11.459600 -4.257300 -21.176600
H -11.433500 -3.051800 -25.154500
H -10.744800 -3.852700 -20.550500
C -10.718600 -2.647200 -24.528300
C -10.620400 -2.968900 -23.175200
H -9.912400 -1.505200 -26.032000
C -9.833500 -1.728900 -25.079400
C -9.611900 -2.331900 -22.452300
H -9.455400 -2.494800 -21.475200
N -8.872600 -1.106600 -24.390900
C -8.779200 -1.423200 -23.097900
H -8.068000 -0.980400 -22.544700
H -16.663500 1.321100 -15.542700
C -15.952200 0.878300 -14.989600
N -15.858900 1.194900 -13.696600
H -15.276100 -0.193300 -16.612200
C -15.119500 -0.030400 -15.635200
C -14.897900 0.572600 -13.008100
H -14.819000 0.796300 -12.055400
C -14.111100 -0.667400 -14.912300
C -14.012800 -0.345700 -13.559100
H -13.986700 -1.551200 -17.537000
H -13.298000 -0.750300 -12.933000
C -13.271900 -1.955800 -16.910800
C -13.173600 -1.634100 -15.557700
H -12.465600 -3.097800 -18.414500
C -12.386700 -2.874100 -17.461900
C -12.165100 -2.271100 -14.834800
H -12.008600 -2.108200 -13.857700
N -11.425800 -3.496400 -16.773400
C -11.332400 -3.179800 -15.480400
H -10.621200 -3.622600 -14.927200
