20
Fragment
H -14.110200 -5.924100 -23.160200
C -13.399000 -5.481300 -22.607100
N -13.305600 -5.797900 -21.314100
H -12.722800 -4.409700 -24.229700
C -12.566300 -4.572600 -23.252700
C -12.344700 -5.175600 -20.625600
H -12.265800 -5.399300 -19.672900
C -11.557800 -3.935600 -22.529800
C -11.459600 -4.257300 -21.176600
H -11.433500 -3.051800 -25.154500
H -10.744800 -3.852700 -20.550500
C -10.718600 -2.647200 -24.528300
C -10.620400 -2.968900 -23.175200
H -9.912400 -1.505200 -26.032000
C -9.833500 -1.728900 -25.079400
C -9.611900 -2.331900 -22.452300
H -9.455400 -2.494800 -21.475200
N -8.872600 -1.106600 -24.390900
C -8.779200 -1.423200 -23.097900
H -8.068000 -0.980400 -22.544700
8
Fragment
H -15.034500 -2.085200 -25.472900
N -14.469700 -1.612900 -25.953000
H -14.444900 -0.727300 -25.992400
O -13.562200 -3.564600 -26.661200
C -13.562200 -2.314800 -26.661200
H -12.679600 -0.727300 -27.330100
N -12.654800 -1.612900 -27.369500
H -12.090000 -2.085200 -27.849600
28
Fragment
H -14.110200 -5.924100 -23.160200
C -13.399000 -5.481300 -22.607100
N -13.305600 -5.797900 -21.314100
H -12.722800 -4.409700 -24.229700
C -12.566300 -4.572600 -23.252700
C -12.344700 -5.175600 -20.625600
H -12.265800 -5.399300 -19.672900
C -11.557800 -3.935600 -22.529800
C -11.459600 -4.257300 -21.176600
H -11.433500 -3.051800 -25.154500
H -10.744800 -3.852700 -20.550500
C -10.718600 -2.647200 -24.528300
C -10.620400 -2.968900 -23.175200
H -9.912400 -1.505200 -26.032000
C -9.833500 -1.728900 -25.079400
C -9.611900 -2.331900 -22.452300
H -9.455400 -2.494800 -21.475200
N -8.872600 -1.106600 -24.390900
C -8.779200 -1.423200 -23.097900
H -8.068000 -0.980400 -22.544700
H -15.034500 -2.085200 -25.472900
N -14.469700 -1.612900 -25.953000
H -14.444900 -0.727300 -25.992400
O -13.562200 -3.564600 -26.661200
C -13.562200 -2.314800 -26.661200
H -12.679600 -0.727300 -27.330100
N -12.654800 -1.612900 -27.369500
H -12.090000 -2.085200 -27.849600
