22
Fragment
H -8.753900 -14.769900 -27.885200
H -8.635500 -16.045400 -27.091800
N -8.542500 -15.182300 -27.148900
H -8.110300 -16.875000 -25.014000
C -8.073500 -14.485100 -26.098300
N -7.901600 -13.193900 -26.091100
N -7.794600 -16.315500 -24.427300
C -7.717400 -15.000000 -24.797700
N -7.611300 -18.217200 -23.174800
O -7.439300 -12.873400 -24.817600
C -7.419300 -16.827200 -23.217400
N -7.341300 -14.019400 -24.034700
N -7.288900 -18.863500 -22.098700
N -6.967100 -16.043100 -22.279800
C -6.780600 -18.151600 -21.085300
N -6.640500 -16.779900 -21.169200
N -6.385400 -18.571000 -19.898100
C -6.143200 -16.378400 -19.982700
H -6.021400 -14.483400 -20.241800
N -5.985600 -17.464700 -19.203800
N -5.884000 -15.116900 -19.661500
H -5.577400 -14.923600 -18.870800
22
Fragment
H -11.176200 -9.759400 -33.566800
N -10.869600 -9.952800 -32.776000
N -10.768000 -12.300600 -33.233700
H -10.732100 -9.319200 -32.195700
C -10.610300 -11.214300 -32.454800
N -10.368200 -13.406900 -32.539400
N -10.113100 -11.615700 -31.268300
C -9.973000 -12.987400 -31.352200
N -9.786400 -10.878900 -30.157700
N -9.464600 -13.699400 -30.338800
N -9.412200 -8.855300 -28.402900
C -9.334200 -11.663000 -29.220100
O -9.314300 -7.709200 -27.619900
N -9.142200 -13.053000 -29.262700
C -9.036100 -9.835800 -27.639800
N -8.959000 -11.151400 -28.010200
N -8.851900 -8.029700 -26.346400
C -8.680000 -9.321000 -26.339200
H -8.643300 -11.710800 -27.423500
N -8.211000 -10.018100 -25.288700
H -8.118000 -10.881300 -25.345700
H -7.999700 -9.605700 -24.552300
44
Fragment
H -8.753900 -14.769900 -27.885200
H -8.635500 -16.045400 -27.091800
N -8.542500 -15.182300 -27.148900
H -8.110300 -16.875000 -25.014000
C -8.073500 -14.485100 -26.098300
N -7.901600 -13.193900 -26.091100
N -7.794600 -16.315500 -24.427300
C -7.717400 -15.000000 -24.797700
N -7.611300 -18.217200 -23.174800
O -7.439300 -12.873400 -24.817600
C -7.419300 -16.827200 -23.217400
N -7.341300 -14.019400 -24.034700
N -7.288900 -18.863500 -22.098700
N -6.967100 -16.043100 -22.279800
C -6.780600 -18.151600 -21.085300
N -6.640500 -16.779900 -21.169200
N -6.385400 -18.571000 -19.898100
C -6.143200 -16.378400 -19.982700
H -6.021400 -14.483400 -20.241800
N -5.985600 -17.464700 -19.203800
N -5.884000 -15.116900 -19.661500
H -5.577400 -14.923600 -18.870800
H -11.176200 -9.759400 -33.566800
N -10.869600 -9.952800 -32.776000
N -10.768000 -12.300600 -33.233700
H -10.732100 -9.319200 -32.195700
C -10.610300 -11.214300 -32.454800
N -10.368200 -13.406900 -32.539400
N -10.113100 -11.615700 -31.268300
C -9.973000 -12.987400 -31.352200
N -9.786400 -10.878900 -30.157700
N -9.464600 -13.699400 -30.338800
N -9.412200 -8.855300 -28.402900
C -9.334200 -11.663000 -29.220100
O -9.314300 -7.709200 -27.619900
N -9.142200 -13.053000 -29.262700
C -9.036100 -9.835800 -27.639800
N -8.959000 -11.151400 -28.010200
N -8.851900 -8.029700 -26.346400
C -8.680000 -9.321000 -26.339200
H -8.643300 -11.710800 -27.423500
N -8.211000 -10.018100 -25.288700
H -8.118000 -10.881300 -25.345700
H -7.999700 -9.605700 -24.552300
