22
Fragment
H -8.753900 -14.769900 -27.885200
H -8.635500 -16.045400 -27.091800
N -8.542500 -15.182300 -27.148900
H -8.110300 -16.875000 -25.014000
C -8.073500 -14.485100 -26.098300
N -7.901600 -13.193900 -26.091100
N -7.794600 -16.315500 -24.427300
C -7.717400 -15.000000 -24.797700
N -7.611300 -18.217200 -23.174800
O -7.439300 -12.873400 -24.817600
C -7.419300 -16.827200 -23.217400
N -7.341300 -14.019400 -24.034700
N -7.288900 -18.863500 -22.098700
N -6.967100 -16.043100 -22.279800
C -6.780600 -18.151600 -21.085300
N -6.640500 -16.779900 -21.169200
N -6.385400 -18.571000 -19.898100
C -6.143200 -16.378400 -19.982700
H -6.021400 -14.483400 -20.241800
N -5.985600 -17.464700 -19.203800
N -5.884000 -15.116900 -19.661500
H -5.577400 -14.923600 -18.870800
22
Fragment
H -5.391700 -9.759400 -18.584600
N -5.085100 -9.952800 -17.793800
N -4.983500 -12.300600 -18.251600
H -4.947700 -9.319200 -17.213600
C -4.825900 -11.214300 -17.472600
N -4.583700 -13.406900 -17.557300
N -4.328600 -11.615700 -16.286200
C -4.188500 -12.987400 -16.370100
N -4.002000 -10.878900 -15.175600
N -3.680200 -13.699400 -15.356700
N -3.627800 -8.855300 -13.420700
C -3.549800 -11.663000 -14.238000
O -3.529800 -7.709200 -12.637700
N -3.357800 -13.053000 -14.280500
C -3.251700 -9.835800 -12.657700
N -3.174500 -11.151400 -13.028000
N -3.067500 -8.029700 -11.364300
C -2.895600 -9.321000 -11.357100
H -2.858800 -11.710800 -12.441300
N -2.426500 -10.018100 -10.306500
H -2.333500 -10.881300 -10.363600
H -2.215200 -9.605700 -9.570100
44
Fragment
H -8.753900 -14.769900 -27.885200
H -8.635500 -16.045400 -27.091800
N -8.542500 -15.182300 -27.148900
H -8.110300 -16.875000 -25.014000
C -8.073500 -14.485100 -26.098300
N -7.901600 -13.193900 -26.091100
N -7.794600 -16.315500 -24.427300
C -7.717400 -15.000000 -24.797700
N -7.611300 -18.217200 -23.174800
O -7.439300 -12.873400 -24.817600
C -7.419300 -16.827200 -23.217400
N -7.341300 -14.019400 -24.034700
N -7.288900 -18.863500 -22.098700
N -6.967100 -16.043100 -22.279800
C -6.780600 -18.151600 -21.085300
N -6.640500 -16.779900 -21.169200
N -6.385400 -18.571000 -19.898100
C -6.143200 -16.378400 -19.982700
H -6.021400 -14.483400 -20.241800
N -5.985600 -17.464700 -19.203800
N -5.884000 -15.116900 -19.661500
H -5.577400 -14.923600 -18.870800
H -5.391700 -9.759400 -18.584600
N -5.085100 -9.952800 -17.793800
N -4.983500 -12.300600 -18.251600
H -4.947700 -9.319200 -17.213600
C -4.825900 -11.214300 -17.472600
N -4.583700 -13.406900 -17.557300
N -4.328600 -11.615700 -16.286200
C -4.188500 -12.987400 -16.370100
N -4.002000 -10.878900 -15.175600
N -3.680200 -13.699400 -15.356700
N -3.627800 -8.855300 -13.420700
C -3.549800 -11.663000 -14.238000
O -3.529800 -7.709200 -12.637700
N -3.357800 -13.053000 -14.280500
C -3.251700 -9.835800 -12.657700
N -3.174500 -11.151400 -13.028000
N -3.067500 -8.029700 -11.364300
C -2.895600 -9.321000 -11.357100
H -2.858800 -11.710800 -12.441300
N -2.426500 -10.018100 -10.306500
H -2.333500 -10.881300 -10.363600
H -2.215200 -9.605700 -9.570100
