22
Fragment
H -8.753900 -14.769900 -27.885200
H -8.635500 -16.045400 -27.091800
N -8.542500 -15.182300 -27.148900
H -8.110300 -16.875000 -25.014000
C -8.073500 -14.485100 -26.098300
N -7.901600 -13.193900 -26.091100
N -7.794600 -16.315500 -24.427300
C -7.717400 -15.000000 -24.797700
N -7.611300 -18.217200 -23.174800
O -7.439300 -12.873400 -24.817600
C -7.419300 -16.827200 -23.217400
N -7.341300 -14.019400 -24.034700
N -7.288900 -18.863500 -22.098700
N -6.967100 -16.043100 -22.279800
C -6.780600 -18.151600 -21.085300
N -6.640500 -16.779900 -21.169200
N -6.385400 -18.571000 -19.898100
C -6.143200 -16.378400 -19.982700
H -6.021400 -14.483400 -20.241800
N -5.985600 -17.464700 -19.203800
N -5.884000 -15.116900 -19.661500
H -5.577400 -14.923600 -18.870800
6
Fragment
H -7.166500 -11.736400 -21.353200
H -6.355600 -13.547200 -22.285900
C -6.239200 -11.810400 -21.627300
H -6.123100 -11.389700 -22.493400
O -5.882300 -13.173700 -21.715400
H -5.672600 -11.369900 -20.975000
28
Fragment
H -8.753900 -14.769900 -27.885200
H -8.635500 -16.045400 -27.091800
N -8.542500 -15.182300 -27.148900
H -8.110300 -16.875000 -25.014000
C -8.073500 -14.485100 -26.098300
N -7.901600 -13.193900 -26.091100
N -7.794600 -16.315500 -24.427300
C -7.717400 -15.000000 -24.797700
N -7.611300 -18.217200 -23.174800
O -7.439300 -12.873400 -24.817600
C -7.419300 -16.827200 -23.217400
N -7.341300 -14.019400 -24.034700
N -7.288900 -18.863500 -22.098700
N -6.967100 -16.043100 -22.279800
C -6.780600 -18.151600 -21.085300
N -6.640500 -16.779900 -21.169200
N -6.385400 -18.571000 -19.898100
C -6.143200 -16.378400 -19.982700
H -6.021400 -14.483400 -20.241800
N -5.985600 -17.464700 -19.203800
N -5.884000 -15.116900 -19.661500
H -5.577400 -14.923600 -18.870800
H -7.166500 -11.736400 -21.353200
H -6.355600 -13.547200 -22.285900
C -6.239200 -11.810400 -21.627300
H -6.123100 -11.389700 -22.493400
O -5.882300 -13.173700 -21.715400
H -5.672600 -11.369900 -20.975000
