22
Fragment
H -8.753900 -14.769900 -27.885200
H -8.635500 -16.045400 -27.091800
N -8.542500 -15.182300 -27.148900
H -8.110300 -16.875000 -25.014000
C -8.073500 -14.485100 -26.098300
N -7.901600 -13.193900 -26.091100
N -7.794600 -16.315500 -24.427300
C -7.717400 -15.000000 -24.797700
N -7.611300 -18.217200 -23.174800
O -7.439300 -12.873400 -24.817600
C -7.419300 -16.827200 -23.217400
N -7.341300 -14.019400 -24.034700
N -7.288900 -18.863500 -22.098700
N -6.967100 -16.043100 -22.279800
C -6.780600 -18.151600 -21.085300
N -6.640500 -16.779900 -21.169200
N -6.385400 -18.571000 -19.898100
C -6.143200 -16.378400 -19.982700
H -6.021400 -14.483400 -20.241800
N -5.985600 -17.464700 -19.203800
N -5.884000 -15.116900 -19.661500
H -5.577400 -14.923600 -18.870800
22
Fragment
H -9.353700 -21.379200 -20.394100
H -9.235400 -20.103600 -19.600700
N -9.142400 -20.966800 -19.657800
H -8.710100 -19.274100 -17.523000
C -8.673400 -21.663900 -18.607200
N -8.501400 -22.955200 -18.600000
N -8.394400 -19.833500 -16.936300
C -8.317200 -21.149100 -17.306600
N -8.211100 -17.931900 -15.683800
O -8.039100 -23.275700 -17.326600
C -8.019100 -19.321900 -15.726300
N -7.941100 -22.129600 -16.543600
N -7.888700 -17.285500 -14.607600
N -7.566900 -20.106000 -14.788700
C -7.380400 -17.997500 -13.594200
N -7.240300 -19.369200 -13.678100
N -6.985200 -17.578000 -12.407000
C -6.743000 -19.770600 -12.491700
H -6.621200 -21.665700 -12.750700
N -6.585400 -18.684300 -11.712700
N -6.483800 -21.032100 -12.170400
H -6.177200 -21.225500 -11.379700
44
Fragment
H -8.753900 -14.769900 -27.885200
H -8.635500 -16.045400 -27.091800
N -8.542500 -15.182300 -27.148900
H -8.110300 -16.875000 -25.014000
C -8.073500 -14.485100 -26.098300
N -7.901600 -13.193900 -26.091100
N -7.794600 -16.315500 -24.427300
C -7.717400 -15.000000 -24.797700
N -7.611300 -18.217200 -23.174800
O -7.439300 -12.873400 -24.817600
C -7.419300 -16.827200 -23.217400
N -7.341300 -14.019400 -24.034700
N -7.288900 -18.863500 -22.098700
N -6.967100 -16.043100 -22.279800
C -6.780600 -18.151600 -21.085300
N -6.640500 -16.779900 -21.169200
N -6.385400 -18.571000 -19.898100
C -6.143200 -16.378400 -19.982700
H -6.021400 -14.483400 -20.241800
N -5.985600 -17.464700 -19.203800
N -5.884000 -15.116900 -19.661500
H -5.577400 -14.923600 -18.870800
H -9.353700 -21.379200 -20.394100
H -9.235400 -20.103600 -19.600700
N -9.142400 -20.966800 -19.657800
H -8.710100 -19.274100 -17.523000
C -8.673400 -21.663900 -18.607200
N -8.501400 -22.955200 -18.600000
N -8.394400 -19.833500 -16.936300
C -8.317200 -21.149100 -17.306600
N -8.211100 -17.931900 -15.683800
O -8.039100 -23.275700 -17.326600
C -8.019100 -19.321900 -15.726300
N -7.941100 -22.129600 -16.543600
N -7.888700 -17.285500 -14.607600
N -7.566900 -20.106000 -14.788700
C -7.380400 -17.997500 -13.594200
N -7.240300 -19.369200 -13.678100
N -6.985200 -17.578000 -12.407000
C -6.743000 -19.770600 -12.491700
H -6.621200 -21.665700 -12.750700
N -6.585400 -18.684300 -11.712700
N -6.483800 -21.032100 -12.170400
H -6.177200 -21.225500 -11.379700
