37
Fragment
O -15.992100 -13.952300 -21.743400
O -15.451600 -12.525400 -23.293100
N -15.191800 -13.119000 -22.234700
H -15.006900 -14.386100 -17.672700
H -14.779300 -12.379200 -19.173800
N -14.347200 -13.134400 -19.139600
H -14.198700 -13.103600 -17.131300
C -14.192000 -13.809700 -17.839800
C -14.059300 -12.893000 -21.516300
O -13.895200 -12.117800 -14.487500
C -13.871700 -13.648200 -20.263700
H -13.788800 -15.955600 -16.470000
H -13.660700 -16.224200 -18.955300
N -13.252900 -14.788200 -20.273700
O -13.033200 -11.510500 -23.038900
N -12.997200 -12.139600 -21.966200
H -12.981500 -15.034200 -14.730300
C -12.962600 -15.577900 -19.081000
C -12.939900 -14.681100 -17.854100
C -12.917300 -15.577900 -16.627100
H -12.898400 -15.034200 -20.977800
N -12.882700 -12.139600 -13.741900
O -12.846700 -11.510500 -12.669200
N -12.627000 -14.788200 -15.434500
H -12.219200 -16.224200 -16.752800
H -12.091100 -15.955600 -19.238100
C -12.008200 -13.648200 -15.444500
O -11.984700 -12.117800 -21.220600
C -11.820600 -12.893000 -14.191800
C -11.687900 -13.809700 -17.868400
H -11.681200 -13.103600 -18.576800
N -11.532700 -13.134400 -16.568600
H -11.100600 -12.379200 -16.534300
H -10.873000 -14.386100 -18.035500
N -10.688100 -13.119000 -13.473400
O -10.428300 -12.525400 -12.415000
O -9.887800 -13.952300 -13.964700
37
Fragment
O -12.244300 -8.740200 -14.601800
O -11.703700 -10.167100 -16.151500
N -11.443900 -9.573500 -15.093100
H -11.259000 -8.306400 -10.531000
H -11.031400 -10.313300 -12.032200
N -10.599300 -9.558100 -11.997900
H -10.450800 -9.588900 -9.989700
C -10.444200 -8.882800 -10.698200
C -10.311400 -9.799500 -14.374700
O -10.147300 -10.574700 -7.345900
C -10.123900 -9.044300 -13.122000
H -10.040900 -6.736900 -9.328400
H -9.912800 -6.468300 -11.813700
N -9.505000 -7.904300 -13.132000
O -9.285300 -11.182000 -15.897300
N -9.249400 -10.552900 -14.824600
H -9.233600 -7.658300 -7.588700
C -9.214700 -7.114600 -11.939400
C -9.192100 -8.011400 -10.712400
C -9.169400 -7.114600 -9.485500
H -9.150500 -7.658300 -13.836200
N -9.134800 -10.552900 -6.600300
O -9.098800 -11.182000 -5.527600
N -8.879100 -7.904300 -8.292900
H -8.471300 -6.468300 -9.611200
H -8.343200 -6.736900 -12.096500
C -8.260300 -9.044300 -8.302900
O -8.236900 -10.574700 -14.079000
C -8.072700 -9.799500 -7.050200
C -7.940000 -8.882800 -10.726700
H -7.933300 -9.588900 -11.435200
N -7.784800 -9.558100 -9.426900
H -7.352700 -10.313300 -9.392700
H -7.125100 -8.306400 -10.893800
N -6.940200 -9.573500 -6.331800
O -6.680400 -10.167100 -5.273400
O -6.139900 -8.740200 -6.823100
74
Fragment
O -15.992100 -13.952300 -21.743400
O -15.451600 -12.525400 -23.293100
N -15.191800 -13.119000 -22.234700
H -15.006900 -14.386100 -17.672700
H -14.779300 -12.379200 -19.173800
N -14.347200 -13.134400 -19.139600
H -14.198700 -13.103600 -17.131300
C -14.192000 -13.809700 -17.839800
C -14.059300 -12.893000 -21.516300
O -13.895200 -12.117800 -14.487500
C -13.871700 -13.648200 -20.263700
H -13.788800 -15.955600 -16.470000
H -13.660700 -16.224200 -18.955300
N -13.252900 -14.788200 -20.273700
O -13.033200 -11.510500 -23.038900
N -12.997200 -12.139600 -21.966200
H -12.981500 -15.034200 -14.730300
C -12.962600 -15.577900 -19.081000
C -12.939900 -14.681100 -17.854100
C -12.917300 -15.577900 -16.627100
H -12.898400 -15.034200 -20.977800
N -12.882700 -12.139600 -13.741900
O -12.846700 -11.510500 -12.669200
N -12.627000 -14.788200 -15.434500
H -12.219200 -16.224200 -16.752800
H -12.091100 -15.955600 -19.238100
C -12.008200 -13.648200 -15.444500
O -11.984700 -12.117800 -21.220600
C -11.820600 -12.893000 -14.191800
C -11.687900 -13.809700 -17.868400
H -11.681200 -13.103600 -18.576800
N -11.532700 -13.134400 -16.568600
H -11.100600 -12.379200 -16.534300
H -10.873000 -14.386100 -18.035500
N -10.688100 -13.119000 -13.473400
O -10.428300 -12.525400 -12.415000
O -9.887800 -13.952300 -13.964700
O -12.244300 -8.740200 -14.601800
O -11.703700 -10.167100 -16.151500
N -11.443900 -9.573500 -15.093100
H -11.259000 -8.306400 -10.531000
H -11.031400 -10.313300 -12.032200
N -10.599300 -9.558100 -11.997900
H -10.450800 -9.588900 -9.989700
C -10.444200 -8.882800 -10.698200
C -10.311400 -9.799500 -14.374700
O -10.147300 -10.574700 -7.345900
C -10.123900 -9.044300 -13.122000
H -10.040900 -6.736900 -9.328400
H -9.912800 -6.468300 -11.813700
N -9.505000 -7.904300 -13.132000
O -9.285300 -11.182000 -15.897300
N -9.249400 -10.552900 -14.824600
H -9.233600 -7.658300 -7.588700
C -9.214700 -7.114600 -11.939400
C -9.192100 -8.011400 -10.712400
C -9.169400 -7.114600 -9.485500
H -9.150500 -7.658300 -13.836200
N -9.134800 -10.552900 -6.600300
O -9.098800 -11.182000 -5.527600
N -8.879100 -7.904300 -8.292900
H -8.471300 -6.468300 -9.611200
H -8.343200 -6.736900 -12.096500
C -8.260300 -9.044300 -8.302900
O -8.236900 -10.574700 -14.079000
C -8.072700 -9.799500 -7.050200
C -7.940000 -8.882800 -10.726700
H -7.933300 -9.588900 -11.435200
N -7.784800 -9.558100 -9.426900
H -7.352700 -10.313300 -9.392700
H -7.125100 -8.306400 -10.893800
N -6.940200 -9.573500 -6.331800
O -6.680400 -10.167100 -5.273400
O -6.139900 -8.740200 -6.823100
