37
Fragment
O -15.992100 -13.952300 -21.743400
O -15.451600 -12.525400 -23.293100
N -15.191800 -13.119000 -22.234700
H -15.006900 -14.386100 -17.672700
H -14.779300 -12.379200 -19.173800
N -14.347200 -13.134400 -19.139600
H -14.198700 -13.103600 -17.131300
C -14.192000 -13.809700 -17.839800
C -14.059300 -12.893000 -21.516300
O -13.895200 -12.117800 -14.487500
C -13.871700 -13.648200 -20.263700
H -13.788800 -15.955600 -16.470000
H -13.660700 -16.224200 -18.955300
N -13.252900 -14.788200 -20.273700
O -13.033200 -11.510500 -23.038900
N -12.997200 -12.139600 -21.966200
H -12.981500 -15.034200 -14.730300
C -12.962600 -15.577900 -19.081000
C -12.939900 -14.681100 -17.854100
C -12.917300 -15.577900 -16.627100
H -12.898400 -15.034200 -20.977800
N -12.882700 -12.139600 -13.741900
O -12.846700 -11.510500 -12.669200
N -12.627000 -14.788200 -15.434500
H -12.219200 -16.224200 -16.752800
H -12.091100 -15.955600 -19.238100
C -12.008200 -13.648200 -15.444500
O -11.984700 -12.117800 -21.220600
C -11.820600 -12.893000 -14.191800
C -11.687900 -13.809700 -17.868400
H -11.681200 -13.103600 -18.576800
N -11.532700 -13.134400 -16.568600
H -11.100600 -12.379200 -16.534300
H -10.873000 -14.386100 -18.035500
N -10.688100 -13.119000 -13.473400
O -10.428300 -12.525400 -12.415000
O -9.887800 -13.952300 -13.964700
37
Fragment
O -12.599500 -13.278700 -28.885000
O -12.059000 -14.705600 -30.434800
N -11.799100 -14.112000 -29.376400
H -11.614300 -12.844900 -24.814300
H -11.386700 -14.851800 -26.315500
N -10.954600 -14.096600 -26.281200
H -10.806100 -14.127400 -24.273000
C -10.799400 -13.421300 -24.981400
C -10.666600 -14.338000 -28.657900
O -10.502500 -15.113200 -21.629100
C -10.479100 -13.582800 -27.405300
H -10.396200 -11.275400 -23.611700
H -10.268100 -11.006800 -26.096900
N -9.860300 -12.442800 -27.415300
O -9.640600 -15.720500 -30.180500
N -9.604600 -15.091400 -29.107800
H -9.588900 -12.196800 -21.872000
C -9.570000 -11.653100 -26.222600
C -9.547300 -12.549900 -24.995700
C -9.524700 -11.653100 -23.768800
H -9.505800 -12.196800 -28.119400
N -9.490000 -15.091400 -20.883500
O -9.454100 -15.720500 -19.810900
N -9.234400 -12.442800 -22.576100
H -8.826600 -11.006800 -23.894500
H -8.698500 -11.275400 -26.379700
C -8.615500 -13.582800 -22.586100
O -8.592100 -15.113200 -28.362300
C -8.428000 -14.338000 -21.333500
C -8.295200 -13.421300 -25.010000
H -8.288600 -14.127400 -25.718400
N -8.140100 -14.096600 -23.710200
H -7.708000 -14.851800 -23.675900
H -7.480400 -12.844900 -25.177100
N -7.295500 -14.112000 -20.615000
O -7.035700 -14.705600 -19.556600
O -6.495100 -13.278700 -21.106400
74
Fragment
O -15.992100 -13.952300 -21.743400
O -15.451600 -12.525400 -23.293100
N -15.191800 -13.119000 -22.234700
H -15.006900 -14.386100 -17.672700
H -14.779300 -12.379200 -19.173800
N -14.347200 -13.134400 -19.139600
H -14.198700 -13.103600 -17.131300
C -14.192000 -13.809700 -17.839800
C -14.059300 -12.893000 -21.516300
O -13.895200 -12.117800 -14.487500
C -13.871700 -13.648200 -20.263700
H -13.788800 -15.955600 -16.470000
H -13.660700 -16.224200 -18.955300
N -13.252900 -14.788200 -20.273700
O -13.033200 -11.510500 -23.038900
N -12.997200 -12.139600 -21.966200
H -12.981500 -15.034200 -14.730300
C -12.962600 -15.577900 -19.081000
C -12.939900 -14.681100 -17.854100
C -12.917300 -15.577900 -16.627100
H -12.898400 -15.034200 -20.977800
N -12.882700 -12.139600 -13.741900
O -12.846700 -11.510500 -12.669200
N -12.627000 -14.788200 -15.434500
H -12.219200 -16.224200 -16.752800
H -12.091100 -15.955600 -19.238100
C -12.008200 -13.648200 -15.444500
O -11.984700 -12.117800 -21.220600
C -11.820600 -12.893000 -14.191800
C -11.687900 -13.809700 -17.868400
H -11.681200 -13.103600 -18.576800
N -11.532700 -13.134400 -16.568600
H -11.100600 -12.379200 -16.534300
H -10.873000 -14.386100 -18.035500
N -10.688100 -13.119000 -13.473400
O -10.428300 -12.525400 -12.415000
O -9.887800 -13.952300 -13.964700
O -12.599500 -13.278700 -28.885000
O -12.059000 -14.705600 -30.434800
N -11.799100 -14.112000 -29.376400
H -11.614300 -12.844900 -24.814300
H -11.386700 -14.851800 -26.315500
N -10.954600 -14.096600 -26.281200
H -10.806100 -14.127400 -24.273000
C -10.799400 -13.421300 -24.981400
C -10.666600 -14.338000 -28.657900
O -10.502500 -15.113200 -21.629100
C -10.479100 -13.582800 -27.405300
H -10.396200 -11.275400 -23.611700
H -10.268100 -11.006800 -26.096900
N -9.860300 -12.442800 -27.415300
O -9.640600 -15.720500 -30.180500
N -9.604600 -15.091400 -29.107800
H -9.588900 -12.196800 -21.872000
C -9.570000 -11.653100 -26.222600
C -9.547300 -12.549900 -24.995700
C -9.524700 -11.653100 -23.768800
H -9.505800 -12.196800 -28.119400
N -9.490000 -15.091400 -20.883500
O -9.454100 -15.720500 -19.810900
N -9.234400 -12.442800 -22.576100
H -8.826600 -11.006800 -23.894500
H -8.698500 -11.275400 -26.379700
C -8.615500 -13.582800 -22.586100
O -8.592100 -15.113200 -28.362300
C -8.428000 -14.338000 -21.333500
C -8.295200 -13.421300 -25.010000
H -8.288600 -14.127400 -25.718400
N -8.140100 -14.096600 -23.710200
H -7.708000 -14.851800 -23.675900
H -7.480400 -12.844900 -25.177100
N -7.295500 -14.112000 -20.615000
O -7.035700 -14.705600 -19.556600
O -6.495100 -13.278700 -21.106400
