36
Fragment
H -23.578900 -23.630500 -14.178200
H -22.820300 -19.521700 -18.745900
C -22.755200 -23.250900 -14.380400
H -22.628300 -23.975000 -16.266600
H -22.599200 -25.138400 -20.724600
H -22.491500 -22.329300 -12.609400
H -22.443900 -21.461300 -17.540700
C -22.179000 -23.463300 -15.633700
H -22.119700 -27.258700 -19.944700
C -22.103000 -22.477300 -13.441000
C -22.097000 -25.243900 -19.949200
C -21.988700 -19.936200 -18.784000
H -21.842100 -23.275300 -19.591000
C -21.812000 -26.510700 -19.485800
C -21.759500 -21.101700 -18.058500
C -21.639600 -24.123000 -19.268200
H -21.125800 -18.616900 -20.058100
C -21.060000 -26.659300 -18.324200
C -20.976300 -19.390800 -19.563800
C -20.938000 -22.916800 -15.943900
C -20.880100 -24.255100 -18.107400
C -20.868100 -21.920800 -13.736600
H -20.865100 -27.509700 -18.003200
C -20.602000 -25.543200 -17.646800
C -20.516300 -21.742000 -18.096400
H -20.429300 -21.398500 -13.105400
C -20.310500 -23.057000 -17.333800
C -20.285900 -22.148600 -14.986200
H -20.100400 -25.652800 -16.871500
C -19.732400 -20.019300 -19.596500
C -19.500500 -21.181300 -18.872800
H -19.452700 -21.782700 -15.179300
H -19.047400 -19.654800 -20.110600
O -18.906400 -23.287100 -17.109500
H -18.663600 -21.588300 -18.906400
H -18.574600 -23.765200 -17.764700
31
Fragment
O -17.437500 -17.680200 -15.802300
H -17.348900 -18.554100 -17.429200
H -16.761300 -19.074600 -18.825700
N -16.743000 -18.509300 -18.135600
N -16.337900 -17.074700 -15.643500
O -16.140800 -16.468200 -14.572800
C -15.584500 -17.846300 -17.873500
C -15.369500 -17.106600 -16.648400
H -14.717600 -18.364300 -19.614600
C -14.571300 -17.898800 -18.823000
H -14.429800 -15.591900 -14.726800
C -14.105800 -16.418000 -16.462500
N -13.823800 -15.663100 -15.385900
C -13.328500 -17.267000 -18.622500
H -13.294500 -18.427100 -20.979400
C -13.126500 -16.529400 -17.453700
H -13.096500 -16.913100 -21.335800
H -13.032000 -15.247500 -15.316300
C -12.661700 -17.692100 -20.954000
N -12.315700 -17.408100 -19.556000
H -12.312700 -16.097100 -17.330300
H -11.732800 -18.114800 -22.720500
C -11.464600 -18.045100 -21.791900
H -11.318600 -15.662300 -19.558400
H -11.121900 -18.909300 -21.513500
C -11.104800 -16.593700 -19.388800
H -10.794100 -16.666600 -18.472900
O -10.437300 -17.074300 -21.672600
C -10.002700 -17.030200 -20.324700
H -9.690200 -17.909600 -20.061700
H -9.257800 -16.414000 -20.250300
67
Fragment
H -23.578900 -23.630500 -14.178200
H -22.820300 -19.521700 -18.745900
C -22.755200 -23.250900 -14.380400
H -22.628300 -23.975000 -16.266600
H -22.599200 -25.138400 -20.724600
H -22.491500 -22.329300 -12.609400
H -22.443900 -21.461300 -17.540700
C -22.179000 -23.463300 -15.633700
H -22.119700 -27.258700 -19.944700
C -22.103000 -22.477300 -13.441000
C -22.097000 -25.243900 -19.949200
C -21.988700 -19.936200 -18.784000
H -21.842100 -23.275300 -19.591000
C -21.812000 -26.510700 -19.485800
C -21.759500 -21.101700 -18.058500
C -21.639600 -24.123000 -19.268200
H -21.125800 -18.616900 -20.058100
C -21.060000 -26.659300 -18.324200
C -20.976300 -19.390800 -19.563800
C -20.938000 -22.916800 -15.943900
C -20.880100 -24.255100 -18.107400
C -20.868100 -21.920800 -13.736600
H -20.865100 -27.509700 -18.003200
C -20.602000 -25.543200 -17.646800
C -20.516300 -21.742000 -18.096400
H -20.429300 -21.398500 -13.105400
C -20.310500 -23.057000 -17.333800
C -20.285900 -22.148600 -14.986200
H -20.100400 -25.652800 -16.871500
C -19.732400 -20.019300 -19.596500
C -19.500500 -21.181300 -18.872800
H -19.452700 -21.782700 -15.179300
H -19.047400 -19.654800 -20.110600
O -18.906400 -23.287100 -17.109500
H -18.663600 -21.588300 -18.906400
H -18.574600 -23.765200 -17.764700
O -17.437500 -17.680200 -15.802300
H -17.348900 -18.554100 -17.429200
H -16.761300 -19.074600 -18.825700
N -16.743000 -18.509300 -18.135600
N -16.337900 -17.074700 -15.643500
O -16.140800 -16.468200 -14.572800
C -15.584500 -17.846300 -17.873500
C -15.369500 -17.106600 -16.648400
H -14.717600 -18.364300 -19.614600
C -14.571300 -17.898800 -18.823000
H -14.429800 -15.591900 -14.726800
C -14.105800 -16.418000 -16.462500
N -13.823800 -15.663100 -15.385900
C -13.328500 -17.267000 -18.622500
H -13.294500 -18.427100 -20.979400
C -13.126500 -16.529400 -17.453700
H -13.096500 -16.913100 -21.335800
H -13.032000 -15.247500 -15.316300
C -12.661700 -17.692100 -20.954000
N -12.315700 -17.408100 -19.556000
H -12.312700 -16.097100 -17.330300
H -11.732800 -18.114800 -22.720500
C -11.464600 -18.045100 -21.791900
H -11.318600 -15.662300 -19.558400
H -11.121900 -18.909300 -21.513500
C -11.104800 -16.593700 -19.388800
H -10.794100 -16.666600 -18.472900
O -10.437300 -17.074300 -21.672600
C -10.002700 -17.030200 -20.324700
H -9.690200 -17.909600 -20.061700
H -9.257800 -16.414000 -20.250300
