36
Fragment
H -23.578900 -23.630500 -14.178200
H -22.820300 -19.521700 -18.745900
C -22.755200 -23.250900 -14.380400
H -22.628300 -23.975000 -16.266600
H -22.599200 -25.138400 -20.724600
H -22.491500 -22.329300 -12.609400
H -22.443900 -21.461300 -17.540700
C -22.179000 -23.463300 -15.633700
H -22.119700 -27.258700 -19.944700
C -22.103000 -22.477300 -13.441000
C -22.097000 -25.243900 -19.949200
C -21.988700 -19.936200 -18.784000
H -21.842100 -23.275300 -19.591000
C -21.812000 -26.510700 -19.485800
C -21.759500 -21.101700 -18.058500
C -21.639600 -24.123000 -19.268200
H -21.125800 -18.616900 -20.058100
C -21.060000 -26.659300 -18.324200
C -20.976300 -19.390800 -19.563800
C -20.938000 -22.916800 -15.943900
C -20.880100 -24.255100 -18.107400
C -20.868100 -21.920800 -13.736600
H -20.865100 -27.509700 -18.003200
C -20.602000 -25.543200 -17.646800
C -20.516300 -21.742000 -18.096400
H -20.429300 -21.398500 -13.105400
C -20.310500 -23.057000 -17.333800
C -20.285900 -22.148600 -14.986200
H -20.100400 -25.652800 -16.871500
C -19.732400 -20.019300 -19.596500
C -19.500500 -21.181300 -18.872800
H -19.452700 -21.782700 -15.179300
H -19.047400 -19.654800 -20.110600
O -18.906400 -23.287100 -17.109500
H -18.663600 -21.588300 -18.906400
H -18.574600 -23.765200 -17.764700
36
Fragment
H -22.691400 -14.641200 -18.712300
H -21.932900 -18.750100 -23.280000
C -21.867800 -15.020900 -18.914500
H -21.740800 -14.296800 -20.800700
H -21.711800 -13.133300 -25.258700
H -21.604100 -15.942500 -17.143500
H -21.556500 -16.810500 -22.074800
C -21.291600 -14.808400 -20.167800
H -21.232300 -11.013100 -24.478800
C -21.215600 -15.794400 -17.975100
C -21.209500 -13.027900 -24.483400
C -21.101300 -18.335500 -23.318100
H -20.954700 -14.996400 -24.125200
C -20.924500 -11.761100 -24.020000
C -20.872100 -17.170100 -22.592600
C -20.752200 -14.148800 -23.802300
H -20.238400 -19.654800 -24.592200
C -20.172600 -11.612400 -22.858300
C -20.088900 -18.881000 -24.098000
C -20.050600 -15.354900 -20.478000
C -19.992700 -14.016600 -22.641500
C -19.980700 -16.350900 -18.270700
H -19.977700 -10.762000 -22.537300
C -19.714600 -12.728600 -22.180900
C -19.628900 -16.529700 -22.630500
H -19.541900 -16.873200 -17.639600
C -19.423100 -15.214700 -21.867900
C -19.398500 -16.123100 -19.520300
H -19.213000 -12.619000 -21.405600
C -18.844900 -18.252400 -24.130600
C -18.613100 -17.090500 -23.407000
H -18.565300 -16.489000 -19.713500
H -18.160000 -18.616900 -24.644800
O -18.019000 -14.984600 -21.643600
H -17.776200 -16.683400 -23.440500
H -17.687200 -14.506500 -22.298800
72
Fragment
H -23.578900 -23.630500 -14.178200
H -22.820300 -19.521700 -18.745900
C -22.755200 -23.250900 -14.380400
H -22.628300 -23.975000 -16.266600
H -22.599200 -25.138400 -20.724600
H -22.491500 -22.329300 -12.609400
H -22.443900 -21.461300 -17.540700
C -22.179000 -23.463300 -15.633700
H -22.119700 -27.258700 -19.944700
C -22.103000 -22.477300 -13.441000
C -22.097000 -25.243900 -19.949200
C -21.988700 -19.936200 -18.784000
H -21.842100 -23.275300 -19.591000
C -21.812000 -26.510700 -19.485800
C -21.759500 -21.101700 -18.058500
C -21.639600 -24.123000 -19.268200
H -21.125800 -18.616900 -20.058100
C -21.060000 -26.659300 -18.324200
C -20.976300 -19.390800 -19.563800
C -20.938000 -22.916800 -15.943900
C -20.880100 -24.255100 -18.107400
C -20.868100 -21.920800 -13.736600
H -20.865100 -27.509700 -18.003200
C -20.602000 -25.543200 -17.646800
C -20.516300 -21.742000 -18.096400
H -20.429300 -21.398500 -13.105400
C -20.310500 -23.057000 -17.333800
C -20.285900 -22.148600 -14.986200
H -20.100400 -25.652800 -16.871500
C -19.732400 -20.019300 -19.596500
C -19.500500 -21.181300 -18.872800
H -19.452700 -21.782700 -15.179300
H -19.047400 -19.654800 -20.110600
O -18.906400 -23.287100 -17.109500
H -18.663600 -21.588300 -18.906400
H -18.574600 -23.765200 -17.764700
H -22.691400 -14.641200 -18.712300
H -21.932900 -18.750100 -23.280000
C -21.867800 -15.020900 -18.914500
H -21.740800 -14.296800 -20.800700
H -21.711800 -13.133300 -25.258700
H -21.604100 -15.942500 -17.143500
H -21.556500 -16.810500 -22.074800
C -21.291600 -14.808400 -20.167800
H -21.232300 -11.013100 -24.478800
C -21.215600 -15.794400 -17.975100
C -21.209500 -13.027900 -24.483400
C -21.101300 -18.335500 -23.318100
H -20.954700 -14.996400 -24.125200
C -20.924500 -11.761100 -24.020000
C -20.872100 -17.170100 -22.592600
C -20.752200 -14.148800 -23.802300
H -20.238400 -19.654800 -24.592200
C -20.172600 -11.612400 -22.858300
C -20.088900 -18.881000 -24.098000
C -20.050600 -15.354900 -20.478000
C -19.992700 -14.016600 -22.641500
C -19.980700 -16.350900 -18.270700
H -19.977700 -10.762000 -22.537300
C -19.714600 -12.728600 -22.180900
C -19.628900 -16.529700 -22.630500
H -19.541900 -16.873200 -17.639600
C -19.423100 -15.214700 -21.867900
C -19.398500 -16.123100 -19.520300
H -19.213000 -12.619000 -21.405600
C -18.844900 -18.252400 -24.130600
C -18.613100 -17.090500 -23.407000
H -18.565300 -16.489000 -19.713500
H -18.160000 -18.616900 -24.644800
O -18.019000 -14.984600 -21.643600
H -17.776200 -16.683400 -23.440500
H -17.687200 -14.506500 -22.298800
