36
Fragment
H -23.578900 -23.630500 -14.178200
H -22.820300 -19.521700 -18.745900
C -22.755200 -23.250900 -14.380400
H -22.628300 -23.975000 -16.266600
H -22.599200 -25.138400 -20.724600
H -22.491500 -22.329300 -12.609400
H -22.443900 -21.461300 -17.540700
C -22.179000 -23.463300 -15.633700
H -22.119700 -27.258700 -19.944700
C -22.103000 -22.477300 -13.441000
C -22.097000 -25.243900 -19.949200
C -21.988700 -19.936200 -18.784000
H -21.842100 -23.275300 -19.591000
C -21.812000 -26.510700 -19.485800
C -21.759500 -21.101700 -18.058500
C -21.639600 -24.123000 -19.268200
H -21.125800 -18.616900 -20.058100
C -21.060000 -26.659300 -18.324200
C -20.976300 -19.390800 -19.563800
C -20.938000 -22.916800 -15.943900
C -20.880100 -24.255100 -18.107400
C -20.868100 -21.920800 -13.736600
H -20.865100 -27.509700 -18.003200
C -20.602000 -25.543200 -17.646800
C -20.516300 -21.742000 -18.096400
H -20.429300 -21.398500 -13.105400
C -20.310500 -23.057000 -17.333800
C -20.285900 -22.148600 -14.986200
H -20.100400 -25.652800 -16.871500
C -19.732400 -20.019300 -19.596500
C -19.500500 -21.181300 -18.872800
H -19.452700 -21.782700 -15.179300
H -19.047400 -19.654800 -20.110600
O -18.906400 -23.287100 -17.109500
H -18.663600 -21.588300 -18.906400
H -18.574600 -23.765200 -17.764700
36
Fragment
H -25.353700 -23.630500 -5.110000
H -24.595200 -19.521700 -9.677600
C -24.530100 -23.250900 -5.312200
H -24.403100 -23.975000 -7.198400
H -24.374100 -25.138400 -11.656300
H -24.266400 -22.329300 -3.541100
H -24.218800 -21.461300 -8.472500
C -23.953900 -23.463300 -6.565400
H -23.894500 -27.258700 -10.876500
C -23.877900 -22.477300 -4.372700
C -23.871800 -25.243900 -10.881000
C -23.763600 -19.936200 -9.715700
H -23.617000 -23.275300 -10.522800
C -23.586800 -26.510700 -10.417600
C -23.534400 -21.101700 -8.990300
C -23.414500 -24.123000 -10.200000
H -22.900600 -18.616900 -10.989800
C -22.834900 -26.659300 -9.256000
C -22.751200 -19.390800 -10.495600
C -22.712800 -22.916800 -6.875600
C -22.655000 -24.255100 -9.039100
C -22.642900 -21.920800 -4.668300
H -22.640000 -27.509700 -8.934900
C -22.376800 -25.543200 -8.578600
C -22.291200 -21.742000 -9.028200
H -22.204200 -21.398500 -4.037200
C -22.085400 -23.057000 -8.265500
C -22.060800 -22.148600 -5.917900
H -21.875300 -25.652800 -7.803200
C -21.507200 -20.019300 -10.528200
C -21.275300 -21.181300 -9.804600
H -21.227500 -21.782700 -6.111100
H -20.822300 -19.654800 -11.042400
O -20.681200 -23.287100 -8.041300
H -20.438500 -21.588300 -9.838100
H -20.349500 -23.765200 -8.696400
72
Fragment
H -23.578900 -23.630500 -14.178200
H -22.820300 -19.521700 -18.745900
C -22.755200 -23.250900 -14.380400
H -22.628300 -23.975000 -16.266600
H -22.599200 -25.138400 -20.724600
H -22.491500 -22.329300 -12.609400
H -22.443900 -21.461300 -17.540700
C -22.179000 -23.463300 -15.633700
H -22.119700 -27.258700 -19.944700
C -22.103000 -22.477300 -13.441000
C -22.097000 -25.243900 -19.949200
C -21.988700 -19.936200 -18.784000
H -21.842100 -23.275300 -19.591000
C -21.812000 -26.510700 -19.485800
C -21.759500 -21.101700 -18.058500
C -21.639600 -24.123000 -19.268200
H -21.125800 -18.616900 -20.058100
C -21.060000 -26.659300 -18.324200
C -20.976300 -19.390800 -19.563800
C -20.938000 -22.916800 -15.943900
C -20.880100 -24.255100 -18.107400
C -20.868100 -21.920800 -13.736600
H -20.865100 -27.509700 -18.003200
C -20.602000 -25.543200 -17.646800
C -20.516300 -21.742000 -18.096400
H -20.429300 -21.398500 -13.105400
C -20.310500 -23.057000 -17.333800
C -20.285900 -22.148600 -14.986200
H -20.100400 -25.652800 -16.871500
C -19.732400 -20.019300 -19.596500
C -19.500500 -21.181300 -18.872800
H -19.452700 -21.782700 -15.179300
H -19.047400 -19.654800 -20.110600
O -18.906400 -23.287100 -17.109500
H -18.663600 -21.588300 -18.906400
H -18.574600 -23.765200 -17.764700
H -25.353700 -23.630500 -5.110000
H -24.595200 -19.521700 -9.677600
C -24.530100 -23.250900 -5.312200
H -24.403100 -23.975000 -7.198400
H -24.374100 -25.138400 -11.656300
H -24.266400 -22.329300 -3.541100
H -24.218800 -21.461300 -8.472500
C -23.953900 -23.463300 -6.565400
H -23.894500 -27.258700 -10.876500
C -23.877900 -22.477300 -4.372700
C -23.871800 -25.243900 -10.881000
C -23.763600 -19.936200 -9.715700
H -23.617000 -23.275300 -10.522800
C -23.586800 -26.510700 -10.417600
C -23.534400 -21.101700 -8.990300
C -23.414500 -24.123000 -10.200000
H -22.900600 -18.616900 -10.989800
C -22.834900 -26.659300 -9.256000
C -22.751200 -19.390800 -10.495600
C -22.712800 -22.916800 -6.875600
C -22.655000 -24.255100 -9.039100
C -22.642900 -21.920800 -4.668300
H -22.640000 -27.509700 -8.934900
C -22.376800 -25.543200 -8.578600
C -22.291200 -21.742000 -9.028200
H -22.204200 -21.398500 -4.037200
C -22.085400 -23.057000 -8.265500
C -22.060800 -22.148600 -5.917900
H -21.875300 -25.652800 -7.803200
C -21.507200 -20.019300 -10.528200
C -21.275300 -21.181300 -9.804600
H -21.227500 -21.782700 -6.111100
H -20.822300 -19.654800 -11.042400
O -20.681200 -23.287100 -8.041300
H -20.438500 -21.588300 -9.838100
H -20.349500 -23.765200 -8.696400
