36
Fragment
H -23.578900 -23.630500 -14.178200
H -22.820300 -19.521700 -18.745900
C -22.755200 -23.250900 -14.380400
H -22.628300 -23.975000 -16.266600
H -22.599200 -25.138400 -20.724600
H -22.491500 -22.329300 -12.609400
H -22.443900 -21.461300 -17.540700
C -22.179000 -23.463300 -15.633700
H -22.119700 -27.258700 -19.944700
C -22.103000 -22.477300 -13.441000
C -22.097000 -25.243900 -19.949200
C -21.988700 -19.936200 -18.784000
H -21.842100 -23.275300 -19.591000
C -21.812000 -26.510700 -19.485800
C -21.759500 -21.101700 -18.058500
C -21.639600 -24.123000 -19.268200
H -21.125800 -18.616900 -20.058100
C -21.060000 -26.659300 -18.324200
C -20.976300 -19.390800 -19.563800
C -20.938000 -22.916800 -15.943900
C -20.880100 -24.255100 -18.107400
C -20.868100 -21.920800 -13.736600
H -20.865100 -27.509700 -18.003200
C -20.602000 -25.543200 -17.646800
C -20.516300 -21.742000 -18.096400
H -20.429300 -21.398500 -13.105400
C -20.310500 -23.057000 -17.333800
C -20.285900 -22.148600 -14.986200
H -20.100400 -25.652800 -16.871500
C -19.732400 -20.019300 -19.596500
C -19.500500 -21.181300 -18.872800
H -19.452700 -21.782700 -15.179300
H -19.047400 -19.654800 -20.110600
O -18.906400 -23.287100 -17.109500
H -18.663600 -21.588300 -18.906400
H -18.574600 -23.765200 -17.764700
36
Fragment
H -30.286000 -22.160900 -9.440000
H -30.196900 -24.337800 -8.298400
O -29.954200 -22.639000 -10.095200
H -29.813100 -26.271300 -7.094100
H -29.407900 -24.143400 -12.025400
C -29.360100 -24.744800 -8.331900
C -29.128200 -25.906800 -7.608300
H -28.760100 -20.273300 -10.333300
C -28.574600 -23.777500 -12.218600
C -28.550100 -22.869100 -9.871000
H -28.431200 -24.527600 -14.099300
C -28.344200 -24.184100 -9.108300
C -28.258600 -20.382900 -9.557900
H -27.995500 -18.416400 -9.201500
C -27.992500 -24.005300 -13.468200
C -27.980400 -21.671000 -9.097400
C -27.922600 -23.009300 -11.260900
C -27.884200 -26.535300 -7.640900
C -27.800500 -19.266800 -8.880500
H -27.734800 -27.309200 -7.146700
C -27.220900 -21.803100 -7.936500
C -27.101000 -24.824400 -9.146200
C -27.048600 -19.415400 -7.718900
H -27.018400 -22.650800 -7.613700
C -26.871800 -25.989900 -8.420800
C -26.763600 -20.682200 -7.255500
C -26.757500 -23.448800 -13.763800
H -26.740900 -18.667400 -7.260000
C -26.681500 -22.462800 -11.571100
H -26.416600 -24.464800 -9.664000
H -26.369000 -23.596800 -14.595300
H -26.261300 -20.787700 -6.480200
H -26.232300 -21.951100 -10.938100
C -26.105300 -22.675200 -12.824300
H -26.040200 -26.404400 -8.458900
H -25.281700 -22.295600 -13.026500
72
Fragment
H -23.578900 -23.630500 -14.178200
H -22.820300 -19.521700 -18.745900
C -22.755200 -23.250900 -14.380400
H -22.628300 -23.975000 -16.266600
H -22.599200 -25.138400 -20.724600
H -22.491500 -22.329300 -12.609400
H -22.443900 -21.461300 -17.540700
C -22.179000 -23.463300 -15.633700
H -22.119700 -27.258700 -19.944700
C -22.103000 -22.477300 -13.441000
C -22.097000 -25.243900 -19.949200
C -21.988700 -19.936200 -18.784000
H -21.842100 -23.275300 -19.591000
C -21.812000 -26.510700 -19.485800
C -21.759500 -21.101700 -18.058500
C -21.639600 -24.123000 -19.268200
H -21.125800 -18.616900 -20.058100
C -21.060000 -26.659300 -18.324200
C -20.976300 -19.390800 -19.563800
C -20.938000 -22.916800 -15.943900
C -20.880100 -24.255100 -18.107400
C -20.868100 -21.920800 -13.736600
H -20.865100 -27.509700 -18.003200
C -20.602000 -25.543200 -17.646800
C -20.516300 -21.742000 -18.096400
H -20.429300 -21.398500 -13.105400
C -20.310500 -23.057000 -17.333800
C -20.285900 -22.148600 -14.986200
H -20.100400 -25.652800 -16.871500
C -19.732400 -20.019300 -19.596500
C -19.500500 -21.181300 -18.872800
H -19.452700 -21.782700 -15.179300
H -19.047400 -19.654800 -20.110600
O -18.906400 -23.287100 -17.109500
H -18.663600 -21.588300 -18.906400
H -18.574600 -23.765200 -17.764700
H -30.286000 -22.160900 -9.440000
H -30.196900 -24.337800 -8.298400
O -29.954200 -22.639000 -10.095200
H -29.813100 -26.271300 -7.094100
H -29.407900 -24.143400 -12.025400
C -29.360100 -24.744800 -8.331900
C -29.128200 -25.906800 -7.608300
H -28.760100 -20.273300 -10.333300
C -28.574600 -23.777500 -12.218600
C -28.550100 -22.869100 -9.871000
H -28.431200 -24.527600 -14.099300
C -28.344200 -24.184100 -9.108300
C -28.258600 -20.382900 -9.557900
H -27.995500 -18.416400 -9.201500
C -27.992500 -24.005300 -13.468200
C -27.980400 -21.671000 -9.097400
C -27.922600 -23.009300 -11.260900
C -27.884200 -26.535300 -7.640900
C -27.800500 -19.266800 -8.880500
H -27.734800 -27.309200 -7.146700
C -27.220900 -21.803100 -7.936500
C -27.101000 -24.824400 -9.146200
C -27.048600 -19.415400 -7.718900
H -27.018400 -22.650800 -7.613700
C -26.871800 -25.989900 -8.420800
C -26.763600 -20.682200 -7.255500
C -26.757500 -23.448800 -13.763800
H -26.740900 -18.667400 -7.260000
C -26.681500 -22.462800 -11.571100
H -26.416600 -24.464800 -9.664000
H -26.369000 -23.596800 -14.595300
H -26.261300 -20.787700 -6.480200
H -26.232300 -21.951100 -10.938100
C -26.105300 -22.675200 -12.824300
H -26.040200 -26.404400 -8.458900
H -25.281700 -22.295600 -13.026500
