36
Fragment
H -23.578900 -23.630500 -14.178200
H -22.820300 -19.521700 -18.745900
C -22.755200 -23.250900 -14.380400
H -22.628300 -23.975000 -16.266600
H -22.599200 -25.138400 -20.724600
H -22.491500 -22.329300 -12.609400
H -22.443900 -21.461300 -17.540700
C -22.179000 -23.463300 -15.633700
H -22.119700 -27.258700 -19.944700
C -22.103000 -22.477300 -13.441000
C -22.097000 -25.243900 -19.949200
C -21.988700 -19.936200 -18.784000
H -21.842100 -23.275300 -19.591000
C -21.812000 -26.510700 -19.485800
C -21.759500 -21.101700 -18.058500
C -21.639600 -24.123000 -19.268200
H -21.125800 -18.616900 -20.058100
C -21.060000 -26.659300 -18.324200
C -20.976300 -19.390800 -19.563800
C -20.938000 -22.916800 -15.943900
C -20.880100 -24.255100 -18.107400
C -20.868100 -21.920800 -13.736600
H -20.865100 -27.509700 -18.003200
C -20.602000 -25.543200 -17.646800
C -20.516300 -21.742000 -18.096400
H -20.429300 -21.398500 -13.105400
C -20.310500 -23.057000 -17.333800
C -20.285900 -22.148600 -14.986200
H -20.100400 -25.652800 -16.871500
C -19.732400 -20.019300 -19.596500
C -19.500500 -21.181300 -18.872800
H -19.452700 -21.782700 -15.179300
H -19.047400 -19.654800 -20.110600
O -18.906400 -23.287100 -17.109500
H -18.663600 -21.588300 -18.906400
H -18.574600 -23.765200 -17.764700
36
Fragment
H -21.804000 -23.630500 -23.246400
H -21.045500 -19.521700 -27.814100
C -20.980400 -23.250900 -23.448700
H -20.853400 -23.975000 -25.334900
H -20.824400 -25.138400 -29.792800
H -20.716700 -22.329300 -21.677600
H -20.669100 -21.461300 -26.609000
C -20.404200 -23.463300 -24.701900
H -20.344900 -27.258700 -29.012900
C -20.328200 -22.477300 -22.509200
C -20.322100 -25.243900 -29.017500
C -20.213900 -19.936200 -27.852200
H -20.067300 -23.275300 -28.659300
C -20.037100 -26.510700 -28.554100
C -19.984700 -21.101700 -27.126700
C -19.864800 -24.123000 -28.336500
H -19.351000 -18.616900 -29.126300
C -19.285200 -26.659300 -27.392400
C -19.201500 -19.390800 -28.632100
C -19.163100 -22.916800 -25.012100
C -19.105300 -24.255100 -27.175600
C -19.093200 -21.920800 -22.804800
H -19.090300 -27.509700 -27.071400
C -18.827100 -25.543200 -26.715000
C -18.741500 -21.742000 -27.164700
H -18.654500 -21.398500 -22.173700
C -18.535700 -23.057000 -26.402000
C -18.511100 -22.148600 -24.054400
H -18.325600 -25.652800 -25.939700
C -17.957500 -20.019300 -28.664700
C -17.725600 -21.181300 -27.941100
H -17.677800 -21.782700 -24.247600
H -17.272600 -19.654800 -29.178900
O -17.131500 -23.287100 -26.177800
H -16.888800 -21.588300 -27.974600
H -16.799800 -23.765200 -26.832900
72
Fragment
H -23.578900 -23.630500 -14.178200
H -22.820300 -19.521700 -18.745900
C -22.755200 -23.250900 -14.380400
H -22.628300 -23.975000 -16.266600
H -22.599200 -25.138400 -20.724600
H -22.491500 -22.329300 -12.609400
H -22.443900 -21.461300 -17.540700
C -22.179000 -23.463300 -15.633700
H -22.119700 -27.258700 -19.944700
C -22.103000 -22.477300 -13.441000
C -22.097000 -25.243900 -19.949200
C -21.988700 -19.936200 -18.784000
H -21.842100 -23.275300 -19.591000
C -21.812000 -26.510700 -19.485800
C -21.759500 -21.101700 -18.058500
C -21.639600 -24.123000 -19.268200
H -21.125800 -18.616900 -20.058100
C -21.060000 -26.659300 -18.324200
C -20.976300 -19.390800 -19.563800
C -20.938000 -22.916800 -15.943900
C -20.880100 -24.255100 -18.107400
C -20.868100 -21.920800 -13.736600
H -20.865100 -27.509700 -18.003200
C -20.602000 -25.543200 -17.646800
C -20.516300 -21.742000 -18.096400
H -20.429300 -21.398500 -13.105400
C -20.310500 -23.057000 -17.333800
C -20.285900 -22.148600 -14.986200
H -20.100400 -25.652800 -16.871500
C -19.732400 -20.019300 -19.596500
C -19.500500 -21.181300 -18.872800
H -19.452700 -21.782700 -15.179300
H -19.047400 -19.654800 -20.110600
O -18.906400 -23.287100 -17.109500
H -18.663600 -21.588300 -18.906400
H -18.574600 -23.765200 -17.764700
H -21.804000 -23.630500 -23.246400
H -21.045500 -19.521700 -27.814100
C -20.980400 -23.250900 -23.448700
H -20.853400 -23.975000 -25.334900
H -20.824400 -25.138400 -29.792800
H -20.716700 -22.329300 -21.677600
H -20.669100 -21.461300 -26.609000
C -20.404200 -23.463300 -24.701900
H -20.344900 -27.258700 -29.012900
C -20.328200 -22.477300 -22.509200
C -20.322100 -25.243900 -29.017500
C -20.213900 -19.936200 -27.852200
H -20.067300 -23.275300 -28.659300
C -20.037100 -26.510700 -28.554100
C -19.984700 -21.101700 -27.126700
C -19.864800 -24.123000 -28.336500
H -19.351000 -18.616900 -29.126300
C -19.285200 -26.659300 -27.392400
C -19.201500 -19.390800 -28.632100
C -19.163100 -22.916800 -25.012100
C -19.105300 -24.255100 -27.175600
C -19.093200 -21.920800 -22.804800
H -19.090300 -27.509700 -27.071400
C -18.827100 -25.543200 -26.715000
C -18.741500 -21.742000 -27.164700
H -18.654500 -21.398500 -22.173700
C -18.535700 -23.057000 -26.402000
C -18.511100 -22.148600 -24.054400
H -18.325600 -25.652800 -25.939700
C -17.957500 -20.019300 -28.664700
C -17.725600 -21.181300 -27.941100
H -17.677800 -21.782700 -24.247600
H -17.272600 -19.654800 -29.178900
O -17.131500 -23.287100 -26.177800
H -16.888800 -21.588300 -27.974600
H -16.799800 -23.765200 -26.832900
