26
Fragment
H -17.420700 -14.622900 -28.619300
H -16.864500 -13.206800 -26.827300
C -16.702000 -14.008200 -28.713100
C -16.360900 -13.170400 -27.631700
H -16.274700 -14.498300 -30.629800
C -16.012400 -13.949700 -29.900100
C -15.305100 -12.304600 -27.740400
H -15.086100 -11.734300 -27.012600
C -14.912100 -13.071200 -30.034300
C -14.540000 -12.254000 -28.928400
N -14.239800 -13.040600 -31.230400
C -13.409300 -11.413200 -29.077400
C -13.197600 -12.230200 -31.319900
H -13.116100 -10.870600 -28.355000
H -12.847200 -12.707000 -33.362500
C -12.746300 -11.391400 -30.267200
C -12.496800 -12.232400 -32.618000
H -11.994300 -10.824000 -30.390400
H -11.853600 -12.547900 -35.387500
N -11.402600 -11.575800 -32.709600
C -11.074200 -12.046500 -35.179400
N -10.757700 -11.559600 -33.937100
N -10.143800 -11.718700 -36.035000
C -9.569800 -10.913000 -34.097800
N -9.175500 -10.991400 -35.335300
H -9.096300 -10.468300 -33.404100
26
Fragment
H -22.401300 -10.468300 -18.627200
N -22.322100 -10.991400 -16.696000
C -21.927800 -10.913000 -17.933500
N -21.353800 -11.718700 -15.996300
N -20.739900 -11.559600 -18.094200
C -20.423500 -12.046500 -16.851900
N -20.095000 -11.575800 -19.321700
H -19.644100 -12.547900 -16.643800
H -19.503400 -10.824000 -21.640900
C -19.000900 -12.232400 -19.413300
C -18.751300 -11.391400 -21.764100
H -18.650400 -12.707000 -18.668800
H -18.381500 -10.870600 -23.676300
C -18.300100 -12.230200 -20.711400
C -18.088300 -11.413200 -22.953900
N -17.257800 -13.040600 -20.800900
C -16.957600 -12.254000 -23.102900
C -16.585500 -13.071200 -21.997000
H -16.411500 -11.734300 -25.018700
C -16.192600 -12.304600 -24.290900
C -15.485300 -13.949700 -22.131200
H -15.222900 -14.498300 -21.401500
C -15.136700 -13.170400 -24.399500
C -14.795600 -14.008200 -23.318100
H -14.633100 -13.206800 -25.204000
H -14.076900 -14.622900 -23.412000
52
Fragment
H -17.420700 -14.622900 -28.619300
H -16.864500 -13.206800 -26.827300
C -16.702000 -14.008200 -28.713100
C -16.360900 -13.170400 -27.631700
H -16.274700 -14.498300 -30.629800
C -16.012400 -13.949700 -29.900100
C -15.305100 -12.304600 -27.740400
H -15.086100 -11.734300 -27.012600
C -14.912100 -13.071200 -30.034300
C -14.540000 -12.254000 -28.928400
N -14.239800 -13.040600 -31.230400
C -13.409300 -11.413200 -29.077400
C -13.197600 -12.230200 -31.319900
H -13.116100 -10.870600 -28.355000
H -12.847200 -12.707000 -33.362500
C -12.746300 -11.391400 -30.267200
C -12.496800 -12.232400 -32.618000
H -11.994300 -10.824000 -30.390400
H -11.853600 -12.547900 -35.387500
N -11.402600 -11.575800 -32.709600
C -11.074200 -12.046500 -35.179400
N -10.757700 -11.559600 -33.937100
N -10.143800 -11.718700 -36.035000
C -9.569800 -10.913000 -34.097800
N -9.175500 -10.991400 -35.335300
H -9.096300 -10.468300 -33.404100
H -22.401300 -10.468300 -18.627200
N -22.322100 -10.991400 -16.696000
C -21.927800 -10.913000 -17.933500
N -21.353800 -11.718700 -15.996300
N -20.739900 -11.559600 -18.094200
C -20.423500 -12.046500 -16.851900
N -20.095000 -11.575800 -19.321700
H -19.644100 -12.547900 -16.643800
H -19.503400 -10.824000 -21.640900
C -19.000900 -12.232400 -19.413300
C -18.751300 -11.391400 -21.764100
H -18.650400 -12.707000 -18.668800
H -18.381500 -10.870600 -23.676300
C -18.300100 -12.230200 -20.711400
C -18.088300 -11.413200 -22.953900
N -17.257800 -13.040600 -20.800900
C -16.957600 -12.254000 -23.102900
C -16.585500 -13.071200 -21.997000
H -16.411500 -11.734300 -25.018700
C -16.192600 -12.304600 -24.290900
C -15.485300 -13.949700 -22.131200
H -15.222900 -14.498300 -21.401500
C -15.136700 -13.170400 -24.399500
C -14.795600 -14.008200 -23.318100
H -14.633100 -13.206800 -25.204000
H -14.076900 -14.622900 -23.412000
