26
Fragment
H -17.420700 -14.622900 -28.619300
H -16.864500 -13.206800 -26.827300
C -16.702000 -14.008200 -28.713100
C -16.360900 -13.170400 -27.631700
H -16.274700 -14.498300 -30.629800
C -16.012400 -13.949700 -29.900100
C -15.305100 -12.304600 -27.740400
H -15.086100 -11.734300 -27.012600
C -14.912100 -13.071200 -30.034300
C -14.540000 -12.254000 -28.928400
N -14.239800 -13.040600 -31.230400
C -13.409300 -11.413200 -29.077400
C -13.197600 -12.230200 -31.319900
H -13.116100 -10.870600 -28.355000
H -12.847200 -12.707000 -33.362500
C -12.746300 -11.391400 -30.267200
C -12.496800 -12.232400 -32.618000
H -11.994300 -10.824000 -30.390400
H -11.853600 -12.547900 -35.387500
N -11.402600 -11.575800 -32.709600
C -11.074200 -12.046500 -35.179400
N -10.757700 -11.559600 -33.937100
N -10.143800 -11.718700 -36.035000
C -9.569800 -10.913000 -34.097800
N -9.175500 -10.991400 -35.335300
H -9.096300 -10.468300 -33.404100
26
Fragment
H -19.353900 -7.891200 -18.213000
H -18.797700 -9.307300 -16.421100
C -18.635200 -8.505900 -18.306900
C -18.294100 -9.343700 -17.225500
H -18.207900 -8.015800 -20.223500
C -17.945600 -8.564400 -19.493800
C -17.238200 -10.209500 -17.334100
H -17.019300 -10.779800 -16.606300
C -16.845300 -9.442900 -19.628100
C -16.473200 -10.260100 -18.522100
N -16.173000 -9.473500 -20.824200
C -15.342500 -11.100900 -18.671100
C -15.130800 -10.283900 -20.913700
H -15.049300 -11.643500 -17.948700
H -14.780400 -9.807100 -22.956200
C -14.679500 -11.122700 -19.861000
C -14.429900 -10.281700 -22.211700
H -13.927500 -11.690100 -19.984200
H -13.786700 -9.966200 -24.981300
N -13.335800 -10.938300 -22.303300
C -13.007400 -10.467600 -24.773100
N -12.690900 -10.954500 -23.530800
N -12.077000 -10.795400 -25.628700
C -11.503000 -11.601100 -23.691500
N -11.108700 -11.522700 -24.929000
H -11.029500 -12.045800 -22.997800
52
Fragment
H -17.420700 -14.622900 -28.619300
H -16.864500 -13.206800 -26.827300
C -16.702000 -14.008200 -28.713100
C -16.360900 -13.170400 -27.631700
H -16.274700 -14.498300 -30.629800
C -16.012400 -13.949700 -29.900100
C -15.305100 -12.304600 -27.740400
H -15.086100 -11.734300 -27.012600
C -14.912100 -13.071200 -30.034300
C -14.540000 -12.254000 -28.928400
N -14.239800 -13.040600 -31.230400
C -13.409300 -11.413200 -29.077400
C -13.197600 -12.230200 -31.319900
H -13.116100 -10.870600 -28.355000
H -12.847200 -12.707000 -33.362500
C -12.746300 -11.391400 -30.267200
C -12.496800 -12.232400 -32.618000
H -11.994300 -10.824000 -30.390400
H -11.853600 -12.547900 -35.387500
N -11.402600 -11.575800 -32.709600
C -11.074200 -12.046500 -35.179400
N -10.757700 -11.559600 -33.937100
N -10.143800 -11.718700 -36.035000
C -9.569800 -10.913000 -34.097800
N -9.175500 -10.991400 -35.335300
H -9.096300 -10.468300 -33.404100
H -19.353900 -7.891200 -18.213000
H -18.797700 -9.307300 -16.421100
C -18.635200 -8.505900 -18.306900
C -18.294100 -9.343700 -17.225500
H -18.207900 -8.015800 -20.223500
C -17.945600 -8.564400 -19.493800
C -17.238200 -10.209500 -17.334100
H -17.019300 -10.779800 -16.606300
C -16.845300 -9.442900 -19.628100
C -16.473200 -10.260100 -18.522100
N -16.173000 -9.473500 -20.824200
C -15.342500 -11.100900 -18.671100
C -15.130800 -10.283900 -20.913700
H -15.049300 -11.643500 -17.948700
H -14.780400 -9.807100 -22.956200
C -14.679500 -11.122700 -19.861000
C -14.429900 -10.281700 -22.211700
H -13.927500 -11.690100 -19.984200
H -13.786700 -9.966200 -24.981300
N -13.335800 -10.938300 -22.303300
C -13.007400 -10.467600 -24.773100
N -12.690900 -10.954500 -23.530800
N -12.077000 -10.795400 -25.628700
C -11.503000 -11.601100 -23.691500
N -11.108700 -11.522700 -24.929000
H -11.029500 -12.045800 -22.997800
