26
Fragment
H -17.420700 -14.622900 -28.619300
H -16.864500 -13.206800 -26.827300
C -16.702000 -14.008200 -28.713100
C -16.360900 -13.170400 -27.631700
H -16.274700 -14.498300 -30.629800
C -16.012400 -13.949700 -29.900100
C -15.305100 -12.304600 -27.740400
H -15.086100 -11.734300 -27.012600
C -14.912100 -13.071200 -30.034300
C -14.540000 -12.254000 -28.928400
N -14.239800 -13.040600 -31.230400
C -13.409300 -11.413200 -29.077400
C -13.197600 -12.230200 -31.319900
H -13.116100 -10.870600 -28.355000
H -12.847200 -12.707000 -33.362500
C -12.746300 -11.391400 -30.267200
C -12.496800 -12.232400 -32.618000
H -11.994300 -10.824000 -30.390400
H -11.853600 -12.547900 -35.387500
N -11.402600 -11.575800 -32.709600
C -11.074200 -12.046500 -35.179400
N -10.757700 -11.559600 -33.937100
N -10.143800 -11.718700 -36.035000
C -9.569800 -10.913000 -34.097800
N -9.175500 -10.991400 -35.335300
H -9.096300 -10.468300 -33.404100
26
Fragment
H -24.281300 -18.375300 -28.619300
H -23.725100 -16.959100 -26.827300
C -23.562600 -17.760500 -28.713100
C -23.221500 -16.922800 -27.631700
H -23.135300 -18.250700 -30.629800
C -22.873000 -17.702000 -29.900100
C -22.165700 -16.057000 -27.740400
H -21.946700 -15.486700 -27.012600
C -21.772700 -16.823500 -30.034300
C -21.400600 -16.006400 -28.928400
N -21.100400 -16.793000 -31.230400
C -20.269900 -15.165600 -29.077400
C -20.058200 -15.982500 -31.319900
H -19.976700 -14.622900 -28.355000
H -19.707800 -16.459300 -33.362500
C -19.606900 -15.143700 -30.267200
C -19.357400 -15.984800 -32.618000
H -18.854900 -14.576400 -30.390400
H -18.714200 -16.300200 -35.387500
N -18.263200 -15.328100 -32.709600
C -17.934800 -15.798800 -35.179400
N -17.618300 -15.312000 -33.937100
N -17.004400 -15.471000 -36.035000
C -16.430400 -14.665400 -34.097800
N -16.036100 -14.743700 -35.335300
H -15.956900 -14.220700 -33.404100
52
Fragment
H -17.420700 -14.622900 -28.619300
H -16.864500 -13.206800 -26.827300
C -16.702000 -14.008200 -28.713100
C -16.360900 -13.170400 -27.631700
H -16.274700 -14.498300 -30.629800
C -16.012400 -13.949700 -29.900100
C -15.305100 -12.304600 -27.740400
H -15.086100 -11.734300 -27.012600
C -14.912100 -13.071200 -30.034300
C -14.540000 -12.254000 -28.928400
N -14.239800 -13.040600 -31.230400
C -13.409300 -11.413200 -29.077400
C -13.197600 -12.230200 -31.319900
H -13.116100 -10.870600 -28.355000
H -12.847200 -12.707000 -33.362500
C -12.746300 -11.391400 -30.267200
C -12.496800 -12.232400 -32.618000
H -11.994300 -10.824000 -30.390400
H -11.853600 -12.547900 -35.387500
N -11.402600 -11.575800 -32.709600
C -11.074200 -12.046500 -35.179400
N -10.757700 -11.559600 -33.937100
N -10.143800 -11.718700 -36.035000
C -9.569800 -10.913000 -34.097800
N -9.175500 -10.991400 -35.335300
H -9.096300 -10.468300 -33.404100
H -24.281300 -18.375300 -28.619300
H -23.725100 -16.959100 -26.827300
C -23.562600 -17.760500 -28.713100
C -23.221500 -16.922800 -27.631700
H -23.135300 -18.250700 -30.629800
C -22.873000 -17.702000 -29.900100
C -22.165700 -16.057000 -27.740400
H -21.946700 -15.486700 -27.012600
C -21.772700 -16.823500 -30.034300
C -21.400600 -16.006400 -28.928400
N -21.100400 -16.793000 -31.230400
C -20.269900 -15.165600 -29.077400
C -20.058200 -15.982500 -31.319900
H -19.976700 -14.622900 -28.355000
H -19.707800 -16.459300 -33.362500
C -19.606900 -15.143700 -30.267200
C -19.357400 -15.984800 -32.618000
H -18.854900 -14.576400 -30.390400
H -18.714200 -16.300200 -35.387500
N -18.263200 -15.328100 -32.709600
C -17.934800 -15.798800 -35.179400
N -17.618300 -15.312000 -33.937100
N -17.004400 -15.471000 -36.035000
C -16.430400 -14.665400 -34.097800
N -16.036100 -14.743700 -35.335300
H -15.956900 -14.220700 -33.404100
