26
Fragment
H -17.420700 -14.622900 -28.619300
H -16.864500 -13.206800 -26.827300
C -16.702000 -14.008200 -28.713100
C -16.360900 -13.170400 -27.631700
H -16.274700 -14.498300 -30.629800
C -16.012400 -13.949700 -29.900100
C -15.305100 -12.304600 -27.740400
H -15.086100 -11.734300 -27.012600
C -14.912100 -13.071200 -30.034300
C -14.540000 -12.254000 -28.928400
N -14.239800 -13.040600 -31.230400
C -13.409300 -11.413200 -29.077400
C -13.197600 -12.230200 -31.319900
H -13.116100 -10.870600 -28.355000
H -12.847200 -12.707000 -33.362500
C -12.746300 -11.391400 -30.267200
C -12.496800 -12.232400 -32.618000
H -11.994300 -10.824000 -30.390400
H -11.853600 -12.547900 -35.387500
N -11.402600 -11.575800 -32.709600
C -11.074200 -12.046500 -35.179400
N -10.757700 -11.559600 -33.937100
N -10.143800 -11.718700 -36.035000
C -9.569800 -10.913000 -34.097800
N -9.175500 -10.991400 -35.335300
H -9.096300 -10.468300 -33.404100
26
Fragment
H -13.607500 -15.798100 -29.033500
N -13.528300 -15.275100 -27.102300
C -13.134000 -15.353400 -28.339800
N -12.560000 -14.547800 -26.402500
N -11.946100 -14.706800 -28.500400
C -11.629700 -14.220000 -27.258100
N -11.301200 -14.690700 -29.728000
H -10.850300 -13.718600 -27.050000
H -10.709600 -15.442400 -32.047100
C -10.207100 -14.034000 -29.819500
C -9.957500 -14.875100 -32.170300
H -9.856600 -13.559500 -29.075100
H -9.587700 -15.395900 -34.082600
C -9.506300 -14.036300 -31.117600
C -9.294500 -14.853200 -33.360200
N -8.464000 -13.225800 -31.207100
C -8.163800 -14.012400 -33.509200
C -7.791700 -13.195300 -32.403200
H -7.617700 -14.532100 -35.425000
C -7.398800 -13.961800 -34.697200
C -6.691500 -12.316800 -32.537400
H -6.429100 -11.768100 -31.807800
C -6.342900 -13.096000 -34.805800
C -6.001800 -12.258300 -33.724400
H -5.839300 -13.059700 -35.610200
H -5.283100 -11.643500 -33.818300
52
Fragment
H -17.420700 -14.622900 -28.619300
H -16.864500 -13.206800 -26.827300
C -16.702000 -14.008200 -28.713100
C -16.360900 -13.170400 -27.631700
H -16.274700 -14.498300 -30.629800
C -16.012400 -13.949700 -29.900100
C -15.305100 -12.304600 -27.740400
H -15.086100 -11.734300 -27.012600
C -14.912100 -13.071200 -30.034300
C -14.540000 -12.254000 -28.928400
N -14.239800 -13.040600 -31.230400
C -13.409300 -11.413200 -29.077400
C -13.197600 -12.230200 -31.319900
H -13.116100 -10.870600 -28.355000
H -12.847200 -12.707000 -33.362500
C -12.746300 -11.391400 -30.267200
C -12.496800 -12.232400 -32.618000
H -11.994300 -10.824000 -30.390400
H -11.853600 -12.547900 -35.387500
N -11.402600 -11.575800 -32.709600
C -11.074200 -12.046500 -35.179400
N -10.757700 -11.559600 -33.937100
N -10.143800 -11.718700 -36.035000
C -9.569800 -10.913000 -34.097800
N -9.175500 -10.991400 -35.335300
H -9.096300 -10.468300 -33.404100
H -13.607500 -15.798100 -29.033500
N -13.528300 -15.275100 -27.102300
C -13.134000 -15.353400 -28.339800
N -12.560000 -14.547800 -26.402500
N -11.946100 -14.706800 -28.500400
C -11.629700 -14.220000 -27.258100
N -11.301200 -14.690700 -29.728000
H -10.850300 -13.718600 -27.050000
H -10.709600 -15.442400 -32.047100
C -10.207100 -14.034000 -29.819500
C -9.957500 -14.875100 -32.170300
H -9.856600 -13.559500 -29.075100
H -9.587700 -15.395900 -34.082600
C -9.506300 -14.036300 -31.117600
C -9.294500 -14.853200 -33.360200
N -8.464000 -13.225800 -31.207100
C -8.163800 -14.012400 -33.509200
C -7.791700 -13.195300 -32.403200
H -7.617700 -14.532100 -35.425000
C -7.398800 -13.961800 -34.697200
C -6.691500 -12.316800 -32.537400
H -6.429100 -11.768100 -31.807800
C -6.342900 -13.096000 -34.805800
C -6.001800 -12.258300 -33.724400
H -5.839300 -13.059700 -35.610200
H -5.283100 -11.643500 -33.818300
