26
Fragment
H -17.420700 -14.622900 -28.619300
H -16.864500 -13.206800 -26.827300
C -16.702000 -14.008200 -28.713100
C -16.360900 -13.170400 -27.631700
H -16.274700 -14.498300 -30.629800
C -16.012400 -13.949700 -29.900100
C -15.305100 -12.304600 -27.740400
H -15.086100 -11.734300 -27.012600
C -14.912100 -13.071200 -30.034300
C -14.540000 -12.254000 -28.928400
N -14.239800 -13.040600 -31.230400
C -13.409300 -11.413200 -29.077400
C -13.197600 -12.230200 -31.319900
H -13.116100 -10.870600 -28.355000
H -12.847200 -12.707000 -33.362500
C -12.746300 -11.391400 -30.267200
C -12.496800 -12.232400 -32.618000
H -11.994300 -10.824000 -30.390400
H -11.853600 -12.547900 -35.387500
N -11.402600 -11.575800 -32.709600
C -11.074200 -12.046500 -35.179400
N -10.757700 -11.559600 -33.937100
N -10.143800 -11.718700 -36.035000
C -9.569800 -10.913000 -34.097800
N -9.175500 -10.991400 -35.335300
H -9.096300 -10.468300 -33.404100
26
Fragment
H -10.560100 -10.870600 -28.619300
H -10.003900 -9.454400 -26.827300
C -9.841400 -10.255800 -28.713100
C -9.500300 -9.418100 -27.631700
H -9.414100 -10.746000 -30.629800
C -9.151800 -10.197300 -29.900100
C -8.444500 -8.552300 -27.740400
H -8.225500 -7.982000 -27.012600
C -8.051500 -9.318800 -30.034300
C -7.679400 -8.501700 -28.928400
N -7.379200 -9.288300 -31.230400
C -6.548700 -7.660900 -29.077400
C -6.337000 -8.477800 -31.319900
H -6.255500 -7.118200 -28.355000
H -5.986600 -8.954600 -33.362500
C -5.885700 -7.639000 -30.267200
C -5.636200 -8.480100 -32.618000
H -5.133700 -7.071700 -30.390400
H -4.993000 -8.795500 -35.387500
N -4.542000 -7.823400 -32.709600
C -4.213600 -8.294100 -35.179400
N -3.897100 -7.807300 -33.937100
N -3.283200 -7.966300 -36.035000
C -2.709200 -7.160700 -34.097800
N -2.314900 -7.239000 -35.335300
H -2.235700 -6.716000 -33.404100
52
Fragment
H -17.420700 -14.622900 -28.619300
H -16.864500 -13.206800 -26.827300
C -16.702000 -14.008200 -28.713100
C -16.360900 -13.170400 -27.631700
H -16.274700 -14.498300 -30.629800
C -16.012400 -13.949700 -29.900100
C -15.305100 -12.304600 -27.740400
H -15.086100 -11.734300 -27.012600
C -14.912100 -13.071200 -30.034300
C -14.540000 -12.254000 -28.928400
N -14.239800 -13.040600 -31.230400
C -13.409300 -11.413200 -29.077400
C -13.197600 -12.230200 -31.319900
H -13.116100 -10.870600 -28.355000
H -12.847200 -12.707000 -33.362500
C -12.746300 -11.391400 -30.267200
C -12.496800 -12.232400 -32.618000
H -11.994300 -10.824000 -30.390400
H -11.853600 -12.547900 -35.387500
N -11.402600 -11.575800 -32.709600
C -11.074200 -12.046500 -35.179400
N -10.757700 -11.559600 -33.937100
N -10.143800 -11.718700 -36.035000
C -9.569800 -10.913000 -34.097800
N -9.175500 -10.991400 -35.335300
H -9.096300 -10.468300 -33.404100
H -10.560100 -10.870600 -28.619300
H -10.003900 -9.454400 -26.827300
C -9.841400 -10.255800 -28.713100
C -9.500300 -9.418100 -27.631700
H -9.414100 -10.746000 -30.629800
C -9.151800 -10.197300 -29.900100
C -8.444500 -8.552300 -27.740400
H -8.225500 -7.982000 -27.012600
C -8.051500 -9.318800 -30.034300
C -7.679400 -8.501700 -28.928400
N -7.379200 -9.288300 -31.230400
C -6.548700 -7.660900 -29.077400
C -6.337000 -8.477800 -31.319900
H -6.255500 -7.118200 -28.355000
H -5.986600 -8.954600 -33.362500
C -5.885700 -7.639000 -30.267200
C -5.636200 -8.480100 -32.618000
H -5.133700 -7.071700 -30.390400
H -4.993000 -8.795500 -35.387500
N -4.542000 -7.823400 -32.709600
C -4.213600 -8.294100 -35.179400
N -3.897100 -7.807300 -33.937100
N -3.283200 -7.966300 -36.035000
C -2.709200 -7.160700 -34.097800
N -2.314900 -7.239000 -35.335300
H -2.235700 -6.716000 -33.404100
