24
Fragment
H -10.422300 -26.378900 -12.655700
H -10.388900 -32.194200 -10.849600
H -10.167400 -32.593900 -12.217600
C -9.712800 -32.673800 -11.415700
H -9.514200 -33.593100 -11.152900
C -9.467700 -26.213000 -12.524300
O -9.429000 -29.994000 -11.907000
H -9.292100 -25.559500 -11.894200
H -9.074400 -25.759400 -13.268900
H -9.061000 -28.257400 -12.345700
N -8.671500 -27.418000 -12.335600
N -8.461400 -31.942400 -11.391500
C -8.390300 -30.647500 -11.690700
H -7.739700 -32.354100 -11.206800
C -7.379800 -27.386100 -12.082200
C -7.044500 -30.043900 -11.778300
O -6.739600 -26.310900 -12.000000
C -6.651600 -28.663100 -11.925200
C -5.882800 -30.761400 -11.719600
H -5.742900 -31.674600 -11.584200
C -5.284800 -28.667000 -11.950800
N -4.830300 -29.924000 -11.832200
H -4.720500 -27.957600 -12.069400
H -3.961000 -30.175800 -11.833500
24
Fragment
H -11.270900 -29.776200 -15.122100
H -10.511400 -31.994400 -14.886200
N -10.401600 -30.028000 -15.123500
C -9.947100 -31.285000 -15.004900
H -9.489000 -28.277400 -15.371500
C -9.349100 -29.190600 -15.236000
C -8.580200 -31.288900 -15.030500
O -8.492300 -33.641100 -14.955700
C -8.187300 -29.908100 -15.177400
C -7.852000 -32.565900 -14.873400
H -7.492100 -27.597900 -15.748800
C -6.841500 -29.304500 -15.265000
N -6.770400 -28.009600 -15.564200
N -6.560300 -32.534000 -14.620100
H -6.170800 -31.694600 -14.610000
H -6.157400 -34.192600 -13.686700
H -5.939700 -34.392500 -15.061500
O -5.802800 -29.958000 -15.048700
C -5.764200 -33.739000 -14.431400
H -5.717700 -26.358900 -15.802700
C -5.519100 -27.278200 -15.539900
H -5.064400 -27.358100 -14.738000
H -4.842900 -27.757800 -16.106000
H -4.809500 -33.573100 -14.300000
48
Fragment
H -10.422300 -26.378900 -12.655700
H -10.388900 -32.194200 -10.849600
H -10.167400 -32.593900 -12.217600
C -9.712800 -32.673800 -11.415700
H -9.514200 -33.593100 -11.152900
C -9.467700 -26.213000 -12.524300
O -9.429000 -29.994000 -11.907000
H -9.292100 -25.559500 -11.894200
H -9.074400 -25.759400 -13.268900
H -9.061000 -28.257400 -12.345700
N -8.671500 -27.418000 -12.335600
N -8.461400 -31.942400 -11.391500
C -8.390300 -30.647500 -11.690700
H -7.739700 -32.354100 -11.206800
C -7.379800 -27.386100 -12.082200
C -7.044500 -30.043900 -11.778300
O -6.739600 -26.310900 -12.000000
C -6.651600 -28.663100 -11.925200
C -5.882800 -30.761400 -11.719600
H -5.742900 -31.674600 -11.584200
C -5.284800 -28.667000 -11.950800
N -4.830300 -29.924000 -11.832200
H -4.720500 -27.957600 -12.069400
H -3.961000 -30.175800 -11.833500
H -11.270900 -29.776200 -15.122100
H -10.511400 -31.994400 -14.886200
N -10.401600 -30.028000 -15.123500
C -9.947100 -31.285000 -15.004900
H -9.489000 -28.277400 -15.371500
C -9.349100 -29.190600 -15.236000
C -8.580200 -31.288900 -15.030500
O -8.492300 -33.641100 -14.955700
C -8.187300 -29.908100 -15.177400
C -7.852000 -32.565900 -14.873400
H -7.492100 -27.597900 -15.748800
C -6.841500 -29.304500 -15.265000
N -6.770400 -28.009600 -15.564200
N -6.560300 -32.534000 -14.620100
H -6.170800 -31.694600 -14.610000
H -6.157400 -34.192600 -13.686700
H -5.939700 -34.392500 -15.061500
O -5.802800 -29.958000 -15.048700
C -5.764200 -33.739000 -14.431400
H -5.717700 -26.358900 -15.802700
C -5.519100 -27.278200 -15.539900
H -5.064400 -27.358100 -14.738000
H -4.842900 -27.757800 -16.106000
H -4.809500 -33.573100 -14.300000
