24
Fragment
H -10.422300 -26.378900 -12.655700
H -10.388900 -32.194200 -10.849600
H -10.167400 -32.593900 -12.217600
C -9.712800 -32.673800 -11.415700
H -9.514200 -33.593100 -11.152900
C -9.467700 -26.213000 -12.524300
O -9.429000 -29.994000 -11.907000
H -9.292100 -25.559500 -11.894200
H -9.074400 -25.759400 -13.268900
H -9.061000 -28.257400 -12.345700
N -8.671500 -27.418000 -12.335600
N -8.461400 -31.942400 -11.391500
C -8.390300 -30.647500 -11.690700
H -7.739700 -32.354100 -11.206800
C -7.379800 -27.386100 -12.082200
C -7.044500 -30.043900 -11.778300
O -6.739600 -26.310900 -12.000000
C -6.651600 -28.663100 -11.925200
C -5.882800 -30.761400 -11.719600
H -5.742900 -31.674600 -11.584200
C -5.284800 -28.667000 -11.950800
N -4.830300 -29.924000 -11.832200
H -4.720500 -27.957600 -12.069400
H -3.961000 -30.175800 -11.833500
24
Fragment
H -7.462900 -29.776200 -8.383200
H -6.703400 -31.994400 -8.147300
N -6.593600 -30.028000 -8.384600
C -6.139100 -31.285000 -8.265900
H -5.681000 -28.277400 -8.632500
C -5.541100 -29.190600 -8.497100
C -4.772200 -31.288900 -8.291600
O -4.684300 -33.641100 -8.216800
C -4.379400 -29.908100 -8.438500
C -4.044100 -32.565900 -8.134500
H -3.684100 -27.597900 -9.009900
C -3.033500 -29.304500 -8.526100
N -2.962500 -28.009600 -8.825300
N -2.752400 -32.534000 -7.881200
H -2.362800 -31.694600 -7.871000
H -2.349500 -34.192600 -6.947800
H -2.131700 -34.392500 -8.322600
O -1.994900 -29.958000 -8.309700
C -1.956200 -33.739000 -7.692500
H -1.909700 -26.358900 -9.063800
C -1.711100 -27.278200 -8.801000
H -1.256500 -27.358100 -7.999100
H -1.034900 -27.757800 -9.367100
H -1.001600 -33.573100 -7.561100
48
Fragment
H -10.422300 -26.378900 -12.655700
H -10.388900 -32.194200 -10.849600
H -10.167400 -32.593900 -12.217600
C -9.712800 -32.673800 -11.415700
H -9.514200 -33.593100 -11.152900
C -9.467700 -26.213000 -12.524300
O -9.429000 -29.994000 -11.907000
H -9.292100 -25.559500 -11.894200
H -9.074400 -25.759400 -13.268900
H -9.061000 -28.257400 -12.345700
N -8.671500 -27.418000 -12.335600
N -8.461400 -31.942400 -11.391500
C -8.390300 -30.647500 -11.690700
H -7.739700 -32.354100 -11.206800
C -7.379800 -27.386100 -12.082200
C -7.044500 -30.043900 -11.778300
O -6.739600 -26.310900 -12.000000
C -6.651600 -28.663100 -11.925200
C -5.882800 -30.761400 -11.719600
H -5.742900 -31.674600 -11.584200
C -5.284800 -28.667000 -11.950800
N -4.830300 -29.924000 -11.832200
H -4.720500 -27.957600 -12.069400
H -3.961000 -30.175800 -11.833500
H -7.462900 -29.776200 -8.383200
H -6.703400 -31.994400 -8.147300
N -6.593600 -30.028000 -8.384600
C -6.139100 -31.285000 -8.265900
H -5.681000 -28.277400 -8.632500
C -5.541100 -29.190600 -8.497100
C -4.772200 -31.288900 -8.291600
O -4.684300 -33.641100 -8.216800
C -4.379400 -29.908100 -8.438500
C -4.044100 -32.565900 -8.134500
H -3.684100 -27.597900 -9.009900
C -3.033500 -29.304500 -8.526100
N -2.962500 -28.009600 -8.825300
N -2.752400 -32.534000 -7.881200
H -2.362800 -31.694600 -7.871000
H -2.349500 -34.192600 -6.947800
H -2.131700 -34.392500 -8.322600
O -1.994900 -29.958000 -8.309700
C -1.956200 -33.739000 -7.692500
H -1.909700 -26.358900 -9.063800
C -1.711100 -27.278200 -8.801000
H -1.256500 -27.358100 -7.999100
H -1.034900 -27.757800 -9.367100
H -1.001600 -33.573100 -7.561100
