24
Fragment
H -10.422300 -26.378900 -12.655700
H -10.388900 -32.194200 -10.849600
H -10.167400 -32.593900 -12.217600
C -9.712800 -32.673800 -11.415700
H -9.514200 -33.593100 -11.152900
C -9.467700 -26.213000 -12.524300
O -9.429000 -29.994000 -11.907000
H -9.292100 -25.559500 -11.894200
H -9.074400 -25.759400 -13.268900
H -9.061000 -28.257400 -12.345700
N -8.671500 -27.418000 -12.335600
N -8.461400 -31.942400 -11.391500
C -8.390300 -30.647500 -11.690700
H -7.739700 -32.354100 -11.206800
C -7.379800 -27.386100 -12.082200
C -7.044500 -30.043900 -11.778300
O -6.739600 -26.310900 -12.000000
C -6.651600 -28.663100 -11.925200
C -5.882800 -30.761400 -11.719600
H -5.742900 -31.674600 -11.584200
C -5.284800 -28.667000 -11.950800
N -4.830300 -29.924000 -11.832200
H -4.720500 -27.957600 -12.069400
H -3.961000 -30.175800 -11.833500
24
Fragment
H -12.326300 -23.581100 -16.025100
H -12.292900 -17.765800 -14.219100
H -12.071400 -17.366100 -15.587100
C -11.616800 -17.286200 -14.785200
H -11.418200 -16.366900 -14.522300
C -11.371700 -23.747000 -15.893700
O -11.333000 -19.966000 -15.276400
H -11.196100 -24.400500 -15.263600
H -10.978400 -24.200600 -16.638400
H -10.965000 -21.702600 -15.715100
N -10.575500 -22.542000 -15.705000
N -10.365400 -18.017600 -14.760900
C -10.294300 -19.312500 -15.060100
H -9.643700 -17.605900 -14.576300
C -9.283800 -22.573900 -15.451600
C -8.948500 -19.916100 -15.147700
O -8.643600 -23.649100 -15.369400
C -8.555600 -21.296900 -15.294600
C -7.786800 -19.198600 -15.089100
H -7.646900 -18.285400 -14.953600
C -7.188800 -21.293000 -15.320200
N -6.734300 -20.036000 -15.201600
H -6.624400 -22.002400 -15.438800
H -5.865000 -19.784200 -15.203000
48
Fragment
H -10.422300 -26.378900 -12.655700
H -10.388900 -32.194200 -10.849600
H -10.167400 -32.593900 -12.217600
C -9.712800 -32.673800 -11.415700
H -9.514200 -33.593100 -11.152900
C -9.467700 -26.213000 -12.524300
O -9.429000 -29.994000 -11.907000
H -9.292100 -25.559500 -11.894200
H -9.074400 -25.759400 -13.268900
H -9.061000 -28.257400 -12.345700
N -8.671500 -27.418000 -12.335600
N -8.461400 -31.942400 -11.391500
C -8.390300 -30.647500 -11.690700
H -7.739700 -32.354100 -11.206800
C -7.379800 -27.386100 -12.082200
C -7.044500 -30.043900 -11.778300
O -6.739600 -26.310900 -12.000000
C -6.651600 -28.663100 -11.925200
C -5.882800 -30.761400 -11.719600
H -5.742900 -31.674600 -11.584200
C -5.284800 -28.667000 -11.950800
N -4.830300 -29.924000 -11.832200
H -4.720500 -27.957600 -12.069400
H -3.961000 -30.175800 -11.833500
H -12.326300 -23.581100 -16.025100
H -12.292900 -17.765800 -14.219100
H -12.071400 -17.366100 -15.587100
C -11.616800 -17.286200 -14.785200
H -11.418200 -16.366900 -14.522300
C -11.371700 -23.747000 -15.893700
O -11.333000 -19.966000 -15.276400
H -11.196100 -24.400500 -15.263600
H -10.978400 -24.200600 -16.638400
H -10.965000 -21.702600 -15.715100
N -10.575500 -22.542000 -15.705000
N -10.365400 -18.017600 -14.760900
C -10.294300 -19.312500 -15.060100
H -9.643700 -17.605900 -14.576300
C -9.283800 -22.573900 -15.451600
C -8.948500 -19.916100 -15.147700
O -8.643600 -23.649100 -15.369400
C -8.555600 -21.296900 -15.294600
C -7.786800 -19.198600 -15.089100
H -7.646900 -18.285400 -14.953600
C -7.188800 -21.293000 -15.320200
N -6.734300 -20.036000 -15.201600
H -6.624400 -22.002400 -15.438800
H -5.865000 -19.784200 -15.203000
