24
Fragment
H -10.422300 -26.378900 -12.655700
H -10.388900 -32.194200 -10.849600
H -10.167400 -32.593900 -12.217600
C -9.712800 -32.673800 -11.415700
H -9.514200 -33.593100 -11.152900
C -9.467700 -26.213000 -12.524300
O -9.429000 -29.994000 -11.907000
H -9.292100 -25.559500 -11.894200
H -9.074400 -25.759400 -13.268900
H -9.061000 -28.257400 -12.345700
N -8.671500 -27.418000 -12.335600
N -8.461400 -31.942400 -11.391500
C -8.390300 -30.647500 -11.690700
H -7.739700 -32.354100 -11.206800
C -7.379800 -27.386100 -12.082200
C -7.044500 -30.043900 -11.778300
O -6.739600 -26.310900 -12.000000
C -6.651600 -28.663100 -11.925200
C -5.882800 -30.761400 -11.719600
H -5.742900 -31.674600 -11.584200
C -5.284800 -28.667000 -11.950800
N -4.830300 -29.924000 -11.832200
H -4.720500 -27.957600 -12.069400
H -3.961000 -30.175800 -11.833500
24
Fragment
H -16.733900 -20.183800 -11.752700
H -15.974400 -17.965600 -11.516800
N -15.864600 -19.932000 -11.754000
C -15.410100 -18.675000 -11.635400
H -14.952000 -21.682600 -12.002000
C -14.812100 -20.769400 -11.866500
C -14.043200 -18.671100 -11.661000
O -13.955300 -16.318900 -11.586200
C -13.650300 -20.051900 -11.807900
C -13.315000 -17.394100 -11.504000
H -12.955100 -22.362100 -12.379400
C -12.304500 -20.655500 -11.895500
N -12.233400 -21.950400 -12.194700
N -12.023400 -17.426000 -11.250600
H -11.633800 -18.265400 -11.240500
H -11.620500 -15.767400 -10.317300
H -11.402700 -15.567500 -11.692000
O -11.265800 -20.002000 -11.679200
C -11.227200 -16.221000 -11.061900
H -11.180700 -23.601100 -12.433300
C -10.982100 -22.681800 -12.170500
H -10.527500 -22.601900 -11.368500
H -10.305900 -22.202200 -12.736500
H -10.272600 -16.386900 -10.930500
48
Fragment
H -10.422300 -26.378900 -12.655700
H -10.388900 -32.194200 -10.849600
H -10.167400 -32.593900 -12.217600
C -9.712800 -32.673800 -11.415700
H -9.514200 -33.593100 -11.152900
C -9.467700 -26.213000 -12.524300
O -9.429000 -29.994000 -11.907000
H -9.292100 -25.559500 -11.894200
H -9.074400 -25.759400 -13.268900
H -9.061000 -28.257400 -12.345700
N -8.671500 -27.418000 -12.335600
N -8.461400 -31.942400 -11.391500
C -8.390300 -30.647500 -11.690700
H -7.739700 -32.354100 -11.206800
C -7.379800 -27.386100 -12.082200
C -7.044500 -30.043900 -11.778300
O -6.739600 -26.310900 -12.000000
C -6.651600 -28.663100 -11.925200
C -5.882800 -30.761400 -11.719600
H -5.742900 -31.674600 -11.584200
C -5.284800 -28.667000 -11.950800
N -4.830300 -29.924000 -11.832200
H -4.720500 -27.957600 -12.069400
H -3.961000 -30.175800 -11.833500
H -16.733900 -20.183800 -11.752700
H -15.974400 -17.965600 -11.516800
N -15.864600 -19.932000 -11.754000
C -15.410100 -18.675000 -11.635400
H -14.952000 -21.682600 -12.002000
C -14.812100 -20.769400 -11.866500
C -14.043200 -18.671100 -11.661000
O -13.955300 -16.318900 -11.586200
C -13.650300 -20.051900 -11.807900
C -13.315000 -17.394100 -11.504000
H -12.955100 -22.362100 -12.379400
C -12.304500 -20.655500 -11.895500
N -12.233400 -21.950400 -12.194700
N -12.023400 -17.426000 -11.250600
H -11.633800 -18.265400 -11.240500
H -11.620500 -15.767400 -10.317300
H -11.402700 -15.567500 -11.692000
O -11.265800 -20.002000 -11.679200
C -11.227200 -16.221000 -11.061900
H -11.180700 -23.601100 -12.433300
C -10.982100 -22.681800 -12.170500
H -10.527500 -22.601900 -11.368500
H -10.305900 -22.202200 -12.736500
H -10.272600 -16.386900 -10.930500
