24
Fragment
H -10.422300 -26.378900 -12.655700
H -10.388900 -32.194200 -10.849600
H -10.167400 -32.593900 -12.217600
C -9.712800 -32.673800 -11.415700
H -9.514200 -33.593100 -11.152900
C -9.467700 -26.213000 -12.524300
O -9.429000 -29.994000 -11.907000
H -9.292100 -25.559500 -11.894200
H -9.074400 -25.759400 -13.268900
H -9.061000 -28.257400 -12.345700
N -8.671500 -27.418000 -12.335600
N -8.461400 -31.942400 -11.391500
C -8.390300 -30.647500 -11.690700
H -7.739700 -32.354100 -11.206800
C -7.379800 -27.386100 -12.082200
C -7.044500 -30.043900 -11.778300
O -6.739600 -26.310900 -12.000000
C -6.651600 -28.663100 -11.925200
C -5.882800 -30.761400 -11.719600
H -5.742900 -31.674600 -11.584200
C -5.284800 -28.667000 -11.950800
N -4.830300 -29.924000 -11.832200
H -4.720500 -27.957600 -12.069400
H -3.961000 -30.175800 -11.833500
3
Fragment
H -5.392500 -26.159100 -10.364400
H -4.952100 -25.339700 -9.454700
O -4.923000 -26.137100 -9.791600
27
Fragment
H -10.422300 -26.378900 -12.655700
H -10.388900 -32.194200 -10.849600
H -10.167400 -32.593900 -12.217600
C -9.712800 -32.673800 -11.415700
H -9.514200 -33.593100 -11.152900
C -9.467700 -26.213000 -12.524300
O -9.429000 -29.994000 -11.907000
H -9.292100 -25.559500 -11.894200
H -9.074400 -25.759400 -13.268900
H -9.061000 -28.257400 -12.345700
N -8.671500 -27.418000 -12.335600
N -8.461400 -31.942400 -11.391500
C -8.390300 -30.647500 -11.690700
H -7.739700 -32.354100 -11.206800
C -7.379800 -27.386100 -12.082200
C -7.044500 -30.043900 -11.778300
O -6.739600 -26.310900 -12.000000
C -6.651600 -28.663100 -11.925200
C -5.882800 -30.761400 -11.719600
H -5.742900 -31.674600 -11.584200
C -5.284800 -28.667000 -11.950800
N -4.830300 -29.924000 -11.832200
H -4.720500 -27.957600 -12.069400
H -3.961000 -30.175800 -11.833500
H -5.392500 -26.159100 -10.364400
H -4.952100 -25.339700 -9.454700
O -4.923000 -26.137100 -9.791600
