24
Fragment
H -10.422300 -26.378900 -12.655700
H -10.388900 -32.194200 -10.849600
H -10.167400 -32.593900 -12.217600
C -9.712800 -32.673800 -11.415700
H -9.514200 -33.593100 -11.152900
C -9.467700 -26.213000 -12.524300
O -9.429000 -29.994000 -11.907000
H -9.292100 -25.559500 -11.894200
H -9.074400 -25.759400 -13.268900
H -9.061000 -28.257400 -12.345700
N -8.671500 -27.418000 -12.335600
N -8.461400 -31.942400 -11.391500
C -8.390300 -30.647500 -11.690700
H -7.739700 -32.354100 -11.206800
C -7.379800 -27.386100 -12.082200
C -7.044500 -30.043900 -11.778300
O -6.739600 -26.310900 -12.000000
C -6.651600 -28.663100 -11.925200
C -5.882800 -30.761400 -11.719600
H -5.742900 -31.674600 -11.584200
C -5.284800 -28.667000 -11.950800
N -4.830300 -29.924000 -11.832200
H -4.720500 -27.957600 -12.069400
H -3.961000 -30.175800 -11.833500
24
Fragment
H -17.789300 -26.378900 -12.655700
H -17.755900 -32.194200 -10.849600
H -17.534400 -32.593900 -12.217600
C -17.079800 -32.673800 -11.415700
H -16.881200 -33.593100 -11.152900
C -16.834700 -26.213000 -12.524300
O -16.796000 -29.994000 -11.907000
H -16.659100 -25.559500 -11.894200
H -16.441400 -25.759400 -13.268900
H -16.428000 -28.257400 -12.345700
N -16.038500 -27.418000 -12.335600
N -15.828400 -31.942400 -11.391500
C -15.757300 -30.647500 -11.690700
H -15.106700 -32.354100 -11.206800
C -14.746800 -27.386100 -12.082200
C -14.411500 -30.043900 -11.778300
O -14.106600 -26.310900 -12.000000
C -14.018600 -28.663100 -11.925200
C -13.249800 -30.761400 -11.719600
H -13.109900 -31.674600 -11.584200
C -12.651800 -28.667000 -11.950800
N -12.197300 -29.924000 -11.832200
H -12.087500 -27.957600 -12.069400
H -11.328000 -30.175800 -11.833500
48
Fragment
H -10.422300 -26.378900 -12.655700
H -10.388900 -32.194200 -10.849600
H -10.167400 -32.593900 -12.217600
C -9.712800 -32.673800 -11.415700
H -9.514200 -33.593100 -11.152900
C -9.467700 -26.213000 -12.524300
O -9.429000 -29.994000 -11.907000
H -9.292100 -25.559500 -11.894200
H -9.074400 -25.759400 -13.268900
H -9.061000 -28.257400 -12.345700
N -8.671500 -27.418000 -12.335600
N -8.461400 -31.942400 -11.391500
C -8.390300 -30.647500 -11.690700
H -7.739700 -32.354100 -11.206800
C -7.379800 -27.386100 -12.082200
C -7.044500 -30.043900 -11.778300
O -6.739600 -26.310900 -12.000000
C -6.651600 -28.663100 -11.925200
C -5.882800 -30.761400 -11.719600
H -5.742900 -31.674600 -11.584200
C -5.284800 -28.667000 -11.950800
N -4.830300 -29.924000 -11.832200
H -4.720500 -27.957600 -12.069400
H -3.961000 -30.175800 -11.833500
H -17.789300 -26.378900 -12.655700
H -17.755900 -32.194200 -10.849600
H -17.534400 -32.593900 -12.217600
C -17.079800 -32.673800 -11.415700
H -16.881200 -33.593100 -11.152900
C -16.834700 -26.213000 -12.524300
O -16.796000 -29.994000 -11.907000
H -16.659100 -25.559500 -11.894200
H -16.441400 -25.759400 -13.268900
H -16.428000 -28.257400 -12.345700
N -16.038500 -27.418000 -12.335600
N -15.828400 -31.942400 -11.391500
C -15.757300 -30.647500 -11.690700
H -15.106700 -32.354100 -11.206800
C -14.746800 -27.386100 -12.082200
C -14.411500 -30.043900 -11.778300
O -14.106600 -26.310900 -12.000000
C -14.018600 -28.663100 -11.925200
C -13.249800 -30.761400 -11.719600
H -13.109900 -31.674600 -11.584200
C -12.651800 -28.667000 -11.950800
N -12.197300 -29.924000 -11.832200
H -12.087500 -27.957600 -12.069400
H -11.328000 -30.175800 -11.833500
