21
Fragment
H -10.545800 -23.775700 -9.891000
C -9.862600 -23.824100 -10.634100
N -9.559700 -25.091000 -11.050000
N -9.406600 -22.693200 -11.097200
H -8.841800 -27.114500 -12.121800
C -8.719200 -25.225600 -12.066400
C -8.532600 -22.814400 -12.138800
H -8.486900 -20.167600 -11.988800
N -8.422500 -26.429200 -12.511100
N -8.180800 -24.094700 -12.653700
H -8.112900 -19.979100 -13.658300
C -7.856400 -20.424700 -12.785900
C -7.852900 -21.903000 -12.895200
H -7.753100 -26.562500 -13.148600
C -7.295100 -23.872600 -13.695900
H -7.293500 -25.525800 -15.069200
N -7.100800 -22.573400 -13.837800
H -6.971900 -20.073300 -12.779200
C -6.651900 -24.916000 -14.538000
H -6.146700 -25.606600 -13.946400
H -6.024200 -24.529600 -15.113500
21
Fragment
H -8.652000 -17.798100 -7.047000
H -8.529500 -18.875100 -8.214200
C -8.024200 -18.184500 -7.622500
H -7.704300 -13.341800 -9.381300
N -7.575400 -15.841900 -8.322800
H -7.382700 -18.794300 -7.091400
C -7.381100 -17.141100 -8.464600
H -6.923000 -19.831000 -9.011900
C -6.823200 -15.171500 -9.265300
C -6.819700 -13.693200 -9.374600
H -6.563300 -13.247600 -8.502300
N -6.495300 -17.363200 -9.506900
N -6.253700 -19.697700 -9.649400
H -6.189300 -13.436100 -10.171700
C -6.143500 -16.082900 -10.021700
C -5.956900 -18.494100 -10.094100
H -5.834400 -20.383000 -10.038700
N -5.269600 -15.961700 -11.063300
N -5.116500 -18.359500 -11.110500
C -4.813600 -17.092600 -11.526400
H -4.130400 -17.044200 -12.269500
42
Fragment
H -10.545800 -23.775700 -9.891000
C -9.862600 -23.824100 -10.634100
N -9.559700 -25.091000 -11.050000
N -9.406600 -22.693200 -11.097200
H -8.841800 -27.114500 -12.121800
C -8.719200 -25.225600 -12.066400
C -8.532600 -22.814400 -12.138800
H -8.486900 -20.167600 -11.988800
N -8.422500 -26.429200 -12.511100
N -8.180800 -24.094700 -12.653700
H -8.112900 -19.979100 -13.658300
C -7.856400 -20.424700 -12.785900
C -7.852900 -21.903000 -12.895200
H -7.753100 -26.562500 -13.148600
C -7.295100 -23.872600 -13.695900
H -7.293500 -25.525800 -15.069200
N -7.100800 -22.573400 -13.837800
H -6.971900 -20.073300 -12.779200
C -6.651900 -24.916000 -14.538000
H -6.146700 -25.606600 -13.946400
H -6.024200 -24.529600 -15.113500
H -8.652000 -17.798100 -7.047000
H -8.529500 -18.875100 -8.214200
C -8.024200 -18.184500 -7.622500
H -7.704300 -13.341800 -9.381300
N -7.575400 -15.841900 -8.322800
H -7.382700 -18.794300 -7.091400
C -7.381100 -17.141100 -8.464600
H -6.923000 -19.831000 -9.011900
C -6.823200 -15.171500 -9.265300
C -6.819700 -13.693200 -9.374600
H -6.563300 -13.247600 -8.502300
N -6.495300 -17.363200 -9.506900
N -6.253700 -19.697700 -9.649400
H -6.189300 -13.436100 -10.171700
C -6.143500 -16.082900 -10.021700
C -5.956900 -18.494100 -10.094100
H -5.834400 -20.383000 -10.038700
N -5.269600 -15.961700 -11.063300
N -5.116500 -18.359500 -11.110500
C -4.813600 -17.092600 -11.526400
H -4.130400 -17.044200 -12.269500
