21
Fragment
H -10.545800 -23.775700 -9.891000
C -9.862600 -23.824100 -10.634100
N -9.559700 -25.091000 -11.050000
N -9.406600 -22.693200 -11.097200
H -8.841800 -27.114500 -12.121800
C -8.719200 -25.225600 -12.066400
C -8.532600 -22.814400 -12.138800
H -8.486900 -20.167600 -11.988800
N -8.422500 -26.429200 -12.511100
N -8.180800 -24.094700 -12.653700
H -8.112900 -19.979100 -13.658300
C -7.856400 -20.424700 -12.785900
C -7.852900 -21.903000 -12.895200
H -7.753100 -26.562500 -13.148600
C -7.295100 -23.872600 -13.695900
H -7.293500 -25.525800 -15.069200
N -7.100800 -22.573400 -13.837800
H -6.971900 -20.073300 -12.779200
C -6.651900 -24.916000 -14.538000
H -6.146700 -25.606600 -13.946400
H -6.024200 -24.529600 -15.113500
21
Fragment
H -13.066200 -23.775700 -2.504100
C -12.383100 -23.824100 -3.247300
N -12.080200 -25.091000 -3.663100
N -11.927000 -22.693200 -3.710400
H -11.362200 -27.114500 -4.735000
C -11.239700 -25.225600 -4.679600
C -11.053100 -22.814400 -4.752000
H -11.007300 -20.167600 -4.602000
N -10.943000 -26.429200 -5.124300
N -10.701300 -24.094700 -5.266800
H -10.633400 -19.979100 -6.271400
C -10.376900 -20.424700 -5.399000
C -10.373400 -21.903000 -5.508400
H -10.273600 -26.562500 -5.761700
C -9.815500 -23.872600 -6.309100
H -9.814000 -25.525800 -7.682300
N -9.621200 -22.573400 -6.450900
H -9.492300 -20.073300 -5.392400
C -9.172400 -24.916000 -7.151200
H -8.667100 -25.606600 -6.559500
H -8.544600 -24.529600 -7.726600
42
Fragment
H -10.545800 -23.775700 -9.891000
C -9.862600 -23.824100 -10.634100
N -9.559700 -25.091000 -11.050000
N -9.406600 -22.693200 -11.097200
H -8.841800 -27.114500 -12.121800
C -8.719200 -25.225600 -12.066400
C -8.532600 -22.814400 -12.138800
H -8.486900 -20.167600 -11.988800
N -8.422500 -26.429200 -12.511100
N -8.180800 -24.094700 -12.653700
H -8.112900 -19.979100 -13.658300
C -7.856400 -20.424700 -12.785900
C -7.852900 -21.903000 -12.895200
H -7.753100 -26.562500 -13.148600
C -7.295100 -23.872600 -13.695900
H -7.293500 -25.525800 -15.069200
N -7.100800 -22.573400 -13.837800
H -6.971900 -20.073300 -12.779200
C -6.651900 -24.916000 -14.538000
H -6.146700 -25.606600 -13.946400
H -6.024200 -24.529600 -15.113500
H -13.066200 -23.775700 -2.504100
C -12.383100 -23.824100 -3.247300
N -12.080200 -25.091000 -3.663100
N -11.927000 -22.693200 -3.710400
H -11.362200 -27.114500 -4.735000
C -11.239700 -25.225600 -4.679600
C -11.053100 -22.814400 -4.752000
H -11.007300 -20.167600 -4.602000
N -10.943000 -26.429200 -5.124300
N -10.701300 -24.094700 -5.266800
H -10.633400 -19.979100 -6.271400
C -10.376900 -20.424700 -5.399000
C -10.373400 -21.903000 -5.508400
H -10.273600 -26.562500 -5.761700
C -9.815500 -23.872600 -6.309100
H -9.814000 -25.525800 -7.682300
N -9.621200 -22.573400 -6.450900
H -9.492300 -20.073300 -5.392400
C -9.172400 -24.916000 -7.151200
H -8.667100 -25.606600 -6.559500
H -8.544600 -24.529600 -7.726600
