21
Fragment
H -10.545800 -23.775700 -9.891000
C -9.862600 -23.824100 -10.634100
N -9.559700 -25.091000 -11.050000
N -9.406600 -22.693200 -11.097200
H -8.841800 -27.114500 -12.121800
C -8.719200 -25.225600 -12.066400
C -8.532600 -22.814400 -12.138800
H -8.486900 -20.167600 -11.988800
N -8.422500 -26.429200 -12.511100
N -8.180800 -24.094700 -12.653700
H -8.112900 -19.979100 -13.658300
C -7.856400 -20.424700 -12.785900
C -7.852900 -21.903000 -12.895200
H -7.753100 -26.562500 -13.148600
C -7.295100 -23.872600 -13.695900
H -7.293500 -25.525800 -15.069200
N -7.100800 -22.573400 -13.837800
H -6.971900 -20.073300 -12.779200
C -6.651900 -24.916000 -14.538000
H -6.146700 -25.606600 -13.946400
H -6.024200 -24.529600 -15.113500
21
Fragment
H -14.993300 -23.344800 -9.891000
C -14.310100 -23.296400 -10.634100
N -14.007200 -22.029500 -11.050000
N -13.854100 -24.427300 -11.097200
H -13.289300 -20.006000 -12.121800
C -13.166700 -21.894900 -12.066400
C -12.980100 -24.306100 -12.138800
H -12.934400 -26.952900 -11.988800
N -12.870000 -20.691300 -12.511100
N -12.628300 -23.025800 -12.653700
H -12.560400 -27.141400 -13.658300
C -12.303900 -26.695800 -12.785900
C -12.300400 -25.217500 -12.895200
H -12.200600 -20.558000 -13.148600
C -11.742600 -23.247900 -13.695900
H -11.741000 -21.594700 -15.069200
N -11.548300 -24.547100 -13.837800
H -11.419400 -27.047200 -12.779200
C -11.099400 -22.204500 -14.538000
H -10.594200 -21.513900 -13.946400
H -10.471700 -22.590900 -15.113500
42
Fragment
H -10.545800 -23.775700 -9.891000
C -9.862600 -23.824100 -10.634100
N -9.559700 -25.091000 -11.050000
N -9.406600 -22.693200 -11.097200
H -8.841800 -27.114500 -12.121800
C -8.719200 -25.225600 -12.066400
C -8.532600 -22.814400 -12.138800
H -8.486900 -20.167600 -11.988800
N -8.422500 -26.429200 -12.511100
N -8.180800 -24.094700 -12.653700
H -8.112900 -19.979100 -13.658300
C -7.856400 -20.424700 -12.785900
C -7.852900 -21.903000 -12.895200
H -7.753100 -26.562500 -13.148600
C -7.295100 -23.872600 -13.695900
H -7.293500 -25.525800 -15.069200
N -7.100800 -22.573400 -13.837800
H -6.971900 -20.073300 -12.779200
C -6.651900 -24.916000 -14.538000
H -6.146700 -25.606600 -13.946400
H -6.024200 -24.529600 -15.113500
H -14.993300 -23.344800 -9.891000
C -14.310100 -23.296400 -10.634100
N -14.007200 -22.029500 -11.050000
N -13.854100 -24.427300 -11.097200
H -13.289300 -20.006000 -12.121800
C -13.166700 -21.894900 -12.066400
C -12.980100 -24.306100 -12.138800
H -12.934400 -26.952900 -11.988800
N -12.870000 -20.691300 -12.511100
N -12.628300 -23.025800 -12.653700
H -12.560400 -27.141400 -13.658300
C -12.303900 -26.695800 -12.785900
C -12.300400 -25.217500 -12.895200
H -12.200600 -20.558000 -13.148600
C -11.742600 -23.247900 -13.695900
H -11.741000 -21.594700 -15.069200
N -11.548300 -24.547100 -13.837800
H -11.419400 -27.047200 -12.779200
C -11.099400 -22.204500 -14.538000
H -10.594200 -21.513900 -13.946400
H -10.471700 -22.590900 -15.113500
