15
Fragment
H -8.289300 -38.381000 -12.328100
O -8.220900 -38.951100 -11.612100
O -8.149100 -40.177500 -9.277000
H -7.822200 -40.553200 -8.531200
C -7.779900 -38.239400 -10.529000
C -7.740100 -38.871600 -9.299500
O -7.430500 -36.406100 -11.897000
C -7.377600 -36.911300 -10.642000
C -7.317100 -38.182500 -8.178700
H -7.288600 -38.606600 -7.351600
H -7.085600 -35.572100 -11.924500
C -6.964900 -36.218900 -9.519600
C -6.936000 -36.857000 -8.295600
H -6.708000 -35.327900 -9.588700
H -6.657600 -36.390700 -7.540700
21
Fragment
H -7.794400 -30.123300 -12.363700
H -7.131700 -34.574600 -14.470600
O -7.066300 -29.640300 -12.178200
O -6.892500 -33.033700 -16.608300
H -6.847700 -29.615700 -14.128100
C -6.736900 -33.897100 -13.970700
N -6.479800 -33.953500 -12.645400
N -6.444200 -32.239800 -15.785700
C -6.330100 -32.699500 -14.458800
C -6.274500 -29.546800 -13.349100
O -6.111600 -31.098600 -16.079000
H -6.011600 -31.715900 -10.623400
C -5.917200 -32.785600 -12.329400
H -5.841900 -28.678900 -13.372700
N -5.802400 -31.977900 -13.407500
H -5.562800 -33.199300 -10.388500
C -5.471800 -32.434300 -10.961000
C -5.224300 -30.625000 -13.409600
H -4.695400 -30.507500 -14.214200
H -4.630700 -30.532700 -12.648000
H -4.552100 -32.159800 -10.984500
36
Fragment
H -8.289300 -38.381000 -12.328100
O -8.220900 -38.951100 -11.612100
O -8.149100 -40.177500 -9.277000
H -7.822200 -40.553200 -8.531200
C -7.779900 -38.239400 -10.529000
C -7.740100 -38.871600 -9.299500
O -7.430500 -36.406100 -11.897000
C -7.377600 -36.911300 -10.642000
C -7.317100 -38.182500 -8.178700
H -7.288600 -38.606600 -7.351600
H -7.085600 -35.572100 -11.924500
C -6.964900 -36.218900 -9.519600
C -6.936000 -36.857000 -8.295600
H -6.708000 -35.327900 -9.588700
H -6.657600 -36.390700 -7.540700
H -7.794400 -30.123300 -12.363700
H -7.131700 -34.574600 -14.470600
O -7.066300 -29.640300 -12.178200
O -6.892500 -33.033700 -16.608300
H -6.847700 -29.615700 -14.128100
C -6.736900 -33.897100 -13.970700
N -6.479800 -33.953500 -12.645400
N -6.444200 -32.239800 -15.785700
C -6.330100 -32.699500 -14.458800
C -6.274500 -29.546800 -13.349100
O -6.111600 -31.098600 -16.079000
H -6.011600 -31.715900 -10.623400
C -5.917200 -32.785600 -12.329400
H -5.841900 -28.678900 -13.372700
N -5.802400 -31.977900 -13.407500
H -5.562800 -33.199300 -10.388500
C -5.471800 -32.434300 -10.961000
C -5.224300 -30.625000 -13.409600
H -4.695400 -30.507500 -14.214200
H -4.630700 -30.532700 -12.648000
H -4.552100 -32.159800 -10.984500
