15
Fragment
H -8.289300 -38.381000 -12.328100
O -8.220900 -38.951100 -11.612100
O -8.149100 -40.177500 -9.277000
H -7.822200 -40.553200 -8.531200
C -7.779900 -38.239400 -10.529000
C -7.740100 -38.871600 -9.299500
O -7.430500 -36.406100 -11.897000
C -7.377600 -36.911300 -10.642000
C -7.317100 -38.182500 -8.178700
H -7.288600 -38.606600 -7.351600
H -7.085600 -35.572100 -11.924500
C -6.964900 -36.218900 -9.519600
C -6.936000 -36.857000 -8.295600
H -6.708000 -35.327900 -9.588700
H -6.657600 -36.390700 -7.540700
21
Fragment
H -11.160800 -38.634200 -19.835800
H -11.082100 -40.261300 -18.172400
H -11.017400 -40.286500 -16.606200
C -10.488500 -40.169000 -17.410800
C -10.241100 -38.359700 -19.859300
H -10.150000 -37.594700 -20.431900
N -9.910400 -38.816100 -17.412900
H -9.870900 -42.115100 -17.447700
C -9.795600 -38.008400 -18.491000
H -9.701300 -39.078100 -20.197000
O -9.601300 -39.695400 -14.741400
C -9.438300 -41.247200 -17.471300
C -9.382800 -38.094500 -16.361500
N -9.268600 -38.554200 -15.034600
N -9.233100 -36.840500 -18.174900
C -8.976000 -36.896900 -16.849700
H -8.865100 -41.178300 -16.692200
O -8.820300 -37.760300 -14.212100
O -8.646500 -41.153700 -18.642200
H -8.581100 -36.219400 -16.349700
H -7.918500 -40.670700 -18.456700
36
Fragment
H -8.289300 -38.381000 -12.328100
O -8.220900 -38.951100 -11.612100
O -8.149100 -40.177500 -9.277000
H -7.822200 -40.553200 -8.531200
C -7.779900 -38.239400 -10.529000
C -7.740100 -38.871600 -9.299500
O -7.430500 -36.406100 -11.897000
C -7.377600 -36.911300 -10.642000
C -7.317100 -38.182500 -8.178700
H -7.288600 -38.606600 -7.351600
H -7.085600 -35.572100 -11.924500
C -6.964900 -36.218900 -9.519600
C -6.936000 -36.857000 -8.295600
H -6.708000 -35.327900 -9.588700
H -6.657600 -36.390700 -7.540700
H -11.160800 -38.634200 -19.835800
H -11.082100 -40.261300 -18.172400
H -11.017400 -40.286500 -16.606200
C -10.488500 -40.169000 -17.410800
C -10.241100 -38.359700 -19.859300
H -10.150000 -37.594700 -20.431900
N -9.910400 -38.816100 -17.412900
H -9.870900 -42.115100 -17.447700
C -9.795600 -38.008400 -18.491000
H -9.701300 -39.078100 -20.197000
O -9.601300 -39.695400 -14.741400
C -9.438300 -41.247200 -17.471300
C -9.382800 -38.094500 -16.361500
N -9.268600 -38.554200 -15.034600
N -9.233100 -36.840500 -18.174900
C -8.976000 -36.896900 -16.849700
H -8.865100 -41.178300 -16.692200
O -8.820300 -37.760300 -14.212100
O -8.646500 -41.153700 -18.642200
H -8.581100 -36.219400 -16.349700
H -7.918500 -40.670700 -18.456700
