15
Fragment
H -8.289300 -38.381000 -12.328100
O -8.220900 -38.951100 -11.612100
O -8.149100 -40.177500 -9.277000
H -7.822200 -40.553200 -8.531200
C -7.779900 -38.239400 -10.529000
C -7.740100 -38.871600 -9.299500
O -7.430500 -36.406100 -11.897000
C -7.377600 -36.911300 -10.642000
C -7.317100 -38.182500 -8.178700
H -7.288600 -38.606600 -7.351600
H -7.085600 -35.572100 -11.924500
C -6.964900 -36.218900 -9.519600
C -6.936000 -36.857000 -8.295600
H -6.708000 -35.327900 -9.588700
H -6.657600 -36.390700 -7.540700
21
Fragment
H -12.782000 -38.634200 -12.130700
H -12.703300 -40.261300 -10.467300
H -12.638600 -40.286500 -8.901100
C -12.109700 -40.169000 -9.705700
C -11.862200 -38.359700 -12.154200
H -11.771200 -37.594700 -12.726800
N -11.531600 -38.816100 -9.707800
H -11.492100 -42.115100 -9.742600
C -11.416800 -38.008400 -10.785900
H -11.322500 -39.078100 -12.491900
O -11.222500 -39.695400 -7.036300
C -11.059500 -41.247200 -9.766200
C -11.004000 -38.094500 -8.656400
N -10.889800 -38.554200 -7.329500
N -10.854200 -36.840500 -10.469800
C -10.597200 -36.896900 -9.144600
H -10.486300 -41.178300 -8.987100
O -10.441500 -37.760300 -6.507000
O -10.267700 -41.153700 -10.937100
H -10.202300 -36.219400 -8.644700
H -9.539700 -40.670700 -10.751600
36
Fragment
H -8.289300 -38.381000 -12.328100
O -8.220900 -38.951100 -11.612100
O -8.149100 -40.177500 -9.277000
H -7.822200 -40.553200 -8.531200
C -7.779900 -38.239400 -10.529000
C -7.740100 -38.871600 -9.299500
O -7.430500 -36.406100 -11.897000
C -7.377600 -36.911300 -10.642000
C -7.317100 -38.182500 -8.178700
H -7.288600 -38.606600 -7.351600
H -7.085600 -35.572100 -11.924500
C -6.964900 -36.218900 -9.519600
C -6.936000 -36.857000 -8.295600
H -6.708000 -35.327900 -9.588700
H -6.657600 -36.390700 -7.540700
H -12.782000 -38.634200 -12.130700
H -12.703300 -40.261300 -10.467300
H -12.638600 -40.286500 -8.901100
C -12.109700 -40.169000 -9.705700
C -11.862200 -38.359700 -12.154200
H -11.771200 -37.594700 -12.726800
N -11.531600 -38.816100 -9.707800
H -11.492100 -42.115100 -9.742600
C -11.416800 -38.008400 -10.785900
H -11.322500 -39.078100 -12.491900
O -11.222500 -39.695400 -7.036300
C -11.059500 -41.247200 -9.766200
C -11.004000 -38.094500 -8.656400
N -10.889800 -38.554200 -7.329500
N -10.854200 -36.840500 -10.469800
C -10.597200 -36.896900 -9.144600
H -10.486300 -41.178300 -8.987100
O -10.441500 -37.760300 -6.507000
O -10.267700 -41.153700 -10.937100
H -10.202300 -36.219400 -8.644700
H -9.539700 -40.670700 -10.751600
