58
Fragment
H -20.731200 -21.756400 -21.053500
H -20.538200 -19.976900 -22.685700
H -20.041100 -19.544000 -21.225900
C -19.890300 -21.590500 -21.548200
H -19.881400 -22.180900 -22.342500
C -19.843800 -20.131700 -21.997500
H -18.802500 -21.774800 -19.845600
N -18.761800 -21.906200 -20.700300
N -18.537500 -19.791300 -22.543700
H -18.222600 -20.278600 -23.220500
O -17.934900 -18.408700 -20.858100
C -17.653600 -19.027500 -21.889500
C -17.637500 -22.424000 -21.202000
O -17.487000 -22.674700 -22.403200
H -16.668400 -23.655800 -19.850000
H -16.662700 -22.120200 -19.402200
C -16.553900 -22.727700 -20.175400
H -16.469700 -23.307500 -25.082500
H -16.366100 -18.910900 -23.498900
C -16.273900 -18.929900 -22.514000
H -15.874700 -21.836800 -23.442900
H -15.874700 -19.921900 -20.180000
H -15.850900 -18.080300 -22.232000
H -15.580000 -24.492000 -22.918500
C -15.549000 -22.943700 -25.091300
N -15.472800 -21.787500 -24.209500
N -15.400300 -20.049900 -22.135100
H -15.333800 -22.670200 -26.017900
N -15.213200 -22.576400 -20.710000
H -15.049600 -21.220600 -18.266400
C -15.032600 -20.061100 -20.700100
H -14.994400 -24.595000 -20.707400
N -14.736700 -24.292600 -23.214300
H -14.714000 -24.855800 -25.147300
C -14.561900 -24.024700 -24.630400
H -14.535300 -18.689500 -18.301800
C -14.501900 -20.883400 -24.295400
H -14.477300 -18.059200 -20.552700
C -14.442000 -21.415000 -20.256300
C -14.424300 -23.801500 -20.870000
C -14.250100 -20.078700 -23.039700
C -14.193100 -21.378200 -18.736200
C -14.067700 -18.927200 -20.311500
H -14.017300 -19.150600 -23.294100
C -13.871400 -23.839200 -22.285600
H -13.837600 -22.252800 -18.440300
O -13.786600 -20.713100 -25.298900
C -13.726400 -18.919600 -18.823700
H -13.680700 -23.812400 -20.216800
H -13.635100 -23.722100 -24.799600
H -13.542900 -21.487100 -20.688200
H -13.474500 -20.464800 -22.560500
H -13.232100 -19.022200 -20.834100
C -13.201700 -20.277000 -18.367900
H -13.064800 -20.267400 -17.387000
H -13.041000 -18.227000 -18.648000
O -12.739800 -23.439200 -22.553900
H -12.329000 -20.457700 -18.799700
58
Fragment
H -16.188400 -27.508200 -32.758800
O -15.777600 -30.489700 -29.004600
H -15.476400 -25.277500 -32.910500
H -15.452600 -27.317900 -34.171500
C -15.315700 -27.327500 -33.190600
H -15.285300 -26.072700 -30.724400
H -15.042900 -27.515300 -28.998000
H -14.974500 -28.537600 -30.870300
H -14.882300 -30.772600 -26.758900
H -14.836700 -30.862900 -31.341700
C -14.791000 -25.970100 -32.734800
O -14.730800 -27.763600 -26.259600
H -14.679800 -29.303300 -33.118200
C -14.646000 -30.889700 -29.272900
H -14.500100 -26.201100 -28.264400
C -14.449700 -25.977700 -31.247000
C -14.324300 -28.428700 -32.822300
C -14.267300 -27.129200 -28.518800
C -14.093100 -30.852000 -30.688500
C -14.075400 -28.465500 -31.302200
H -14.040100 -25.109700 -31.005800
C -14.015500 -27.933900 -27.263100
H -13.982100 -25.740000 -33.256700
C -13.955500 -31.075200 -26.928100
H -13.803400 -31.906300 -26.411200
N -13.780700 -31.343100 -28.344200
H -13.523000 -31.645500 -30.851100
C -13.484800 -27.111600 -30.858400
H -13.467800 -28.271100 -33.292100
N -13.304200 -29.626900 -30.848500
H -13.183600 -29.720700 -25.540600
N -13.117100 -27.100400 -29.423400
N -13.044600 -28.838000 -27.349000
C -12.968400 -29.994200 -26.467200
H -12.937400 -31.542500 -28.640000
H -12.666500 -25.130800 -29.326500
H -12.642700 -28.887300 -28.115600
H -12.642700 -26.972400 -31.378500
C -12.243500 -25.980400 -29.044500
H -12.151300 -25.961400 -28.059600
H -12.047700 -30.358000 -26.476000
C -11.963500 -29.778200 -31.383100
H -11.854700 -29.170700 -32.156300
H -11.849000 -30.706300 -31.708500
O -11.030400 -29.725200 -29.155300
C -10.879900 -29.474500 -30.356500
C -10.863800 -26.078000 -29.669000
O -10.582500 -25.459200 -30.700400
H -10.294800 -27.329100 -28.338000
N -9.979900 -26.841800 -29.014800
N -9.755600 -28.956700 -30.858200
H -9.714900 -28.825300 -31.712900
C -8.673600 -27.182200 -29.561000
H -8.636000 -29.231400 -29.216000
C -8.627100 -28.641000 -30.010300
H -8.476300 -26.594500 -30.332600
H -7.979200 -27.027400 -28.872800
H -7.786200 -28.806900 -30.505000
116
Fragment
H -20.731200 -21.756400 -21.053500
H -20.538200 -19.976900 -22.685700
H -20.041100 -19.544000 -21.225900
C -19.890300 -21.590500 -21.548200
H -19.881400 -22.180900 -22.342500
C -19.843800 -20.131700 -21.997500
H -18.802500 -21.774800 -19.845600
N -18.761800 -21.906200 -20.700300
N -18.537500 -19.791300 -22.543700
H -18.222600 -20.278600 -23.220500
O -17.934900 -18.408700 -20.858100
C -17.653600 -19.027500 -21.889500
C -17.637500 -22.424000 -21.202000
O -17.487000 -22.674700 -22.403200
H -16.668400 -23.655800 -19.850000
H -16.662700 -22.120200 -19.402200
C -16.553900 -22.727700 -20.175400
H -16.469700 -23.307500 -25.082500
H -16.366100 -18.910900 -23.498900
C -16.273900 -18.929900 -22.514000
H -15.874700 -21.836800 -23.442900
H -15.874700 -19.921900 -20.180000
H -15.850900 -18.080300 -22.232000
H -15.580000 -24.492000 -22.918500
C -15.549000 -22.943700 -25.091300
N -15.472800 -21.787500 -24.209500
N -15.400300 -20.049900 -22.135100
H -15.333800 -22.670200 -26.017900
N -15.213200 -22.576400 -20.710000
H -15.049600 -21.220600 -18.266400
C -15.032600 -20.061100 -20.700100
H -14.994400 -24.595000 -20.707400
N -14.736700 -24.292600 -23.214300
H -14.714000 -24.855800 -25.147300
C -14.561900 -24.024700 -24.630400
H -14.535300 -18.689500 -18.301800
C -14.501900 -20.883400 -24.295400
H -14.477300 -18.059200 -20.552700
C -14.442000 -21.415000 -20.256300
C -14.424300 -23.801500 -20.870000
C -14.250100 -20.078700 -23.039700
C -14.193100 -21.378200 -18.736200
C -14.067700 -18.927200 -20.311500
H -14.017300 -19.150600 -23.294100
C -13.871400 -23.839200 -22.285600
H -13.837600 -22.252800 -18.440300
O -13.786600 -20.713100 -25.298900
C -13.726400 -18.919600 -18.823700
H -13.680700 -23.812400 -20.216800
H -13.635100 -23.722100 -24.799600
H -13.542900 -21.487100 -20.688200
H -13.474500 -20.464800 -22.560500
H -13.232100 -19.022200 -20.834100
C -13.201700 -20.277000 -18.367900
H -13.064800 -20.267400 -17.387000
H -13.041000 -18.227000 -18.648000
O -12.739800 -23.439200 -22.553900
H -12.329000 -20.457700 -18.799700
H -16.188400 -27.508200 -32.758800
O -15.777600 -30.489700 -29.004600
H -15.476400 -25.277500 -32.910500
H -15.452600 -27.317900 -34.171500
C -15.315700 -27.327500 -33.190600
H -15.285300 -26.072700 -30.724400
H -15.042900 -27.515300 -28.998000
H -14.974500 -28.537600 -30.870300
H -14.882300 -30.772600 -26.758900
H -14.836700 -30.862900 -31.341700
C -14.791000 -25.970100 -32.734800
O -14.730800 -27.763600 -26.259600
H -14.679800 -29.303300 -33.118200
C -14.646000 -30.889700 -29.272900
H -14.500100 -26.201100 -28.264400
C -14.449700 -25.977700 -31.247000
C -14.324300 -28.428700 -32.822300
C -14.267300 -27.129200 -28.518800
C -14.093100 -30.852000 -30.688500
C -14.075400 -28.465500 -31.302200
H -14.040100 -25.109700 -31.005800
C -14.015500 -27.933900 -27.263100
H -13.982100 -25.740000 -33.256700
C -13.955500 -31.075200 -26.928100
H -13.803400 -31.906300 -26.411200
N -13.780700 -31.343100 -28.344200
H -13.523000 -31.645500 -30.851100
C -13.484800 -27.111600 -30.858400
H -13.467800 -28.271100 -33.292100
N -13.304200 -29.626900 -30.848500
H -13.183600 -29.720700 -25.540600
N -13.117100 -27.100400 -29.423400
N -13.044600 -28.838000 -27.349000
C -12.968400 -29.994200 -26.467200
H -12.937400 -31.542500 -28.640000
H -12.666500 -25.130800 -29.326500
H -12.642700 -28.887300 -28.115600
H -12.642700 -26.972400 -31.378500
C -12.243500 -25.980400 -29.044500
H -12.151300 -25.961400 -28.059600
H -12.047700 -30.358000 -26.476000
C -11.963500 -29.778200 -31.383100
H -11.854700 -29.170700 -32.156300
H -11.849000 -30.706300 -31.708500
O -11.030400 -29.725200 -29.155300
C -10.879900 -29.474500 -30.356500
C -10.863800 -26.078000 -29.669000
O -10.582500 -25.459200 -30.700400
H -10.294800 -27.329100 -28.338000
N -9.979900 -26.841800 -29.014800
N -9.755600 -28.956700 -30.858200
H -9.714900 -28.825300 -31.712900
C -8.673600 -27.182200 -29.561000
H -8.636000 -29.231400 -29.216000
C -8.627100 -28.641000 -30.010300
H -8.476300 -26.594500 -30.332600
H -7.979200 -27.027400 -28.872800
H -7.786200 -28.806900 -30.505000
