58
Fragment
H -20.731200 -21.756400 -21.053500
H -20.538200 -19.976900 -22.685700
H -20.041100 -19.544000 -21.225900
C -19.890300 -21.590500 -21.548200
H -19.881400 -22.180900 -22.342500
C -19.843800 -20.131700 -21.997500
H -18.802500 -21.774800 -19.845600
N -18.761800 -21.906200 -20.700300
N -18.537500 -19.791300 -22.543700
H -18.222600 -20.278600 -23.220500
O -17.934900 -18.408700 -20.858100
C -17.653600 -19.027500 -21.889500
C -17.637500 -22.424000 -21.202000
O -17.487000 -22.674700 -22.403200
H -16.668400 -23.655800 -19.850000
H -16.662700 -22.120200 -19.402200
C -16.553900 -22.727700 -20.175400
H -16.469700 -23.307500 -25.082500
H -16.366100 -18.910900 -23.498900
C -16.273900 -18.929900 -22.514000
H -15.874700 -21.836800 -23.442900
H -15.874700 -19.921900 -20.180000
H -15.850900 -18.080300 -22.232000
H -15.580000 -24.492000 -22.918500
C -15.549000 -22.943700 -25.091300
N -15.472800 -21.787500 -24.209500
N -15.400300 -20.049900 -22.135100
H -15.333800 -22.670200 -26.017900
N -15.213200 -22.576400 -20.710000
H -15.049600 -21.220600 -18.266400
C -15.032600 -20.061100 -20.700100
H -14.994400 -24.595000 -20.707400
N -14.736700 -24.292600 -23.214300
H -14.714000 -24.855800 -25.147300
C -14.561900 -24.024700 -24.630400
H -14.535300 -18.689500 -18.301800
C -14.501900 -20.883400 -24.295400
H -14.477300 -18.059200 -20.552700
C -14.442000 -21.415000 -20.256300
C -14.424300 -23.801500 -20.870000
C -14.250100 -20.078700 -23.039700
C -14.193100 -21.378200 -18.736200
C -14.067700 -18.927200 -20.311500
H -14.017300 -19.150600 -23.294100
C -13.871400 -23.839200 -22.285600
H -13.837600 -22.252800 -18.440300
O -13.786600 -20.713100 -25.298900
C -13.726400 -18.919600 -18.823700
H -13.680700 -23.812400 -20.216800
H -13.635100 -23.722100 -24.799600
H -13.542900 -21.487100 -20.688200
H -13.474500 -20.464800 -22.560500
H -13.232100 -19.022200 -20.834100
C -13.201700 -20.277000 -18.367900
H -13.064800 -20.267400 -17.387000
H -13.041000 -18.227000 -18.648000
O -12.739800 -23.439200 -22.553900
H -12.329000 -20.457700 -18.799700
58
Fragment
H -11.435500 -21.845300 -26.165200
O -11.024700 -18.863800 -29.919400
H -10.723500 -24.076000 -26.013500
H -10.699700 -22.035600 -24.752500
C -10.562800 -22.026000 -25.733400
H -10.532400 -23.280800 -28.199600
H -10.290000 -21.838200 -29.926000
H -10.221600 -20.815900 -28.053700
H -10.129400 -18.580900 -32.165100
H -10.083800 -18.490600 -27.582300
C -10.038100 -23.383400 -26.189200
O -9.977900 -21.589900 -32.664400
H -9.926900 -20.050200 -25.805800
C -9.893100 -18.463800 -29.651100
H -9.747200 -23.152400 -30.659600
C -9.696800 -23.375800 -27.677000
C -9.571400 -20.924800 -26.101700
C -9.514400 -22.224300 -30.405200
C -9.340200 -18.501500 -28.235500
C -9.322500 -20.888000 -27.621800
H -9.287200 -24.243800 -27.918200
C -9.262600 -21.419600 -31.660900
H -9.229200 -23.613500 -25.667300
C -9.202600 -18.278300 -31.995900
H -9.050500 -17.447200 -32.512800
N -9.027800 -18.010400 -30.579800
H -8.770100 -17.708000 -28.072900
C -8.731900 -22.241900 -28.065600
H -8.714900 -21.082400 -25.631900
N -8.551300 -19.726600 -28.075500
H -8.430700 -19.632800 -33.383400
N -8.364200 -22.253100 -29.500600
N -8.291700 -20.515500 -31.575000
C -8.215500 -19.359300 -32.456800
H -8.184500 -17.811000 -30.284000
H -7.913600 -24.222700 -29.597500
H -7.889800 -22.381100 -27.545500
H -7.889800 -20.466200 -30.808400
C -7.490600 -23.373100 -29.879500
H -7.398400 -23.392100 -30.864400
H -7.294800 -18.995500 -32.448000
C -7.210600 -19.575300 -27.540900
H -7.101800 -20.182800 -26.767700
H -7.096100 -18.647200 -27.215500
O -6.277500 -19.628300 -29.768700
C -6.127000 -19.879000 -28.567500
C -6.110900 -23.275500 -29.255000
O -5.829600 -23.894300 -28.223600
H -5.541900 -22.024400 -30.586000
N -5.227000 -22.511700 -29.909200
N -5.002700 -20.396800 -28.065800
H -4.962000 -20.528200 -27.211100
C -3.920700 -22.171300 -29.363000
H -3.883100 -20.122100 -29.708000
C -3.874200 -20.712500 -28.913700
H -3.723400 -22.759000 -28.591400
H -3.226300 -22.326100 -30.051200
H -3.033300 -20.546600 -28.419000
116
Fragment
H -20.731200 -21.756400 -21.053500
H -20.538200 -19.976900 -22.685700
H -20.041100 -19.544000 -21.225900
C -19.890300 -21.590500 -21.548200
H -19.881400 -22.180900 -22.342500
C -19.843800 -20.131700 -21.997500
H -18.802500 -21.774800 -19.845600
N -18.761800 -21.906200 -20.700300
N -18.537500 -19.791300 -22.543700
H -18.222600 -20.278600 -23.220500
O -17.934900 -18.408700 -20.858100
C -17.653600 -19.027500 -21.889500
C -17.637500 -22.424000 -21.202000
O -17.487000 -22.674700 -22.403200
H -16.668400 -23.655800 -19.850000
H -16.662700 -22.120200 -19.402200
C -16.553900 -22.727700 -20.175400
H -16.469700 -23.307500 -25.082500
H -16.366100 -18.910900 -23.498900
C -16.273900 -18.929900 -22.514000
H -15.874700 -21.836800 -23.442900
H -15.874700 -19.921900 -20.180000
H -15.850900 -18.080300 -22.232000
H -15.580000 -24.492000 -22.918500
C -15.549000 -22.943700 -25.091300
N -15.472800 -21.787500 -24.209500
N -15.400300 -20.049900 -22.135100
H -15.333800 -22.670200 -26.017900
N -15.213200 -22.576400 -20.710000
H -15.049600 -21.220600 -18.266400
C -15.032600 -20.061100 -20.700100
H -14.994400 -24.595000 -20.707400
N -14.736700 -24.292600 -23.214300
H -14.714000 -24.855800 -25.147300
C -14.561900 -24.024700 -24.630400
H -14.535300 -18.689500 -18.301800
C -14.501900 -20.883400 -24.295400
H -14.477300 -18.059200 -20.552700
C -14.442000 -21.415000 -20.256300
C -14.424300 -23.801500 -20.870000
C -14.250100 -20.078700 -23.039700
C -14.193100 -21.378200 -18.736200
C -14.067700 -18.927200 -20.311500
H -14.017300 -19.150600 -23.294100
C -13.871400 -23.839200 -22.285600
H -13.837600 -22.252800 -18.440300
O -13.786600 -20.713100 -25.298900
C -13.726400 -18.919600 -18.823700
H -13.680700 -23.812400 -20.216800
H -13.635100 -23.722100 -24.799600
H -13.542900 -21.487100 -20.688200
H -13.474500 -20.464800 -22.560500
H -13.232100 -19.022200 -20.834100
C -13.201700 -20.277000 -18.367900
H -13.064800 -20.267400 -17.387000
H -13.041000 -18.227000 -18.648000
O -12.739800 -23.439200 -22.553900
H -12.329000 -20.457700 -18.799700
H -11.435500 -21.845300 -26.165200
O -11.024700 -18.863800 -29.919400
H -10.723500 -24.076000 -26.013500
H -10.699700 -22.035600 -24.752500
C -10.562800 -22.026000 -25.733400
H -10.532400 -23.280800 -28.199600
H -10.290000 -21.838200 -29.926000
H -10.221600 -20.815900 -28.053700
H -10.129400 -18.580900 -32.165100
H -10.083800 -18.490600 -27.582300
C -10.038100 -23.383400 -26.189200
O -9.977900 -21.589900 -32.664400
H -9.926900 -20.050200 -25.805800
C -9.893100 -18.463800 -29.651100
H -9.747200 -23.152400 -30.659600
C -9.696800 -23.375800 -27.677000
C -9.571400 -20.924800 -26.101700
C -9.514400 -22.224300 -30.405200
C -9.340200 -18.501500 -28.235500
C -9.322500 -20.888000 -27.621800
H -9.287200 -24.243800 -27.918200
C -9.262600 -21.419600 -31.660900
H -9.229200 -23.613500 -25.667300
C -9.202600 -18.278300 -31.995900
H -9.050500 -17.447200 -32.512800
N -9.027800 -18.010400 -30.579800
H -8.770100 -17.708000 -28.072900
C -8.731900 -22.241900 -28.065600
H -8.714900 -21.082400 -25.631900
N -8.551300 -19.726600 -28.075500
H -8.430700 -19.632800 -33.383400
N -8.364200 -22.253100 -29.500600
N -8.291700 -20.515500 -31.575000
C -8.215500 -19.359300 -32.456800
H -8.184500 -17.811000 -30.284000
H -7.913600 -24.222700 -29.597500
H -7.889800 -22.381100 -27.545500
H -7.889800 -20.466200 -30.808400
C -7.490600 -23.373100 -29.879500
H -7.398400 -23.392100 -30.864400
H -7.294800 -18.995500 -32.448000
C -7.210600 -19.575300 -27.540900
H -7.101800 -20.182800 -26.767700
H -7.096100 -18.647200 -27.215500
O -6.277500 -19.628300 -29.768700
C -6.127000 -19.879000 -28.567500
C -6.110900 -23.275500 -29.255000
O -5.829600 -23.894300 -28.223600
H -5.541900 -22.024400 -30.586000
N -5.227000 -22.511700 -29.909200
N -5.002700 -20.396800 -28.065800
H -4.962000 -20.528200 -27.211100
C -3.920700 -22.171300 -29.363000
H -3.883100 -20.122100 -29.708000
C -3.874200 -20.712500 -28.913700
H -3.723400 -22.759000 -28.591400
H -3.226300 -22.326100 -30.051200
H -3.033300 -20.546600 -28.419000
