58
Fragment
H -20.731200 -21.756400 -21.053500
H -20.538200 -19.976900 -22.685700
H -20.041100 -19.544000 -21.225900
C -19.890300 -21.590500 -21.548200
H -19.881400 -22.180900 -22.342500
C -19.843800 -20.131700 -21.997500
H -18.802500 -21.774800 -19.845600
N -18.761800 -21.906200 -20.700300
N -18.537500 -19.791300 -22.543700
H -18.222600 -20.278600 -23.220500
O -17.934900 -18.408700 -20.858100
C -17.653600 -19.027500 -21.889500
C -17.637500 -22.424000 -21.202000
O -17.487000 -22.674700 -22.403200
H -16.668400 -23.655800 -19.850000
H -16.662700 -22.120200 -19.402200
C -16.553900 -22.727700 -20.175400
H -16.469700 -23.307500 -25.082500
H -16.366100 -18.910900 -23.498900
C -16.273900 -18.929900 -22.514000
H -15.874700 -21.836800 -23.442900
H -15.874700 -19.921900 -20.180000
H -15.850900 -18.080300 -22.232000
H -15.580000 -24.492000 -22.918500
C -15.549000 -22.943700 -25.091300
N -15.472800 -21.787500 -24.209500
N -15.400300 -20.049900 -22.135100
H -15.333800 -22.670200 -26.017900
N -15.213200 -22.576400 -20.710000
H -15.049600 -21.220600 -18.266400
C -15.032600 -20.061100 -20.700100
H -14.994400 -24.595000 -20.707400
N -14.736700 -24.292600 -23.214300
H -14.714000 -24.855800 -25.147300
C -14.561900 -24.024700 -24.630400
H -14.535300 -18.689500 -18.301800
C -14.501900 -20.883400 -24.295400
H -14.477300 -18.059200 -20.552700
C -14.442000 -21.415000 -20.256300
C -14.424300 -23.801500 -20.870000
C -14.250100 -20.078700 -23.039700
C -14.193100 -21.378200 -18.736200
C -14.067700 -18.927200 -20.311500
H -14.017300 -19.150600 -23.294100
C -13.871400 -23.839200 -22.285600
H -13.837600 -22.252800 -18.440300
O -13.786600 -20.713100 -25.298900
C -13.726400 -18.919600 -18.823700
H -13.680700 -23.812400 -20.216800
H -13.635100 -23.722100 -24.799600
H -13.542900 -21.487100 -20.688200
H -13.474500 -20.464800 -22.560500
H -13.232100 -19.022200 -20.834100
C -13.201700 -20.277000 -18.367900
H -13.064800 -20.267400 -17.387000
H -13.041000 -18.227000 -18.648000
O -12.739800 -23.439200 -22.553900
H -12.329000 -20.457700 -18.799700
58
Fragment
H -20.941300 -21.845300 -11.434200
O -20.530500 -18.863800 -15.188400
H -20.229300 -24.076000 -11.282500
H -20.205500 -22.035600 -10.021500
C -20.068600 -22.026000 -11.002400
H -20.038200 -23.280800 -13.468600
H -19.795800 -21.838200 -15.195000
H -19.727400 -20.815900 -13.322700
H -19.635200 -18.580900 -17.434100
H -19.589600 -18.490600 -12.851300
C -19.543900 -23.383400 -11.458200
O -19.483700 -21.589900 -17.933400
H -19.432700 -20.050200 -11.074800
C -19.398900 -18.463800 -14.920100
H -19.253000 -23.152400 -15.928600
C -19.202600 -23.375800 -12.946000
C -19.077200 -20.924800 -11.370700
C -19.020200 -22.224300 -15.674200
C -18.846000 -18.501500 -13.504500
C -18.828300 -20.888000 -12.890800
H -18.793000 -24.243800 -13.187200
C -18.768400 -21.419600 -16.929900
H -18.735000 -23.613500 -10.936300
C -18.708400 -18.278300 -17.264900
H -18.556300 -17.447200 -17.781800
N -18.533600 -18.010400 -15.848800
H -18.275900 -17.708000 -13.341900
C -18.237700 -22.241900 -13.334600
H -18.220700 -21.082400 -10.900900
N -18.057100 -19.726600 -13.344500
H -17.936500 -19.632800 -18.652400
N -17.870000 -22.253100 -14.769600
N -17.797500 -20.515500 -16.844000
C -17.721300 -19.359300 -17.725800
H -17.690300 -17.811000 -15.553000
H -17.419400 -24.222700 -14.866500
H -17.395600 -22.381100 -12.814500
H -17.395600 -20.466200 -16.077400
C -16.996400 -23.373100 -15.148500
H -16.904200 -23.392100 -16.133400
H -16.800600 -18.995500 -17.717000
C -16.716400 -19.575300 -12.809900
H -16.607600 -20.182800 -12.036700
H -16.601900 -18.647200 -12.484500
O -15.783300 -19.628300 -15.037700
C -15.632800 -19.879000 -13.836500
C -15.616700 -23.275500 -14.524000
O -15.335400 -23.894300 -13.492600
H -15.047700 -22.024400 -15.855000
N -14.732800 -22.511700 -15.178200
N -14.508500 -20.396800 -13.334800
H -14.467800 -20.528200 -12.480100
C -13.426500 -22.171300 -14.632000
H -13.388900 -20.122100 -14.977000
C -13.380000 -20.712500 -14.182700
H -13.229200 -22.759000 -13.860400
H -12.732100 -22.326100 -15.320200
H -12.539100 -20.546600 -13.688000
116
Fragment
H -20.731200 -21.756400 -21.053500
H -20.538200 -19.976900 -22.685700
H -20.041100 -19.544000 -21.225900
C -19.890300 -21.590500 -21.548200
H -19.881400 -22.180900 -22.342500
C -19.843800 -20.131700 -21.997500
H -18.802500 -21.774800 -19.845600
N -18.761800 -21.906200 -20.700300
N -18.537500 -19.791300 -22.543700
H -18.222600 -20.278600 -23.220500
O -17.934900 -18.408700 -20.858100
C -17.653600 -19.027500 -21.889500
C -17.637500 -22.424000 -21.202000
O -17.487000 -22.674700 -22.403200
H -16.668400 -23.655800 -19.850000
H -16.662700 -22.120200 -19.402200
C -16.553900 -22.727700 -20.175400
H -16.469700 -23.307500 -25.082500
H -16.366100 -18.910900 -23.498900
C -16.273900 -18.929900 -22.514000
H -15.874700 -21.836800 -23.442900
H -15.874700 -19.921900 -20.180000
H -15.850900 -18.080300 -22.232000
H -15.580000 -24.492000 -22.918500
C -15.549000 -22.943700 -25.091300
N -15.472800 -21.787500 -24.209500
N -15.400300 -20.049900 -22.135100
H -15.333800 -22.670200 -26.017900
N -15.213200 -22.576400 -20.710000
H -15.049600 -21.220600 -18.266400
C -15.032600 -20.061100 -20.700100
H -14.994400 -24.595000 -20.707400
N -14.736700 -24.292600 -23.214300
H -14.714000 -24.855800 -25.147300
C -14.561900 -24.024700 -24.630400
H -14.535300 -18.689500 -18.301800
C -14.501900 -20.883400 -24.295400
H -14.477300 -18.059200 -20.552700
C -14.442000 -21.415000 -20.256300
C -14.424300 -23.801500 -20.870000
C -14.250100 -20.078700 -23.039700
C -14.193100 -21.378200 -18.736200
C -14.067700 -18.927200 -20.311500
H -14.017300 -19.150600 -23.294100
C -13.871400 -23.839200 -22.285600
H -13.837600 -22.252800 -18.440300
O -13.786600 -20.713100 -25.298900
C -13.726400 -18.919600 -18.823700
H -13.680700 -23.812400 -20.216800
H -13.635100 -23.722100 -24.799600
H -13.542900 -21.487100 -20.688200
H -13.474500 -20.464800 -22.560500
H -13.232100 -19.022200 -20.834100
C -13.201700 -20.277000 -18.367900
H -13.064800 -20.267400 -17.387000
H -13.041000 -18.227000 -18.648000
O -12.739800 -23.439200 -22.553900
H -12.329000 -20.457700 -18.799700
H -20.941300 -21.845300 -11.434200
O -20.530500 -18.863800 -15.188400
H -20.229300 -24.076000 -11.282500
H -20.205500 -22.035600 -10.021500
C -20.068600 -22.026000 -11.002400
H -20.038200 -23.280800 -13.468600
H -19.795800 -21.838200 -15.195000
H -19.727400 -20.815900 -13.322700
H -19.635200 -18.580900 -17.434100
H -19.589600 -18.490600 -12.851300
C -19.543900 -23.383400 -11.458200
O -19.483700 -21.589900 -17.933400
H -19.432700 -20.050200 -11.074800
C -19.398900 -18.463800 -14.920100
H -19.253000 -23.152400 -15.928600
C -19.202600 -23.375800 -12.946000
C -19.077200 -20.924800 -11.370700
C -19.020200 -22.224300 -15.674200
C -18.846000 -18.501500 -13.504500
C -18.828300 -20.888000 -12.890800
H -18.793000 -24.243800 -13.187200
C -18.768400 -21.419600 -16.929900
H -18.735000 -23.613500 -10.936300
C -18.708400 -18.278300 -17.264900
H -18.556300 -17.447200 -17.781800
N -18.533600 -18.010400 -15.848800
H -18.275900 -17.708000 -13.341900
C -18.237700 -22.241900 -13.334600
H -18.220700 -21.082400 -10.900900
N -18.057100 -19.726600 -13.344500
H -17.936500 -19.632800 -18.652400
N -17.870000 -22.253100 -14.769600
N -17.797500 -20.515500 -16.844000
C -17.721300 -19.359300 -17.725800
H -17.690300 -17.811000 -15.553000
H -17.419400 -24.222700 -14.866500
H -17.395600 -22.381100 -12.814500
H -17.395600 -20.466200 -16.077400
C -16.996400 -23.373100 -15.148500
H -16.904200 -23.392100 -16.133400
H -16.800600 -18.995500 -17.717000
C -16.716400 -19.575300 -12.809900
H -16.607600 -20.182800 -12.036700
H -16.601900 -18.647200 -12.484500
O -15.783300 -19.628300 -15.037700
C -15.632800 -19.879000 -13.836500
C -15.616700 -23.275500 -14.524000
O -15.335400 -23.894300 -13.492600
H -15.047700 -22.024400 -15.855000
N -14.732800 -22.511700 -15.178200
N -14.508500 -20.396800 -13.334800
H -14.467800 -20.528200 -12.480100
C -13.426500 -22.171300 -14.632000
H -13.388900 -20.122100 -14.977000
C -13.380000 -20.712500 -14.182700
H -13.229200 -22.759000 -13.860400
H -12.732100 -22.326100 -15.320200
H -12.539100 -20.546600 -13.688000
