8
Fragment
O -28.005300 -12.696000 -10.723600
H -27.830400 -14.182200 -8.788300
C -27.710600 -13.928600 -10.683600
N -27.660500 -14.591200 -9.525200
H -27.458700 -15.427300 -9.516700
H -27.409900 -14.174300 -12.560900
N -27.405800 -14.586100 -11.806400
H -27.206800 -15.422500 -11.773800
24
Fragment
H -28.247100 -8.598900 -10.718200
O -27.554300 -9.038400 -10.726500
O -26.627800 -7.023500 -10.562900
C -26.522400 -8.234500 -10.550600
H -25.911200 -10.732200 -10.473700
C -25.240600 -8.935300 -10.373100
C -25.123200 -10.252400 -10.360000
H -24.873600 -12.827200 -10.346100
H -24.776900 -15.049200 -9.528400
H -24.549900 -15.082000 -11.079200
H -24.472300 -8.424500 -10.263600
C -24.170900 -15.308500 -10.227000
C -24.035200 -12.446600 -10.215300
H -24.022000 -16.256300 -10.184900
C -23.909000 -11.052200 -10.190600
C -22.939600 -13.266900 -10.048800
O -22.936700 -14.627300 -10.060400
C -22.650400 -10.507000 -9.970300
H -22.550900 -9.582900 -9.933600
C -21.677000 -12.697000 -9.828500
C -21.538700 -11.319100 -9.804500
H -20.700800 -10.937900 -9.677400
O -20.660400 -13.578200 -9.696900
H -20.000400 -13.192500 -9.401000
32
Fragment
O -28.005300 -12.696000 -10.723600
H -27.830400 -14.182200 -8.788300
C -27.710600 -13.928600 -10.683600
N -27.660500 -14.591200 -9.525200
H -27.458700 -15.427300 -9.516700
H -27.409900 -14.174300 -12.560900
N -27.405800 -14.586100 -11.806400
H -27.206800 -15.422500 -11.773800
H -28.247100 -8.598900 -10.718200
O -27.554300 -9.038400 -10.726500
O -26.627800 -7.023500 -10.562900
C -26.522400 -8.234500 -10.550600
H -25.911200 -10.732200 -10.473700
C -25.240600 -8.935300 -10.373100
C -25.123200 -10.252400 -10.360000
H -24.873600 -12.827200 -10.346100
H -24.776900 -15.049200 -9.528400
H -24.549900 -15.082000 -11.079200
H -24.472300 -8.424500 -10.263600
C -24.170900 -15.308500 -10.227000
C -24.035200 -12.446600 -10.215300
H -24.022000 -16.256300 -10.184900
C -23.909000 -11.052200 -10.190600
C -22.939600 -13.266900 -10.048800
O -22.936700 -14.627300 -10.060400
C -22.650400 -10.507000 -9.970300
H -22.550900 -9.582900 -9.933600
C -21.677000 -12.697000 -9.828500
C -21.538700 -11.319100 -9.804500
H -20.700800 -10.937900 -9.677400
O -20.660400 -13.578200 -9.696900
H -20.000400 -13.192500 -9.401000
