8
Fragment
O -28.005300 -12.696000 -10.723600
H -27.830400 -14.182200 -8.788300
C -27.710600 -13.928600 -10.683600
N -27.660500 -14.591200 -9.525200
H -27.458700 -15.427300 -9.516700
H -27.409900 -14.174300 -12.560900
N -27.405800 -14.586100 -11.806400
H -27.206800 -15.422500 -11.773800
8
Fragment
O -27.580100 -13.069000 -14.359500
H -27.405200 -11.582800 -12.424200
C -27.285300 -11.836400 -14.319500
N -27.235300 -11.173800 -13.161100
H -27.033500 -10.337700 -13.152600
H -26.984700 -11.590700 -16.196800
N -26.980600 -11.178900 -15.442200
H -26.781600 -10.342500 -15.409700
16
Fragment
O -28.005300 -12.696000 -10.723600
H -27.830400 -14.182200 -8.788300
C -27.710600 -13.928600 -10.683600
N -27.660500 -14.591200 -9.525200
H -27.458700 -15.427300 -9.516700
H -27.409900 -14.174300 -12.560900
N -27.405800 -14.586100 -11.806400
H -27.206800 -15.422500 -11.773800
O -27.580100 -13.069000 -14.359500
H -27.405200 -11.582800 -12.424200
C -27.285300 -11.836400 -14.319500
N -27.235300 -11.173800 -13.161100
H -27.033500 -10.337700 -13.152600
H -26.984700 -11.590700 -16.196800
N -26.980600 -11.178900 -15.442200
H -26.781600 -10.342500 -15.409700
