8
Fragment
O -28.005300 -12.696000 -10.723600
H -27.830400 -14.182200 -8.788300
C -27.710600 -13.928600 -10.683600
N -27.660500 -14.591200 -9.525200
H -27.458700 -15.427300 -9.516700
H -27.409900 -14.174300 -12.560900
N -27.405800 -14.586100 -11.806400
H -27.206800 -15.422500 -11.773800
24
Fragment
H -37.937100 -7.419500 -12.414200
O -37.277100 -7.033800 -12.118300
H -37.236700 -9.674100 -12.137800
C -36.398800 -9.292900 -12.010700
C -36.260500 -7.915000 -11.986700
H -35.386600 -11.029100 -11.881600
C -35.287100 -10.105000 -11.844900
O -35.000800 -5.984700 -11.754800
C -34.997900 -7.345100 -11.766400
C -34.028500 -9.559800 -11.624600
H -33.915500 -4.355700 -11.630300
C -33.902300 -8.165400 -11.599900
C -33.766600 -5.303500 -11.588200
H -33.465200 -12.187500 -11.551600
H -33.387600 -5.530000 -10.736000
H -33.160600 -5.562800 -12.286800
H -33.063900 -7.784800 -11.469100
C -32.814300 -10.359600 -11.455200
C -32.696900 -11.676700 -11.442100
H -32.026300 -9.879800 -11.341500
C -31.415100 -12.377500 -11.264600
O -31.309700 -13.588500 -11.252300
O -30.383200 -11.573600 -11.088700
H -29.690400 -12.013100 -11.097000
32
Fragment
O -28.005300 -12.696000 -10.723600
H -27.830400 -14.182200 -8.788300
C -27.710600 -13.928600 -10.683600
N -27.660500 -14.591200 -9.525200
H -27.458700 -15.427300 -9.516700
H -27.409900 -14.174300 -12.560900
N -27.405800 -14.586100 -11.806400
H -27.206800 -15.422500 -11.773800
H -37.937100 -7.419500 -12.414200
O -37.277100 -7.033800 -12.118300
H -37.236700 -9.674100 -12.137800
C -36.398800 -9.292900 -12.010700
C -36.260500 -7.915000 -11.986700
H -35.386600 -11.029100 -11.881600
C -35.287100 -10.105000 -11.844900
O -35.000800 -5.984700 -11.754800
C -34.997900 -7.345100 -11.766400
C -34.028500 -9.559800 -11.624600
H -33.915500 -4.355700 -11.630300
C -33.902300 -8.165400 -11.599900
C -33.766600 -5.303500 -11.588200
H -33.465200 -12.187500 -11.551600
H -33.387600 -5.530000 -10.736000
H -33.160600 -5.562800 -12.286800
H -33.063900 -7.784800 -11.469100
C -32.814300 -10.359600 -11.455200
C -32.696900 -11.676700 -11.442100
H -32.026300 -9.879800 -11.341500
C -31.415100 -12.377500 -11.264600
O -31.309700 -13.588500 -11.252300
O -30.383200 -11.573600 -11.088700
H -29.690400 -12.013100 -11.097000
