8
Fragment
O -28.005300 -12.696000 -10.723600
H -27.830400 -14.182200 -8.788300
C -27.710600 -13.928600 -10.683600
N -27.660500 -14.591200 -9.525200
H -27.458700 -15.427300 -9.516700
H -27.409900 -14.174300 -12.560900
N -27.405800 -14.586100 -11.806400
H -27.206800 -15.422500 -11.773800
24
Fragment
H -28.247100 -18.904900 -10.718200
O -27.554300 -19.344400 -10.726500
O -26.627800 -17.329500 -10.562900
C -26.522400 -18.540500 -10.550600
H -25.911200 -21.038200 -10.473700
C -25.240600 -19.241300 -10.373100
C -25.123200 -20.558400 -10.360000
H -24.873600 -23.133200 -10.346100
H -24.776900 -25.355200 -9.528400
H -24.549900 -25.388000 -11.079200
H -24.472300 -18.730500 -10.263600
C -24.170900 -25.614500 -10.227000
C -24.035200 -22.752600 -10.215300
H -24.022000 -26.562300 -10.184900
C -23.909000 -21.358200 -10.190600
C -22.939600 -23.572900 -10.048800
O -22.936700 -24.933300 -10.060400
C -22.650400 -20.813000 -9.970300
H -22.550900 -19.888900 -9.933600
C -21.677000 -23.003000 -9.828500
C -21.538700 -21.625100 -9.804500
H -20.700800 -21.243900 -9.677400
O -20.660400 -23.884200 -9.696900
H -20.000400 -23.498500 -9.401000
32
Fragment
O -28.005300 -12.696000 -10.723600
H -27.830400 -14.182200 -8.788300
C -27.710600 -13.928600 -10.683600
N -27.660500 -14.591200 -9.525200
H -27.458700 -15.427300 -9.516700
H -27.409900 -14.174300 -12.560900
N -27.405800 -14.586100 -11.806400
H -27.206800 -15.422500 -11.773800
H -28.247100 -18.904900 -10.718200
O -27.554300 -19.344400 -10.726500
O -26.627800 -17.329500 -10.562900
C -26.522400 -18.540500 -10.550600
H -25.911200 -21.038200 -10.473700
C -25.240600 -19.241300 -10.373100
C -25.123200 -20.558400 -10.360000
H -24.873600 -23.133200 -10.346100
H -24.776900 -25.355200 -9.528400
H -24.549900 -25.388000 -11.079200
H -24.472300 -18.730500 -10.263600
C -24.170900 -25.614500 -10.227000
C -24.035200 -22.752600 -10.215300
H -24.022000 -26.562300 -10.184900
C -23.909000 -21.358200 -10.190600
C -22.939600 -23.572900 -10.048800
O -22.936700 -24.933300 -10.060400
C -22.650400 -20.813000 -9.970300
H -22.550900 -19.888900 -9.933600
C -21.677000 -23.003000 -9.828500
C -21.538700 -21.625100 -9.804500
H -20.700800 -21.243900 -9.677400
O -20.660400 -23.884200 -9.696900
H -20.000400 -23.498500 -9.401000
