29
Fragment
H -14.401300 -16.738600 -34.521500
H -14.012100 -18.194500 -32.737900
C -13.968900 -16.427700 -33.735200
Cl -13.875000 -14.010700 -34.950600
C -13.729400 -17.289600 -32.680500
C -13.570600 -15.105900 -33.630600
H -13.127400 -18.454600 -30.694400
C -13.079200 -16.842900 -31.536400
C -12.941100 -14.639700 -32.498300
O -12.826900 -17.691600 -30.508800
C -12.683800 -15.499700 -31.420000
H -12.679300 -13.727900 -32.446000
C -11.971400 -14.878700 -30.259100
O -11.770500 -13.667200 -30.215200
H -11.724300 -16.597700 -29.415300
N -11.549200 -15.747400 -29.277000
Cl -11.083500 -18.123200 -27.631600
C -10.881000 -15.446700 -28.097500
H -10.647600 -13.432100 -28.311800
C -10.606100 -16.508700 -27.216600
C -10.479700 -14.163600 -27.729600
C -9.962000 -16.304100 -26.011800
C -9.833700 -13.945800 -26.514600
H -9.771100 -17.028600 -25.427900
C -9.603700 -15.003600 -25.684400
H -9.557100 -13.071300 -26.268300
N -8.934900 -14.796500 -24.398600
O -8.702300 -15.750200 -23.678100
O -8.644300 -13.623900 -24.098200
29
Fragment
O -9.022300 -22.921100 -26.524800
O -8.964400 -20.794900 -26.944900
N -8.731800 -21.748600 -26.224400
H -8.109500 -23.473700 -24.354700
C -8.062900 -21.541500 -24.938600
H -7.895600 -19.516500 -25.195100
C -7.832900 -22.599200 -24.108400
C -7.704600 -20.240900 -24.611200
C -7.187000 -22.381500 -22.893400
C -7.060500 -20.036300 -23.406400
H -7.019000 -23.113000 -22.311200
C -6.785600 -21.098300 -22.525600
Cl -6.583200 -18.421800 -22.991500
N -6.117500 -20.797600 -21.346000
H -5.942300 -19.947400 -21.207700
O -5.896100 -22.877800 -20.407800
C -5.695200 -21.666400 -20.364000
H -4.987300 -22.817100 -18.177000
C -4.982800 -21.045300 -19.203000
O -4.839700 -18.853400 -20.114200
C -4.725500 -21.905300 -18.124700
C -4.587500 -19.702100 -19.086600
H -4.539200 -18.090500 -19.928600
C -4.096000 -21.439200 -16.992500
C -3.937200 -19.255500 -17.942500
Cl -3.791700 -22.534300 -15.672400
C -3.697700 -20.117300 -16.887800
H -3.654500 -18.350500 -17.885100
H -3.265400 -19.806400 -16.101500
58
Fragment
H -14.401300 -16.738600 -34.521500
H -14.012100 -18.194500 -32.737900
C -13.968900 -16.427700 -33.735200
Cl -13.875000 -14.010700 -34.950600
C -13.729400 -17.289600 -32.680500
C -13.570600 -15.105900 -33.630600
H -13.127400 -18.454600 -30.694400
C -13.079200 -16.842900 -31.536400
C -12.941100 -14.639700 -32.498300
O -12.826900 -17.691600 -30.508800
C -12.683800 -15.499700 -31.420000
H -12.679300 -13.727900 -32.446000
C -11.971400 -14.878700 -30.259100
O -11.770500 -13.667200 -30.215200
H -11.724300 -16.597700 -29.415300
N -11.549200 -15.747400 -29.277000
Cl -11.083500 -18.123200 -27.631600
C -10.881000 -15.446700 -28.097500
H -10.647600 -13.432100 -28.311800
C -10.606100 -16.508700 -27.216600
C -10.479700 -14.163600 -27.729600
C -9.962000 -16.304100 -26.011800
C -9.833700 -13.945800 -26.514600
H -9.771100 -17.028600 -25.427900
C -9.603700 -15.003600 -25.684400
H -9.557100 -13.071300 -26.268300
N -8.934900 -14.796500 -24.398600
O -8.702300 -15.750200 -23.678100
O -8.644300 -13.623900 -24.098200
O -9.022300 -22.921100 -26.524800
O -8.964400 -20.794900 -26.944900
N -8.731800 -21.748600 -26.224400
H -8.109500 -23.473700 -24.354700
C -8.062900 -21.541500 -24.938600
H -7.895600 -19.516500 -25.195100
C -7.832900 -22.599200 -24.108400
C -7.704600 -20.240900 -24.611200
C -7.187000 -22.381500 -22.893400
C -7.060500 -20.036300 -23.406400
H -7.019000 -23.113000 -22.311200
C -6.785600 -21.098300 -22.525600
Cl -6.583200 -18.421800 -22.991500
N -6.117500 -20.797600 -21.346000
H -5.942300 -19.947400 -21.207700
O -5.896100 -22.877800 -20.407800
C -5.695200 -21.666400 -20.364000
H -4.987300 -22.817100 -18.177000
C -4.982800 -21.045300 -19.203000
O -4.839700 -18.853400 -20.114200
C -4.725500 -21.905300 -18.124700
C -4.587500 -19.702100 -19.086600
H -4.539200 -18.090500 -19.928600
C -4.096000 -21.439200 -16.992500
C -3.937200 -19.255500 -17.942500
Cl -3.791700 -22.534300 -15.672400
C -3.697700 -20.117300 -16.887800
H -3.654500 -18.350500 -17.885100
H -3.265400 -19.806400 -16.101500
