29
Fragment
H -14.401300 -16.738600 -34.521500
H -14.012100 -18.194500 -32.737900
C -13.968900 -16.427700 -33.735200
Cl -13.875000 -14.010700 -34.950600
C -13.729400 -17.289600 -32.680500
C -13.570600 -15.105900 -33.630600
H -13.127400 -18.454600 -30.694400
C -13.079200 -16.842900 -31.536400
C -12.941100 -14.639700 -32.498300
O -12.826900 -17.691600 -30.508800
C -12.683800 -15.499700 -31.420000
H -12.679300 -13.727900 -32.446000
C -11.971400 -14.878700 -30.259100
O -11.770500 -13.667200 -30.215200
H -11.724300 -16.597700 -29.415300
N -11.549200 -15.747400 -29.277000
Cl -11.083500 -18.123200 -27.631600
C -10.881000 -15.446700 -28.097500
H -10.647600 -13.432100 -28.311800
C -10.606100 -16.508700 -27.216600
C -10.479700 -14.163600 -27.729600
C -9.962000 -16.304100 -26.011800
C -9.833700 -13.945800 -26.514600
H -9.771100 -17.028600 -25.427900
C -9.603700 -15.003600 -25.684400
H -9.557100 -13.071300 -26.268300
N -8.934900 -14.796500 -24.398600
O -8.702300 -15.750200 -23.678100
O -8.644300 -13.623900 -24.098200
29
Fragment
O -16.320000 -11.763900 -43.399100
O -16.262000 -9.637600 -43.819300
N -16.029400 -10.591300 -43.098700
H -15.407200 -12.316500 -41.229100
C -15.360600 -10.384200 -41.812900
H -15.193200 -8.359200 -42.069400
C -15.130600 -11.442000 -40.982700
C -15.002300 -9.083700 -41.485600
C -14.484600 -11.224200 -39.767800
C -14.358200 -8.879000 -40.280700
H -14.316700 -11.955700 -39.185600
C -14.083300 -9.941100 -39.399900
Cl -13.880800 -7.264600 -39.865800
N -13.415100 -9.640400 -38.220400
H -13.240000 -8.790100 -38.082000
O -13.193800 -11.720600 -37.282200
C -12.992900 -10.509100 -37.238300
H -12.285000 -11.659800 -35.051400
C -12.280500 -9.888100 -36.077300
O -12.137400 -7.696200 -36.988500
C -12.023200 -10.748000 -34.999100
C -11.885100 -8.544900 -35.960900
H -11.836900 -6.933200 -36.802900
C -11.393700 -10.281900 -33.866800
C -11.234900 -8.098200 -34.816800
Cl -11.089300 -11.377000 -32.546700
C -10.995400 -8.960100 -33.762200
H -10.952200 -7.193200 -34.759400
H -10.563000 -8.649100 -32.975800
58
Fragment
H -14.401300 -16.738600 -34.521500
H -14.012100 -18.194500 -32.737900
C -13.968900 -16.427700 -33.735200
Cl -13.875000 -14.010700 -34.950600
C -13.729400 -17.289600 -32.680500
C -13.570600 -15.105900 -33.630600
H -13.127400 -18.454600 -30.694400
C -13.079200 -16.842900 -31.536400
C -12.941100 -14.639700 -32.498300
O -12.826900 -17.691600 -30.508800
C -12.683800 -15.499700 -31.420000
H -12.679300 -13.727900 -32.446000
C -11.971400 -14.878700 -30.259100
O -11.770500 -13.667200 -30.215200
H -11.724300 -16.597700 -29.415300
N -11.549200 -15.747400 -29.277000
Cl -11.083500 -18.123200 -27.631600
C -10.881000 -15.446700 -28.097500
H -10.647600 -13.432100 -28.311800
C -10.606100 -16.508700 -27.216600
C -10.479700 -14.163600 -27.729600
C -9.962000 -16.304100 -26.011800
C -9.833700 -13.945800 -26.514600
H -9.771100 -17.028600 -25.427900
C -9.603700 -15.003600 -25.684400
H -9.557100 -13.071300 -26.268300
N -8.934900 -14.796500 -24.398600
O -8.702300 -15.750200 -23.678100
O -8.644300 -13.623900 -24.098200
O -16.320000 -11.763900 -43.399100
O -16.262000 -9.637600 -43.819300
N -16.029400 -10.591300 -43.098700
H -15.407200 -12.316500 -41.229100
C -15.360600 -10.384200 -41.812900
H -15.193200 -8.359200 -42.069400
C -15.130600 -11.442000 -40.982700
C -15.002300 -9.083700 -41.485600
C -14.484600 -11.224200 -39.767800
C -14.358200 -8.879000 -40.280700
H -14.316700 -11.955700 -39.185600
C -14.083300 -9.941100 -39.399900
Cl -13.880800 -7.264600 -39.865800
N -13.415100 -9.640400 -38.220400
H -13.240000 -8.790100 -38.082000
O -13.193800 -11.720600 -37.282200
C -12.992900 -10.509100 -37.238300
H -12.285000 -11.659800 -35.051400
C -12.280500 -9.888100 -36.077300
O -12.137400 -7.696200 -36.988500
C -12.023200 -10.748000 -34.999100
C -11.885100 -8.544900 -35.960900
H -11.836900 -6.933200 -36.802900
C -11.393700 -10.281900 -33.866800
C -11.234900 -8.098200 -34.816800
Cl -11.089300 -11.377000 -32.546700
C -10.995400 -8.960100 -33.762200
H -10.952200 -7.193200 -34.759400
H -10.563000 -8.649100 -32.975800
