29
Fragment
H -14.401300 -16.738600 -34.521500
H -14.012100 -18.194500 -32.737900
C -13.968900 -16.427700 -33.735200
Cl -13.875000 -14.010700 -34.950600
C -13.729400 -17.289600 -32.680500
C -13.570600 -15.105900 -33.630600
H -13.127400 -18.454600 -30.694400
C -13.079200 -16.842900 -31.536400
C -12.941100 -14.639700 -32.498300
O -12.826900 -17.691600 -30.508800
C -12.683800 -15.499700 -31.420000
H -12.679300 -13.727900 -32.446000
C -11.971400 -14.878700 -30.259100
O -11.770500 -13.667200 -30.215200
H -11.724300 -16.597700 -29.415300
N -11.549200 -15.747400 -29.277000
Cl -11.083500 -18.123200 -27.631600
C -10.881000 -15.446700 -28.097500
H -10.647600 -13.432100 -28.311800
C -10.606100 -16.508700 -27.216600
C -10.479700 -14.163600 -27.729600
C -9.962000 -16.304100 -26.011800
C -9.833700 -13.945800 -26.514600
H -9.771100 -17.028600 -25.427900
C -9.603700 -15.003600 -25.684400
H -9.557100 -13.071300 -26.268300
N -8.934900 -14.796500 -24.398600
O -8.702300 -15.750200 -23.678100
O -8.644300 -13.623900 -24.098200
6
Fragment
N -16.043500 -16.826200 -36.943000
H -15.744900 -13.833800 -37.471200
C -15.732600 -15.837800 -37.407000
H -15.701300 -14.518300 -38.917300
C -15.360200 -14.564000 -37.999300
H -14.383900 -14.481500 -38.009400
35
Fragment
H -14.401300 -16.738600 -34.521500
H -14.012100 -18.194500 -32.737900
C -13.968900 -16.427700 -33.735200
Cl -13.875000 -14.010700 -34.950600
C -13.729400 -17.289600 -32.680500
C -13.570600 -15.105900 -33.630600
H -13.127400 -18.454600 -30.694400
C -13.079200 -16.842900 -31.536400
C -12.941100 -14.639700 -32.498300
O -12.826900 -17.691600 -30.508800
C -12.683800 -15.499700 -31.420000
H -12.679300 -13.727900 -32.446000
C -11.971400 -14.878700 -30.259100
O -11.770500 -13.667200 -30.215200
H -11.724300 -16.597700 -29.415300
N -11.549200 -15.747400 -29.277000
Cl -11.083500 -18.123200 -27.631600
C -10.881000 -15.446700 -28.097500
H -10.647600 -13.432100 -28.311800
C -10.606100 -16.508700 -27.216600
C -10.479700 -14.163600 -27.729600
C -9.962000 -16.304100 -26.011800
C -9.833700 -13.945800 -26.514600
H -9.771100 -17.028600 -25.427900
C -9.603700 -15.003600 -25.684400
H -9.557100 -13.071300 -26.268300
N -8.934900 -14.796500 -24.398600
O -8.702300 -15.750200 -23.678100
O -8.644300 -13.623900 -24.098200
N -16.043500 -16.826200 -36.943000
H -15.744900 -13.833800 -37.471200
C -15.732600 -15.837800 -37.407000
H -15.701300 -14.518300 -38.917300
C -15.360200 -14.564000 -37.999300
H -14.383900 -14.481500 -38.009400
