4
Fragment
H -4.798700 -22.999800 -21.103300
O -4.642900 -23.906500 -21.104000
O -3.273100 -23.850500 -20.572000
H -3.117300 -24.757200 -20.572700
24
Fragment
H -8.628100 -29.808300 -22.273000
H -8.593900 -30.632900 -20.901900
H -8.228700 -27.364800 -21.954900
C -8.064900 -30.088700 -21.521200
C -7.720900 -27.625200 -21.195900
N -7.559100 -28.906400 -20.822300
H -7.310800 -30.617000 -21.857700
N -7.098700 -26.749300 -20.395000
C -6.770000 -28.874700 -19.681200
C -6.512000 -27.544500 -19.463100
O -6.480400 -31.111300 -18.918100
H -6.364700 -25.244400 -18.016500
C -6.296400 -29.903200 -18.814200
H -5.792300 -30.881300 -16.420300
N -5.734600 -27.116100 -18.413800
N -5.542200 -29.374700 -17.743400
C -5.511900 -25.683400 -18.216600
C -5.201900 -28.031600 -17.537800
H -5.129100 -25.296900 -19.032000
C -5.043000 -30.353400 -16.765400
H -4.891800 -25.548400 -17.469200
H -4.607300 -29.881600 -16.024400
O -4.463600 -27.690600 -16.618300
H -4.396200 -30.948100 -17.199700
28
Fragment
H -4.798700 -22.999800 -21.103300
O -4.642900 -23.906500 -21.104000
O -3.273100 -23.850500 -20.572000
H -3.117300 -24.757200 -20.572700
H -8.628100 -29.808300 -22.273000
H -8.593900 -30.632900 -20.901900
H -8.228700 -27.364800 -21.954900
C -8.064900 -30.088700 -21.521200
C -7.720900 -27.625200 -21.195900
N -7.559100 -28.906400 -20.822300
H -7.310800 -30.617000 -21.857700
N -7.098700 -26.749300 -20.395000
C -6.770000 -28.874700 -19.681200
C -6.512000 -27.544500 -19.463100
O -6.480400 -31.111300 -18.918100
H -6.364700 -25.244400 -18.016500
C -6.296400 -29.903200 -18.814200
H -5.792300 -30.881300 -16.420300
N -5.734600 -27.116100 -18.413800
N -5.542200 -29.374700 -17.743400
C -5.511900 -25.683400 -18.216600
C -5.201900 -28.031600 -17.537800
H -5.129100 -25.296900 -19.032000
C -5.043000 -30.353400 -16.765400
H -4.891800 -25.548400 -17.469200
H -4.607300 -29.881600 -16.024400
O -4.463600 -27.690600 -16.618300
H -4.396200 -30.948100 -17.199700
