24
Fragment
O -16.701800 -16.326300 -14.862400
O -16.284600 -14.051800 -13.379800
N -15.548600 -16.755600 -14.811000
N -15.414600 -13.552600 -14.084800
O -15.271500 -12.347400 -14.271100
O -15.254900 -17.937900 -14.707200
C -14.473100 -14.434800 -14.723700
C -14.471000 -15.795300 -14.944600
N -13.317900 -16.180800 -15.504900
N -13.292600 -13.946700 -15.171500
H -13.064400 -13.005200 -15.258700
C -12.638900 -15.040000 -15.636100
C -11.313100 -14.972000 -16.219200
H -10.887600 -17.006800 -16.596600
N -10.659400 -16.065300 -16.683800
N -10.634100 -13.831200 -16.350400
C -9.481000 -14.216700 -16.910700
C -9.478900 -15.577200 -17.131600
O -8.697100 -12.074100 -17.148100
O -8.680500 -17.664600 -17.584200
N -8.537500 -16.459400 -17.770500
N -8.403500 -13.256400 -17.044300
O -7.667500 -15.960200 -18.475400
O -7.250200 -13.685700 -16.992900
22
Fragment
H -25.075800 -20.175100 -17.981200
C -24.207200 -19.936000 -17.678600
H -24.129500 -18.134300 -18.675700
H -23.913100 -21.616600 -16.618900
C -23.643800 -18.700500 -18.087400
C -23.530700 -20.782300 -16.863100
C -22.415600 -18.318300 -17.646000
C -22.249000 -20.417200 -16.378000
H -22.044600 -17.492000 -17.930300
C -21.693300 -19.153400 -16.763700
N -21.550300 -21.233700 -15.558800
N -20.485800 -18.782300 -16.296500
C -20.342700 -20.862600 -15.091500
H -19.991500 -22.524000 -13.925000
C -19.787100 -19.598800 -15.477300
C -19.620400 -21.697700 -14.209300
C -18.505300 -19.233700 -14.992200
C -18.392200 -21.315500 -13.767800
H -18.122900 -18.399400 -15.236400
H -17.906500 -21.881700 -13.179600
C -17.828900 -20.080000 -14.176700
H -16.960200 -19.840900 -13.874000
46
Fragment
O -16.701800 -16.326300 -14.862400
O -16.284600 -14.051800 -13.379800
N -15.548600 -16.755600 -14.811000
N -15.414600 -13.552600 -14.084800
O -15.271500 -12.347400 -14.271100
O -15.254900 -17.937900 -14.707200
C -14.473100 -14.434800 -14.723700
C -14.471000 -15.795300 -14.944600
N -13.317900 -16.180800 -15.504900
N -13.292600 -13.946700 -15.171500
H -13.064400 -13.005200 -15.258700
C -12.638900 -15.040000 -15.636100
C -11.313100 -14.972000 -16.219200
H -10.887600 -17.006800 -16.596600
N -10.659400 -16.065300 -16.683800
N -10.634100 -13.831200 -16.350400
C -9.481000 -14.216700 -16.910700
C -9.478900 -15.577200 -17.131600
O -8.697100 -12.074100 -17.148100
O -8.680500 -17.664600 -17.584200
N -8.537500 -16.459400 -17.770500
N -8.403500 -13.256400 -17.044300
O -7.667500 -15.960200 -18.475400
O -7.250200 -13.685700 -16.992900
H -25.075800 -20.175100 -17.981200
C -24.207200 -19.936000 -17.678600
H -24.129500 -18.134300 -18.675700
H -23.913100 -21.616600 -16.618900
C -23.643800 -18.700500 -18.087400
C -23.530700 -20.782300 -16.863100
C -22.415600 -18.318300 -17.646000
C -22.249000 -20.417200 -16.378000
H -22.044600 -17.492000 -17.930300
C -21.693300 -19.153400 -16.763700
N -21.550300 -21.233700 -15.558800
N -20.485800 -18.782300 -16.296500
C -20.342700 -20.862600 -15.091500
H -19.991500 -22.524000 -13.925000
C -19.787100 -19.598800 -15.477300
C -19.620400 -21.697700 -14.209300
C -18.505300 -19.233700 -14.992200
C -18.392200 -21.315500 -13.767800
H -18.122900 -18.399400 -15.236400
H -17.906500 -21.881700 -13.179600
C -17.828900 -20.080000 -14.176700
H -16.960200 -19.840900 -13.874000
