24
Fragment
O -6.278100 -28.279200 -21.907000
O -6.200600 -28.598300 -24.044600
N -5.947700 -27.944200 -23.042100
N -5.296000 -25.997800 -24.346700
O -5.245800 -23.169600 -28.857300
C -5.219700 -26.706100 -23.205200
H -5.155100 -24.647000 -26.780200
N -4.646200 -23.921700 -26.326500
C -4.585000 -24.899000 -24.056300
C -4.474800 -26.019500 -22.262600
N -4.328400 -22.570900 -28.301500
C -4.310100 -23.846500 -25.024000
C -4.169200 -22.784600 -26.891900
N -4.070900 -24.856600 -22.803400
N -4.050800 -26.412100 -20.955200
O -3.882300 -25.523000 -20.120300
O -3.868700 -27.607500 -20.735300
N -3.656900 -22.718500 -24.711000
C -3.572400 -22.068100 -25.879400
H -3.560900 -24.174900 -22.325200
O -3.537800 -21.838800 -28.879400
O -3.207100 -20.042200 -26.887900
N -2.977700 -20.745700 -25.915700
O -2.305700 -20.404200 -24.961200
12
Fragment
H -0.927700 -18.250000 -23.470800
H -0.835600 -20.485300 -22.918100
C -0.084900 -18.678400 -23.373800
C -0.030400 -20.000700 -23.052300
O 1.012500 -16.716500 -23.870800
N 1.059100 -17.966300 -23.557700
N 1.153400 -20.626300 -22.923100
O 1.209100 -21.908100 -22.585200
C 2.253700 -18.612600 -23.437800
C 2.294600 -19.933500 -23.122600
H 3.064200 -18.135900 -23.576300
H 3.132600 -20.372800 -23.042100
36
Fragment
O -6.278100 -28.279200 -21.907000
O -6.200600 -28.598300 -24.044600
N -5.947700 -27.944200 -23.042100
N -5.296000 -25.997800 -24.346700
O -5.245800 -23.169600 -28.857300
C -5.219700 -26.706100 -23.205200
H -5.155100 -24.647000 -26.780200
N -4.646200 -23.921700 -26.326500
C -4.585000 -24.899000 -24.056300
C -4.474800 -26.019500 -22.262600
N -4.328400 -22.570900 -28.301500
C -4.310100 -23.846500 -25.024000
C -4.169200 -22.784600 -26.891900
N -4.070900 -24.856600 -22.803400
N -4.050800 -26.412100 -20.955200
O -3.882300 -25.523000 -20.120300
O -3.868700 -27.607500 -20.735300
N -3.656900 -22.718500 -24.711000
C -3.572400 -22.068100 -25.879400
H -3.560900 -24.174900 -22.325200
O -3.537800 -21.838800 -28.879400
O -3.207100 -20.042200 -26.887900
N -2.977700 -20.745700 -25.915700
O -2.305700 -20.404200 -24.961200
H -0.927700 -18.250000 -23.470800
H -0.835600 -20.485300 -22.918100
C -0.084900 -18.678400 -23.373800
C -0.030400 -20.000700 -23.052300
O 1.012500 -16.716500 -23.870800
N 1.059100 -17.966300 -23.557700
N 1.153400 -20.626300 -22.923100
O 1.209100 -21.908100 -22.585200
C 2.253700 -18.612600 -23.437800
C 2.294600 -19.933500 -23.122600
H 3.064200 -18.135900 -23.576300
H 3.132600 -20.372800 -23.042100
