24
Fragment
O -6.278100 -28.279200 -21.907000
O -6.200600 -28.598300 -24.044600
N -5.947700 -27.944200 -23.042100
N -5.296000 -25.997800 -24.346700
O -5.245800 -23.169600 -28.857300
C -5.219700 -26.706100 -23.205200
H -5.155100 -24.647000 -26.780200
N -4.646200 -23.921700 -26.326500
C -4.585000 -24.899000 -24.056300
C -4.474800 -26.019500 -22.262600
N -4.328400 -22.570900 -28.301500
C -4.310100 -23.846500 -25.024000
C -4.169200 -22.784600 -26.891900
N -4.070900 -24.856600 -22.803400
N -4.050800 -26.412100 -20.955200
O -3.882300 -25.523000 -20.120300
O -3.868700 -27.607500 -20.735300
N -3.656900 -22.718500 -24.711000
C -3.572400 -22.068100 -25.879400
H -3.560900 -24.174900 -22.325200
O -3.537800 -21.838800 -28.879400
O -3.207100 -20.042200 -26.887900
N -2.977700 -20.745700 -25.915700
O -2.305700 -20.404200 -24.961200
12
Fragment
H -6.667100 -21.355000 -31.844900
H -6.574900 -19.119700 -31.292200
C -5.824200 -20.926600 -31.747900
C -5.769700 -19.604300 -31.426300
O -4.726800 -22.888500 -32.244800
N -4.680200 -21.638700 -31.931800
N -4.585900 -18.978700 -31.297200
O -4.530200 -17.696900 -30.959200
C -3.485700 -20.992400 -31.811900
C -3.444700 -19.671500 -31.496700
H -2.675200 -21.469100 -31.950400
H -2.606800 -19.232200 -31.416100
36
Fragment
O -6.278100 -28.279200 -21.907000
O -6.200600 -28.598300 -24.044600
N -5.947700 -27.944200 -23.042100
N -5.296000 -25.997800 -24.346700
O -5.245800 -23.169600 -28.857300
C -5.219700 -26.706100 -23.205200
H -5.155100 -24.647000 -26.780200
N -4.646200 -23.921700 -26.326500
C -4.585000 -24.899000 -24.056300
C -4.474800 -26.019500 -22.262600
N -4.328400 -22.570900 -28.301500
C -4.310100 -23.846500 -25.024000
C -4.169200 -22.784600 -26.891900
N -4.070900 -24.856600 -22.803400
N -4.050800 -26.412100 -20.955200
O -3.882300 -25.523000 -20.120300
O -3.868700 -27.607500 -20.735300
N -3.656900 -22.718500 -24.711000
C -3.572400 -22.068100 -25.879400
H -3.560900 -24.174900 -22.325200
O -3.537800 -21.838800 -28.879400
O -3.207100 -20.042200 -26.887900
N -2.977700 -20.745700 -25.915700
O -2.305700 -20.404200 -24.961200
H -6.667100 -21.355000 -31.844900
H -6.574900 -19.119700 -31.292200
C -5.824200 -20.926600 -31.747900
C -5.769700 -19.604300 -31.426300
O -4.726800 -22.888500 -32.244800
N -4.680200 -21.638700 -31.931800
N -4.585900 -18.978700 -31.297200
O -4.530200 -17.696900 -30.959200
C -3.485700 -20.992400 -31.811900
C -3.444700 -19.671500 -31.496700
H -2.675200 -21.469100 -31.950400
H -2.606800 -19.232200 -31.416100
