24
Fragment
O -16.701800 -16.326300 -14.862400
O -16.284600 -14.051800 -13.379800
N -15.548600 -16.755600 -14.811000
N -15.414600 -13.552600 -14.084800
O -15.271500 -12.347400 -14.271100
O -15.254900 -17.937900 -14.707200
C -14.473100 -14.434800 -14.723700
C -14.471000 -15.795300 -14.944600
N -13.317900 -16.180800 -15.504900
N -13.292600 -13.946700 -15.171500
H -13.064400 -13.005200 -15.258700
C -12.638900 -15.040000 -15.636100
C -11.313100 -14.972000 -16.219200
H -10.887600 -17.006800 -16.596600
N -10.659400 -16.065300 -16.683800
N -10.634100 -13.831200 -16.350400
C -9.481000 -14.216700 -16.910700
C -9.478900 -15.577200 -17.131600
O -8.697100 -12.074100 -17.148100
O -8.680500 -17.664600 -17.584200
N -8.537500 -16.459400 -17.770500
N -8.403500 -13.256400 -17.044300
O -7.667500 -15.960200 -18.475400
O -7.250200 -13.685700 -16.992900
22
Fragment
H -21.083800 -14.838900 -12.672000
C -20.215200 -15.078000 -12.369400
H -20.137500 -16.879700 -13.366500
H -19.921100 -13.397400 -11.309700
C -19.651800 -16.313500 -12.778200
C -19.538700 -14.231700 -11.553900
C -18.423600 -16.695700 -12.336800
C -18.257000 -14.596800 -11.068800
H -18.052600 -17.522000 -12.621100
C -17.701300 -15.860600 -11.454500
N -17.558300 -13.780300 -10.249500
N -16.493800 -16.231700 -10.987300
C -16.350700 -14.151400 -9.782300
H -15.999500 -12.490000 -8.615800
C -15.795100 -15.415200 -10.168100
C -15.628400 -13.316300 -8.900000
C -14.513300 -15.780300 -9.682900
C -14.400200 -13.698500 -8.458600
H -14.130900 -16.614600 -9.927200
H -13.914500 -13.132300 -7.870400
C -13.836900 -14.934000 -8.867400
H -12.968200 -15.173100 -8.564800
46
Fragment
O -16.701800 -16.326300 -14.862400
O -16.284600 -14.051800 -13.379800
N -15.548600 -16.755600 -14.811000
N -15.414600 -13.552600 -14.084800
O -15.271500 -12.347400 -14.271100
O -15.254900 -17.937900 -14.707200
C -14.473100 -14.434800 -14.723700
C -14.471000 -15.795300 -14.944600
N -13.317900 -16.180800 -15.504900
N -13.292600 -13.946700 -15.171500
H -13.064400 -13.005200 -15.258700
C -12.638900 -15.040000 -15.636100
C -11.313100 -14.972000 -16.219200
H -10.887600 -17.006800 -16.596600
N -10.659400 -16.065300 -16.683800
N -10.634100 -13.831200 -16.350400
C -9.481000 -14.216700 -16.910700
C -9.478900 -15.577200 -17.131600
O -8.697100 -12.074100 -17.148100
O -8.680500 -17.664600 -17.584200
N -8.537500 -16.459400 -17.770500
N -8.403500 -13.256400 -17.044300
O -7.667500 -15.960200 -18.475400
O -7.250200 -13.685700 -16.992900
H -21.083800 -14.838900 -12.672000
C -20.215200 -15.078000 -12.369400
H -20.137500 -16.879700 -13.366500
H -19.921100 -13.397400 -11.309700
C -19.651800 -16.313500 -12.778200
C -19.538700 -14.231700 -11.553900
C -18.423600 -16.695700 -12.336800
C -18.257000 -14.596800 -11.068800
H -18.052600 -17.522000 -12.621100
C -17.701300 -15.860600 -11.454500
N -17.558300 -13.780300 -10.249500
N -16.493800 -16.231700 -10.987300
C -16.350700 -14.151400 -9.782300
H -15.999500 -12.490000 -8.615800
C -15.795100 -15.415200 -10.168100
C -15.628400 -13.316300 -8.900000
C -14.513300 -15.780300 -9.682900
C -14.400200 -13.698500 -8.458600
H -14.130900 -16.614600 -9.927200
H -13.914500 -13.132300 -7.870400
C -13.836900 -14.934000 -8.867400
H -12.968200 -15.173100 -8.564800
