24
Fragment
O -6.278100 -28.279200 -21.907000
O -6.200600 -28.598300 -24.044600
N -5.947700 -27.944200 -23.042100
N -5.296000 -25.997800 -24.346700
O -5.245800 -23.169600 -28.857300
C -5.219700 -26.706100 -23.205200
H -5.155100 -24.647000 -26.780200
N -4.646200 -23.921700 -26.326500
C -4.585000 -24.899000 -24.056300
C -4.474800 -26.019500 -22.262600
N -4.328400 -22.570900 -28.301500
C -4.310100 -23.846500 -25.024000
C -4.169200 -22.784600 -26.891900
N -4.070900 -24.856600 -22.803400
N -4.050800 -26.412100 -20.955200
O -3.882300 -25.523000 -20.120300
O -3.868700 -27.607500 -20.735300
N -3.656900 -22.718500 -24.711000
C -3.572400 -22.068100 -25.879400
H -3.560900 -24.174900 -22.325200
O -3.537800 -21.838800 -28.879400
O -3.207100 -20.042200 -26.887900
N -2.977700 -20.745700 -25.915700
O -2.305700 -20.404200 -24.961200
12
Fragment
H -4.085000 -17.316900 -26.976200
H -3.432100 -17.149000 -29.183600
C -3.168800 -17.181900 -27.188100
C -2.789800 -17.065500 -28.488400
O -2.593700 -17.266700 -24.968900
N -2.252500 -17.107500 -26.187900
N -1.497800 -16.830700 -28.783600
O -1.091000 -16.732800 -30.086100
C -0.950000 -16.828600 -26.513300
C -0.584600 -16.696000 -27.819600
H -0.301400 -16.727600 -25.827300
H 0.319100 -16.507400 -28.043000
36
Fragment
O -6.278100 -28.279200 -21.907000
O -6.200600 -28.598300 -24.044600
N -5.947700 -27.944200 -23.042100
N -5.296000 -25.997800 -24.346700
O -5.245800 -23.169600 -28.857300
C -5.219700 -26.706100 -23.205200
H -5.155100 -24.647000 -26.780200
N -4.646200 -23.921700 -26.326500
C -4.585000 -24.899000 -24.056300
C -4.474800 -26.019500 -22.262600
N -4.328400 -22.570900 -28.301500
C -4.310100 -23.846500 -25.024000
C -4.169200 -22.784600 -26.891900
N -4.070900 -24.856600 -22.803400
N -4.050800 -26.412100 -20.955200
O -3.882300 -25.523000 -20.120300
O -3.868700 -27.607500 -20.735300
N -3.656900 -22.718500 -24.711000
C -3.572400 -22.068100 -25.879400
H -3.560900 -24.174900 -22.325200
O -3.537800 -21.838800 -28.879400
O -3.207100 -20.042200 -26.887900
N -2.977700 -20.745700 -25.915700
O -2.305700 -20.404200 -24.961200
H -4.085000 -17.316900 -26.976200
H -3.432100 -17.149000 -29.183600
C -3.168800 -17.181900 -27.188100
C -2.789800 -17.065500 -28.488400
O -2.593700 -17.266700 -24.968900
N -2.252500 -17.107500 -26.187900
N -1.497800 -16.830700 -28.783600
O -1.091000 -16.732800 -30.086100
C -0.950000 -16.828600 -26.513300
C -0.584600 -16.696000 -27.819600
H -0.301400 -16.727600 -25.827300
H 0.319100 -16.507400 -28.043000
