24
Fragment
O -6.278100 -28.279200 -21.907000
O -6.200600 -28.598300 -24.044600
N -5.947700 -27.944200 -23.042100
N -5.296000 -25.997800 -24.346700
O -5.245800 -23.169600 -28.857300
C -5.219700 -26.706100 -23.205200
H -5.155100 -24.647000 -26.780200
N -4.646200 -23.921700 -26.326500
C -4.585000 -24.899000 -24.056300
C -4.474800 -26.019500 -22.262600
N -4.328400 -22.570900 -28.301500
C -4.310100 -23.846500 -25.024000
C -4.169200 -22.784600 -26.891900
N -4.070900 -24.856600 -22.803400
N -4.050800 -26.412100 -20.955200
O -3.882300 -25.523000 -20.120300
O -3.868700 -27.607500 -20.735300
N -3.656900 -22.718500 -24.711000
C -3.572400 -22.068100 -25.879400
H -3.560900 -24.174900 -22.325200
O -3.537800 -21.838800 -28.879400
O -3.207100 -20.042200 -26.887900
N -2.977700 -20.745700 -25.915700
O -2.305700 -20.404200 -24.961200
24
Fragment
O -9.909300 -27.121800 -25.283100
N -9.237200 -26.780300 -24.328600
O -9.007900 -27.483800 -23.356400
O -8.677100 -25.687200 -21.364900
H -8.654000 -23.351100 -27.919100
C -8.642600 -25.457900 -24.365000
N -8.558000 -24.807500 -25.533300
O -8.346300 -19.918500 -29.509000
O -8.332700 -22.003000 -30.124000
N -8.164100 -21.113900 -29.289100
N -8.144100 -22.669400 -27.440900
C -8.045700 -24.741400 -23.352400
C -7.904900 -23.679500 -25.220300
N -7.886500 -24.955100 -21.942900
C -7.740100 -21.506500 -27.981700
C -7.629900 -22.627000 -26.188000
N -7.568700 -23.604300 -23.917800
H -7.059900 -22.879000 -23.464100
C -6.995300 -20.819900 -27.039200
O -6.969100 -24.356400 -21.387000
N -6.918900 -21.528200 -25.897600
N -6.267300 -19.581800 -27.202300
O -6.014300 -18.927700 -26.199700
O -5.936800 -19.246800 -28.337300
48
Fragment
O -6.278100 -28.279200 -21.907000
O -6.200600 -28.598300 -24.044600
N -5.947700 -27.944200 -23.042100
N -5.296000 -25.997800 -24.346700
O -5.245800 -23.169600 -28.857300
C -5.219700 -26.706100 -23.205200
H -5.155100 -24.647000 -26.780200
N -4.646200 -23.921700 -26.326500
C -4.585000 -24.899000 -24.056300
C -4.474800 -26.019500 -22.262600
N -4.328400 -22.570900 -28.301500
C -4.310100 -23.846500 -25.024000
C -4.169200 -22.784600 -26.891900
N -4.070900 -24.856600 -22.803400
N -4.050800 -26.412100 -20.955200
O -3.882300 -25.523000 -20.120300
O -3.868700 -27.607500 -20.735300
N -3.656900 -22.718500 -24.711000
C -3.572400 -22.068100 -25.879400
H -3.560900 -24.174900 -22.325200
O -3.537800 -21.838800 -28.879400
O -3.207100 -20.042200 -26.887900
N -2.977700 -20.745700 -25.915700
O -2.305700 -20.404200 -24.961200
O -9.909300 -27.121800 -25.283100
N -9.237200 -26.780300 -24.328600
O -9.007900 -27.483800 -23.356400
O -8.677100 -25.687200 -21.364900
H -8.654000 -23.351100 -27.919100
C -8.642600 -25.457900 -24.365000
N -8.558000 -24.807500 -25.533300
O -8.346300 -19.918500 -29.509000
O -8.332700 -22.003000 -30.124000
N -8.164100 -21.113900 -29.289100
N -8.144100 -22.669400 -27.440900
C -8.045700 -24.741400 -23.352400
C -7.904900 -23.679500 -25.220300
N -7.886500 -24.955100 -21.942900
C -7.740100 -21.506500 -27.981700
C -7.629900 -22.627000 -26.188000
N -7.568700 -23.604300 -23.917800
H -7.059900 -22.879000 -23.464100
C -6.995300 -20.819900 -27.039200
O -6.969100 -24.356400 -21.387000
N -6.918900 -21.528200 -25.897600
N -6.267300 -19.581800 -27.202300
O -6.014300 -18.927700 -26.199700
O -5.936800 -19.246800 -28.337300
