24
Fragment
O -16.701800 -16.326300 -14.862400
O -16.284600 -14.051800 -13.379800
N -15.548600 -16.755600 -14.811000
N -15.414600 -13.552600 -14.084800
O -15.271500 -12.347400 -14.271100
O -15.254900 -17.937900 -14.707200
C -14.473100 -14.434800 -14.723700
C -14.471000 -15.795300 -14.944600
N -13.317900 -16.180800 -15.504900
N -13.292600 -13.946700 -15.171500
H -13.064400 -13.005200 -15.258700
C -12.638900 -15.040000 -15.636100
C -11.313100 -14.972000 -16.219200
H -10.887600 -17.006800 -16.596600
N -10.659400 -16.065300 -16.683800
N -10.634100 -13.831200 -16.350400
C -9.481000 -14.216700 -16.910700
C -9.478900 -15.577200 -17.131600
O -8.697100 -12.074100 -17.148100
O -8.680500 -17.664600 -17.584200
N -8.537500 -16.459400 -17.770500
N -8.403500 -13.256400 -17.044300
O -7.667500 -15.960200 -18.475400
O -7.250200 -13.685700 -16.992900
22
Fragment
H -6.991800 -10.171100 -17.981200
C -6.123200 -9.932000 -17.678600
H -6.045500 -8.130300 -18.675700
H -5.829100 -11.612600 -16.618900
C -5.559800 -8.696500 -18.087400
C -5.446700 -10.778300 -16.863100
C -4.331600 -8.314300 -17.646000
C -4.165000 -10.413200 -16.378000
H -3.960600 -7.488000 -17.930300
C -3.609300 -9.149400 -16.763700
N -3.466300 -11.229700 -15.558800
N -2.401800 -8.778300 -16.296500
C -2.258700 -10.858600 -15.091500
H -1.907500 -12.520000 -13.925000
C -1.703100 -9.594800 -15.477300
C -1.536400 -11.693700 -14.209300
C -0.421300 -9.229700 -14.992200
C -0.308200 -11.311500 -13.767800
H -0.038900 -8.395400 -15.236400
H 0.177500 -11.877700 -13.179600
C 0.255100 -10.076000 -14.176700
H 1.123800 -9.836900 -13.874000
46
Fragment
O -16.701800 -16.326300 -14.862400
O -16.284600 -14.051800 -13.379800
N -15.548600 -16.755600 -14.811000
N -15.414600 -13.552600 -14.084800
O -15.271500 -12.347400 -14.271100
O -15.254900 -17.937900 -14.707200
C -14.473100 -14.434800 -14.723700
C -14.471000 -15.795300 -14.944600
N -13.317900 -16.180800 -15.504900
N -13.292600 -13.946700 -15.171500
H -13.064400 -13.005200 -15.258700
C -12.638900 -15.040000 -15.636100
C -11.313100 -14.972000 -16.219200
H -10.887600 -17.006800 -16.596600
N -10.659400 -16.065300 -16.683800
N -10.634100 -13.831200 -16.350400
C -9.481000 -14.216700 -16.910700
C -9.478900 -15.577200 -17.131600
O -8.697100 -12.074100 -17.148100
O -8.680500 -17.664600 -17.584200
N -8.537500 -16.459400 -17.770500
N -8.403500 -13.256400 -17.044300
O -7.667500 -15.960200 -18.475400
O -7.250200 -13.685700 -16.992900
H -6.991800 -10.171100 -17.981200
C -6.123200 -9.932000 -17.678600
H -6.045500 -8.130300 -18.675700
H -5.829100 -11.612600 -16.618900
C -5.559800 -8.696500 -18.087400
C -5.446700 -10.778300 -16.863100
C -4.331600 -8.314300 -17.646000
C -4.165000 -10.413200 -16.378000
H -3.960600 -7.488000 -17.930300
C -3.609300 -9.149400 -16.763700
N -3.466300 -11.229700 -15.558800
N -2.401800 -8.778300 -16.296500
C -2.258700 -10.858600 -15.091500
H -1.907500 -12.520000 -13.925000
C -1.703100 -9.594800 -15.477300
C -1.536400 -11.693700 -14.209300
C -0.421300 -9.229700 -14.992200
C -0.308200 -11.311500 -13.767800
H -0.038900 -8.395400 -15.236400
H 0.177500 -11.877700 -13.179600
C 0.255100 -10.076000 -14.176700
H 1.123800 -9.836900 -13.874000
