24
Fragment
O -16.701800 -16.326300 -14.862400
O -16.284600 -14.051800 -13.379800
N -15.548600 -16.755600 -14.811000
N -15.414600 -13.552600 -14.084800
O -15.271500 -12.347400 -14.271100
O -15.254900 -17.937900 -14.707200
C -14.473100 -14.434800 -14.723700
C -14.471000 -15.795300 -14.944600
N -13.317900 -16.180800 -15.504900
N -13.292600 -13.946700 -15.171500
H -13.064400 -13.005200 -15.258700
C -12.638900 -15.040000 -15.636100
C -11.313100 -14.972000 -16.219200
H -10.887600 -17.006800 -16.596600
N -10.659400 -16.065300 -16.683800
N -10.634100 -13.831200 -16.350400
C -9.481000 -14.216700 -16.910700
C -9.478900 -15.577200 -17.131600
O -8.697100 -12.074100 -17.148100
O -8.680500 -17.664600 -17.584200
N -8.537500 -16.459400 -17.770500
N -8.403500 -13.256400 -17.044300
O -7.667500 -15.960200 -18.475400
O -7.250200 -13.685700 -16.992900
24
Fragment
O -21.751800 -18.687700 -9.553200
O -21.334600 -20.962200 -8.070600
N -20.598500 -18.258400 -9.501800
N -20.464600 -21.461400 -8.775600
O -20.321500 -22.666600 -8.961800
O -20.304900 -17.076100 -9.397900
C -19.523100 -20.579200 -9.414500
C -19.521000 -19.218700 -9.635400
N -18.367900 -18.833200 -10.195700
N -18.342600 -21.067300 -9.862300
H -18.114400 -22.008800 -9.949500
C -17.688900 -19.974000 -10.326800
C -16.363100 -20.042000 -10.910000
H -15.937600 -18.007200 -11.287400
N -15.709400 -18.948700 -11.374600
N -15.684100 -21.182800 -11.041100
C -14.531000 -20.797300 -11.601500
C -14.528900 -19.436800 -11.822300
O -13.747100 -22.939900 -11.838900
O -13.730500 -17.349400 -12.275000
N -13.587500 -18.554600 -12.461300
N -13.453500 -21.757600 -11.735100
O -12.717500 -19.053800 -13.166200
O -12.300200 -21.328300 -11.683700
48
Fragment
O -16.701800 -16.326300 -14.862400
O -16.284600 -14.051800 -13.379800
N -15.548600 -16.755600 -14.811000
N -15.414600 -13.552600 -14.084800
O -15.271500 -12.347400 -14.271100
O -15.254900 -17.937900 -14.707200
C -14.473100 -14.434800 -14.723700
C -14.471000 -15.795300 -14.944600
N -13.317900 -16.180800 -15.504900
N -13.292600 -13.946700 -15.171500
H -13.064400 -13.005200 -15.258700
C -12.638900 -15.040000 -15.636100
C -11.313100 -14.972000 -16.219200
H -10.887600 -17.006800 -16.596600
N -10.659400 -16.065300 -16.683800
N -10.634100 -13.831200 -16.350400
C -9.481000 -14.216700 -16.910700
C -9.478900 -15.577200 -17.131600
O -8.697100 -12.074100 -17.148100
O -8.680500 -17.664600 -17.584200
N -8.537500 -16.459400 -17.770500
N -8.403500 -13.256400 -17.044300
O -7.667500 -15.960200 -18.475400
O -7.250200 -13.685700 -16.992900
O -21.751800 -18.687700 -9.553200
O -21.334600 -20.962200 -8.070600
N -20.598500 -18.258400 -9.501800
N -20.464600 -21.461400 -8.775600
O -20.321500 -22.666600 -8.961800
O -20.304900 -17.076100 -9.397900
C -19.523100 -20.579200 -9.414500
C -19.521000 -19.218700 -9.635400
N -18.367900 -18.833200 -10.195700
N -18.342600 -21.067300 -9.862300
H -18.114400 -22.008800 -9.949500
C -17.688900 -19.974000 -10.326800
C -16.363100 -20.042000 -10.910000
H -15.937600 -18.007200 -11.287400
N -15.709400 -18.948700 -11.374600
N -15.684100 -21.182800 -11.041100
C -14.531000 -20.797300 -11.601500
C -14.528900 -19.436800 -11.822300
O -13.747100 -22.939900 -11.838900
O -13.730500 -17.349400 -12.275000
N -13.587500 -18.554600 -12.461300
N -13.453500 -21.757600 -11.735100
O -12.717500 -19.053800 -13.166200
O -12.300200 -21.328300 -11.683700
