32
Fragment
H -9.022600 -8.345400 -14.756600
O -8.514700 -7.744500 -14.989600
H -8.235500 -8.268500 -21.631000
N -7.456600 -8.290100 -21.995900
H -7.383400 -8.310400 -22.853100
H -7.379800 -9.593500 -16.285900
C -7.169900 -8.147800 -14.765800
H -7.071600 -8.615300 -13.910400
H -7.069700 -7.620000 -17.420400
H -6.818000 -6.103900 -14.678500
C -6.679100 -9.004700 -15.936600
N -6.558900 -8.254500 -19.891500
C -6.366000 -8.293300 -21.235700
C -6.276900 -6.905500 -14.835400
C -6.276800 -7.931900 -16.937400
O -5.739100 -6.868000 -16.172300
F -5.546300 -9.714800 -15.528100
H -5.519100 -7.256700 -12.106300
O -5.505400 -6.578400 -12.566600
C -5.424200 -8.311700 -19.228100
N -5.246800 -8.303400 -17.884000
N -5.181600 -8.328200 -21.894500
C -5.089100 -6.909900 -13.886300
H -4.676100 -7.787700 -13.886200
H -4.428400 -6.267100 -14.189400
N -4.186000 -8.410200 -19.784100
C -4.051600 -8.393600 -21.190500
C -3.871200 -8.383500 -17.608100
H -3.483400 -8.388600 -16.762900
C -3.214400 -8.451400 -18.775900
O -2.913800 -8.434300 -21.663600
H -2.293600 -8.513700 -18.893100
32
Fragment
H -13.288800 -5.337900 -8.054700
O -12.668500 -5.258500 -5.284200
C -12.367900 -5.275600 -8.171900
H -12.098900 -5.212800 -10.184900
C -11.711200 -5.207700 -9.339700
C -11.530800 -5.217800 -5.757300
N -11.396300 -5.234400 -7.163700
H -11.153900 -3.091300 -12.758400
H -10.906300 -4.611900 -13.061600
C -10.493300 -3.734100 -13.061500
N -10.400700 -5.152400 -5.053200
N -10.335600 -5.127600 -9.063800
C -10.158200 -5.135900 -7.719700
O -10.077000 -3.402600 -14.381200
H -10.063300 -4.080900 -14.841500
F -10.036000 -6.539000 -11.419700
O -9.843200 -3.692200 -10.775500
C -9.305500 -4.756100 -10.010400
C -9.305500 -3.729700 -12.112400
C -9.216400 -5.117500 -5.712100
N -9.023500 -5.078700 -7.056300
C -8.903200 -5.828900 -11.011100
H -8.764400 -2.928100 -12.269300
H -8.512700 -4.444200 -9.527400
H -8.510800 -5.439500 -13.037300
C -8.412400 -4.972000 -12.182000
H -8.202600 -6.417700 -10.661900
H -8.198900 -5.134600 -4.094700
N -8.125800 -5.114300 -4.951900
H -7.346800 -5.092700 -5.316800
O -7.067700 -4.568700 -11.958200
H -6.559700 -5.169600 -12.191200
64
Fragment
H -9.022600 -8.345400 -14.756600
O -8.514700 -7.744500 -14.989600
H -8.235500 -8.268500 -21.631000
N -7.456600 -8.290100 -21.995900
H -7.383400 -8.310400 -22.853100
H -7.379800 -9.593500 -16.285900
C -7.169900 -8.147800 -14.765800
H -7.071600 -8.615300 -13.910400
H -7.069700 -7.620000 -17.420400
H -6.818000 -6.103900 -14.678500
C -6.679100 -9.004700 -15.936600
N -6.558900 -8.254500 -19.891500
C -6.366000 -8.293300 -21.235700
C -6.276900 -6.905500 -14.835400
C -6.276800 -7.931900 -16.937400
O -5.739100 -6.868000 -16.172300
F -5.546300 -9.714800 -15.528100
H -5.519100 -7.256700 -12.106300
O -5.505400 -6.578400 -12.566600
C -5.424200 -8.311700 -19.228100
N -5.246800 -8.303400 -17.884000
N -5.181600 -8.328200 -21.894500
C -5.089100 -6.909900 -13.886300
H -4.676100 -7.787700 -13.886200
H -4.428400 -6.267100 -14.189400
N -4.186000 -8.410200 -19.784100
C -4.051600 -8.393600 -21.190500
C -3.871200 -8.383500 -17.608100
H -3.483400 -8.388600 -16.762900
C -3.214400 -8.451400 -18.775900
O -2.913800 -8.434300 -21.663600
H -2.293600 -8.513700 -18.893100
H -13.288800 -5.337900 -8.054700
O -12.668500 -5.258500 -5.284200
C -12.367900 -5.275600 -8.171900
H -12.098900 -5.212800 -10.184900
C -11.711200 -5.207700 -9.339700
C -11.530800 -5.217800 -5.757300
N -11.396300 -5.234400 -7.163700
H -11.153900 -3.091300 -12.758400
H -10.906300 -4.611900 -13.061600
C -10.493300 -3.734100 -13.061500
N -10.400700 -5.152400 -5.053200
N -10.335600 -5.127600 -9.063800
C -10.158200 -5.135900 -7.719700
O -10.077000 -3.402600 -14.381200
H -10.063300 -4.080900 -14.841500
F -10.036000 -6.539000 -11.419700
O -9.843200 -3.692200 -10.775500
C -9.305500 -4.756100 -10.010400
C -9.305500 -3.729700 -12.112400
C -9.216400 -5.117500 -5.712100
N -9.023500 -5.078700 -7.056300
C -8.903200 -5.828900 -11.011100
H -8.764400 -2.928100 -12.269300
H -8.512700 -4.444200 -9.527400
H -8.510800 -5.439500 -13.037300
C -8.412400 -4.972000 -12.182000
H -8.202600 -6.417700 -10.661900
H -8.198900 -5.134600 -4.094700
N -8.125800 -5.114300 -4.951900
H -7.346800 -5.092700 -5.316800
O -7.067700 -4.568700 -11.958200
H -6.559700 -5.169600 -12.191200
