32
Fragment
H -9.022600 -8.345400 -14.756600
O -8.514700 -7.744500 -14.989600
H -8.235500 -8.268500 -21.631000
N -7.456600 -8.290100 -21.995900
H -7.383400 -8.310400 -22.853100
H -7.379800 -9.593500 -16.285900
C -7.169900 -8.147800 -14.765800
H -7.071600 -8.615300 -13.910400
H -7.069700 -7.620000 -17.420400
H -6.818000 -6.103900 -14.678500
C -6.679100 -9.004700 -15.936600
N -6.558900 -8.254500 -19.891500
C -6.366000 -8.293300 -21.235700
C -6.276900 -6.905500 -14.835400
C -6.276800 -7.931900 -16.937400
O -5.739100 -6.868000 -16.172300
F -5.546300 -9.714800 -15.528100
H -5.519100 -7.256700 -12.106300
O -5.505400 -6.578400 -12.566600
C -5.424200 -8.311700 -19.228100
N -5.246800 -8.303400 -17.884000
N -5.181600 -8.328200 -21.894500
C -5.089100 -6.909900 -13.886300
H -4.676100 -7.787700 -13.886200
H -4.428400 -6.267100 -14.189400
N -4.186000 -8.410200 -19.784100
C -4.051600 -8.393600 -21.190500
C -3.871200 -8.383500 -17.608100
H -3.483400 -8.388600 -16.762900
C -3.214400 -8.451400 -18.775900
O -2.913800 -8.434300 -21.663600
H -2.293600 -8.513700 -18.893100
32
Fragment
H -10.017100 -11.689500 -21.528600
O -9.396900 -11.610100 -18.758100
C -9.096300 -11.627200 -21.645800
H -8.827300 -11.564400 -23.658800
C -8.439500 -11.559300 -22.813600
C -8.259200 -11.569400 -19.231200
N -8.124700 -11.586000 -20.637600
H -7.882300 -9.442900 -26.232300
H -7.634600 -10.963500 -26.535500
C -7.221700 -10.085700 -26.535300
N -7.129100 -11.504000 -18.527100
N -7.063900 -11.479200 -22.537600
C -6.886600 -11.487500 -21.193600
O -6.805300 -9.754200 -27.855100
H -6.791700 -10.432500 -28.315400
F -6.764400 -12.890600 -24.893600
O -6.571600 -10.043800 -24.249400
C -6.033900 -11.107700 -23.484300
C -6.033900 -10.081300 -25.586200
C -5.944700 -11.469100 -19.186000
N -5.751800 -11.430300 -20.530200
C -5.631600 -12.180500 -24.485000
H -5.492800 -9.279700 -25.743200
H -5.241100 -10.795800 -23.001300
H -5.239200 -11.791100 -26.511200
C -5.140800 -11.323600 -25.655900
H -4.930900 -12.769300 -24.135800
H -4.927300 -11.486200 -17.568600
N -4.854100 -11.465900 -18.425800
H -4.075200 -11.444300 -18.790700
O -3.796000 -10.920300 -25.432100
H -3.288100 -11.521200 -25.665100
64
Fragment
H -9.022600 -8.345400 -14.756600
O -8.514700 -7.744500 -14.989600
H -8.235500 -8.268500 -21.631000
N -7.456600 -8.290100 -21.995900
H -7.383400 -8.310400 -22.853100
H -7.379800 -9.593500 -16.285900
C -7.169900 -8.147800 -14.765800
H -7.071600 -8.615300 -13.910400
H -7.069700 -7.620000 -17.420400
H -6.818000 -6.103900 -14.678500
C -6.679100 -9.004700 -15.936600
N -6.558900 -8.254500 -19.891500
C -6.366000 -8.293300 -21.235700
C -6.276900 -6.905500 -14.835400
C -6.276800 -7.931900 -16.937400
O -5.739100 -6.868000 -16.172300
F -5.546300 -9.714800 -15.528100
H -5.519100 -7.256700 -12.106300
O -5.505400 -6.578400 -12.566600
C -5.424200 -8.311700 -19.228100
N -5.246800 -8.303400 -17.884000
N -5.181600 -8.328200 -21.894500
C -5.089100 -6.909900 -13.886300
H -4.676100 -7.787700 -13.886200
H -4.428400 -6.267100 -14.189400
N -4.186000 -8.410200 -19.784100
C -4.051600 -8.393600 -21.190500
C -3.871200 -8.383500 -17.608100
H -3.483400 -8.388600 -16.762900
C -3.214400 -8.451400 -18.775900
O -2.913800 -8.434300 -21.663600
H -2.293600 -8.513700 -18.893100
H -10.017100 -11.689500 -21.528600
O -9.396900 -11.610100 -18.758100
C -9.096300 -11.627200 -21.645800
H -8.827300 -11.564400 -23.658800
C -8.439500 -11.559300 -22.813600
C -8.259200 -11.569400 -19.231200
N -8.124700 -11.586000 -20.637600
H -7.882300 -9.442900 -26.232300
H -7.634600 -10.963500 -26.535500
C -7.221700 -10.085700 -26.535300
N -7.129100 -11.504000 -18.527100
N -7.063900 -11.479200 -22.537600
C -6.886600 -11.487500 -21.193600
O -6.805300 -9.754200 -27.855100
H -6.791700 -10.432500 -28.315400
F -6.764400 -12.890600 -24.893600
O -6.571600 -10.043800 -24.249400
C -6.033900 -11.107700 -23.484300
C -6.033900 -10.081300 -25.586200
C -5.944700 -11.469100 -19.186000
N -5.751800 -11.430300 -20.530200
C -5.631600 -12.180500 -24.485000
H -5.492800 -9.279700 -25.743200
H -5.241100 -10.795800 -23.001300
H -5.239200 -11.791100 -26.511200
C -5.140800 -11.323600 -25.655900
H -4.930900 -12.769300 -24.135800
H -4.927300 -11.486200 -17.568600
N -4.854100 -11.465900 -18.425800
H -4.075200 -11.444300 -18.790700
O -3.796000 -10.920300 -25.432100
H -3.288100 -11.521200 -25.665100
