32
Fragment
H -9.022600 -8.345400 -14.756600
O -8.514700 -7.744500 -14.989600
H -8.235500 -8.268500 -21.631000
N -7.456600 -8.290100 -21.995900
H -7.383400 -8.310400 -22.853100
H -7.379800 -9.593500 -16.285900
C -7.169900 -8.147800 -14.765800
H -7.071600 -8.615300 -13.910400
H -7.069700 -7.620000 -17.420400
H -6.818000 -6.103900 -14.678500
C -6.679100 -9.004700 -15.936600
N -6.558900 -8.254500 -19.891500
C -6.366000 -8.293300 -21.235700
C -6.276900 -6.905500 -14.835400
C -6.276800 -7.931900 -16.937400
O -5.739100 -6.868000 -16.172300
F -5.546300 -9.714800 -15.528100
H -5.519100 -7.256700 -12.106300
O -5.505400 -6.578400 -12.566600
C -5.424200 -8.311700 -19.228100
N -5.246800 -8.303400 -17.884000
N -5.181600 -8.328200 -21.894500
C -5.089100 -6.909900 -13.886300
H -4.676100 -7.787700 -13.886200
H -4.428400 -6.267100 -14.189400
N -4.186000 -8.410200 -19.784100
C -4.051600 -8.393600 -21.190500
C -3.871200 -8.383500 -17.608100
H -3.483400 -8.388600 -16.762900
C -3.214400 -8.451400 -18.775900
O -2.913800 -8.434300 -21.663600
H -2.293600 -8.513700 -18.893100
32
Fragment
H -16.397800 -8.345400 -14.756600
O -15.889900 -7.744500 -14.989600
H -15.610700 -8.268500 -21.631000
N -14.831800 -8.290100 -21.995900
H -14.758600 -8.310400 -22.853100
H -14.755000 -9.593500 -16.285900
C -14.545100 -8.147800 -14.765800
H -14.446800 -8.615300 -13.910400
H -14.444900 -7.620000 -17.420400
H -14.193200 -6.103900 -14.678500
C -14.054300 -9.004700 -15.936600
N -13.934100 -8.254500 -19.891500
C -13.741200 -8.293300 -21.235700
C -13.652100 -6.905500 -14.835400
C -13.652000 -7.931900 -16.937400
O -13.114300 -6.868000 -16.172300
F -12.921500 -9.714800 -15.528100
H -12.894300 -7.256700 -12.106300
O -12.880600 -6.578400 -12.566600
C -12.799400 -8.311700 -19.228100
N -12.622000 -8.303400 -17.884000
N -12.556800 -8.328200 -21.894500
C -12.464300 -6.909900 -13.886300
H -12.051300 -7.787700 -13.886200
H -11.803600 -6.267100 -14.189400
N -11.561200 -8.410200 -19.784100
C -11.426800 -8.393600 -21.190500
C -11.246400 -8.383500 -17.608100
H -10.858600 -8.388600 -16.762900
C -10.589600 -8.451400 -18.775900
O -10.289000 -8.434300 -21.663600
H -9.668800 -8.513700 -18.893100
64
Fragment
H -9.022600 -8.345400 -14.756600
O -8.514700 -7.744500 -14.989600
H -8.235500 -8.268500 -21.631000
N -7.456600 -8.290100 -21.995900
H -7.383400 -8.310400 -22.853100
H -7.379800 -9.593500 -16.285900
C -7.169900 -8.147800 -14.765800
H -7.071600 -8.615300 -13.910400
H -7.069700 -7.620000 -17.420400
H -6.818000 -6.103900 -14.678500
C -6.679100 -9.004700 -15.936600
N -6.558900 -8.254500 -19.891500
C -6.366000 -8.293300 -21.235700
C -6.276900 -6.905500 -14.835400
C -6.276800 -7.931900 -16.937400
O -5.739100 -6.868000 -16.172300
F -5.546300 -9.714800 -15.528100
H -5.519100 -7.256700 -12.106300
O -5.505400 -6.578400 -12.566600
C -5.424200 -8.311700 -19.228100
N -5.246800 -8.303400 -17.884000
N -5.181600 -8.328200 -21.894500
C -5.089100 -6.909900 -13.886300
H -4.676100 -7.787700 -13.886200
H -4.428400 -6.267100 -14.189400
N -4.186000 -8.410200 -19.784100
C -4.051600 -8.393600 -21.190500
C -3.871200 -8.383500 -17.608100
H -3.483400 -8.388600 -16.762900
C -3.214400 -8.451400 -18.775900
O -2.913800 -8.434300 -21.663600
H -2.293600 -8.513700 -18.893100
H -16.397800 -8.345400 -14.756600
O -15.889900 -7.744500 -14.989600
H -15.610700 -8.268500 -21.631000
N -14.831800 -8.290100 -21.995900
H -14.758600 -8.310400 -22.853100
H -14.755000 -9.593500 -16.285900
C -14.545100 -8.147800 -14.765800
H -14.446800 -8.615300 -13.910400
H -14.444900 -7.620000 -17.420400
H -14.193200 -6.103900 -14.678500
C -14.054300 -9.004700 -15.936600
N -13.934100 -8.254500 -19.891500
C -13.741200 -8.293300 -21.235700
C -13.652100 -6.905500 -14.835400
C -13.652000 -7.931900 -16.937400
O -13.114300 -6.868000 -16.172300
F -12.921500 -9.714800 -15.528100
H -12.894300 -7.256700 -12.106300
O -12.880600 -6.578400 -12.566600
C -12.799400 -8.311700 -19.228100
N -12.622000 -8.303400 -17.884000
N -12.556800 -8.328200 -21.894500
C -12.464300 -6.909900 -13.886300
H -12.051300 -7.787700 -13.886200
H -11.803600 -6.267100 -14.189400
N -11.561200 -8.410200 -19.784100
C -11.426800 -8.393600 -21.190500
C -11.246400 -8.383500 -17.608100
H -10.858600 -8.388600 -16.762900
C -10.589600 -8.451400 -18.775900
O -10.289000 -8.434300 -21.663600
H -9.668800 -8.513700 -18.893100
