13
Fragment
H -19.352700 -11.293700 -8.068900
N -18.535100 -10.934900 -8.471600
O -18.395100 -9.256500 -6.961300
H -18.211700 -11.345500 -9.193800
C -17.922100 -9.877600 -7.939700
C -16.643500 -9.472200 -8.537600
H -16.081300 -7.722800 -7.543900
N -16.009600 -10.203900 -9.535400
C -15.877700 -8.386400 -8.192500
C -14.953800 -9.551100 -9.760400
N -14.759000 -8.458900 -8.978500
H -14.232800 -9.819900 -10.399900
H -14.082600 -7.895800 -8.973700
13
Fragment
H -17.293200 -8.352300 -11.858200
H -17.143000 -6.428200 -10.431900
N -16.616700 -7.789200 -11.853300
C -16.422000 -6.697000 -11.071400
C -15.498100 -7.861700 -12.639400
N -15.366100 -6.044200 -11.296400
H -15.294400 -8.525300 -13.287900
C -14.732200 -6.775900 -12.294300
C -13.453700 -6.370500 -12.892100
H -13.164100 -4.902600 -11.638100
O -12.980700 -6.991600 -13.870500
N -12.840700 -5.313200 -12.360200
H -12.023000 -4.954400 -12.763000
26
Fragment
H -19.352700 -11.293700 -8.068900
N -18.535100 -10.934900 -8.471600
O -18.395100 -9.256500 -6.961300
H -18.211700 -11.345500 -9.193800
C -17.922100 -9.877600 -7.939700
C -16.643500 -9.472200 -8.537600
H -16.081300 -7.722800 -7.543900
N -16.009600 -10.203900 -9.535400
C -15.877700 -8.386400 -8.192500
C -14.953800 -9.551100 -9.760400
N -14.759000 -8.458900 -8.978500
H -14.232800 -9.819900 -10.399900
H -14.082600 -7.895800 -8.973700
H -17.293200 -8.352300 -11.858200
H -17.143000 -6.428200 -10.431900
N -16.616700 -7.789200 -11.853300
C -16.422000 -6.697000 -11.071400
C -15.498100 -7.861700 -12.639400
N -15.366100 -6.044200 -11.296400
H -15.294400 -8.525300 -13.287900
C -14.732200 -6.775900 -12.294300
C -13.453700 -6.370500 -12.892100
H -13.164100 -4.902600 -11.638100
O -12.980700 -6.991600 -13.870500
N -12.840700 -5.313200 -12.360200
H -12.023000 -4.954400 -12.763000
