13
Fragment
H -19.352700 -11.293700 -8.068900
N -18.535100 -10.934900 -8.471600
O -18.395100 -9.256500 -6.961300
H -18.211700 -11.345500 -9.193800
C -17.922100 -9.877600 -7.939700
C -16.643500 -9.472200 -8.537600
H -16.081300 -7.722800 -7.543900
N -16.009600 -10.203900 -9.535400
C -15.877700 -8.386400 -8.192500
C -14.953800 -9.551100 -9.760400
N -14.759000 -8.458900 -8.978500
H -14.232800 -9.819900 -10.399900
H -14.082600 -7.895800 -8.973700
3
Fragment
H -19.365400 -5.894200 -9.270200
O -19.158800 -6.727100 -9.041000
H -18.666500 -6.586500 -8.291100
16
Fragment
H -19.352700 -11.293700 -8.068900
N -18.535100 -10.934900 -8.471600
O -18.395100 -9.256500 -6.961300
H -18.211700 -11.345500 -9.193800
C -17.922100 -9.877600 -7.939700
C -16.643500 -9.472200 -8.537600
H -16.081300 -7.722800 -7.543900
N -16.009600 -10.203900 -9.535400
C -15.877700 -8.386400 -8.192500
C -14.953800 -9.551100 -9.760400
N -14.759000 -8.458900 -8.978500
H -14.232800 -9.819900 -10.399900
H -14.082600 -7.895800 -8.973700
H -19.365400 -5.894200 -9.270200
O -19.158800 -6.727100 -9.041000
H -18.666500 -6.586500 -8.291100
