13
Fragment
H -19.352700 -11.293700 -8.068900
N -18.535100 -10.934900 -8.471600
O -18.395100 -9.256500 -6.961300
H -18.211700 -11.345500 -9.193800
C -17.922100 -9.877600 -7.939700
C -16.643500 -9.472200 -8.537600
H -16.081300 -7.722800 -7.543900
N -16.009600 -10.203900 -9.535400
C -15.877700 -8.386400 -8.192500
C -14.953800 -9.551100 -9.760400
N -14.759000 -8.458900 -8.978500
H -14.232800 -9.819900 -10.399900
H -14.082600 -7.895800 -8.973700
13
Fragment
H -20.368100 -14.655200 -11.858200
H -20.217900 -12.731100 -10.431900
N -19.691700 -14.092100 -11.853300
C -19.496900 -12.999900 -11.071400
C -18.573000 -14.164600 -12.639400
N -18.441100 -12.347200 -11.296400
H -18.369400 -14.828300 -13.287900
C -17.807200 -13.078800 -12.294300
C -16.528600 -12.673400 -12.892100
H -16.239000 -11.205600 -11.638100
O -16.055600 -13.294500 -13.870500
N -15.915600 -11.616100 -12.360200
H -15.098000 -11.257300 -12.763000
26
Fragment
H -19.352700 -11.293700 -8.068900
N -18.535100 -10.934900 -8.471600
O -18.395100 -9.256500 -6.961300
H -18.211700 -11.345500 -9.193800
C -17.922100 -9.877600 -7.939700
C -16.643500 -9.472200 -8.537600
H -16.081300 -7.722800 -7.543900
N -16.009600 -10.203900 -9.535400
C -15.877700 -8.386400 -8.192500
C -14.953800 -9.551100 -9.760400
N -14.759000 -8.458900 -8.978500
H -14.232800 -9.819900 -10.399900
H -14.082600 -7.895800 -8.973700
H -20.368100 -14.655200 -11.858200
H -20.217900 -12.731100 -10.431900
N -19.691700 -14.092100 -11.853300
C -19.496900 -12.999900 -11.071400
C -18.573000 -14.164600 -12.639400
N -18.441100 -12.347200 -11.296400
H -18.369400 -14.828300 -13.287900
C -17.807200 -13.078800 -12.294300
C -16.528600 -12.673400 -12.892100
H -16.239000 -11.205600 -11.638100
O -16.055600 -13.294500 -13.870500
N -15.915600 -11.616100 -12.360200
H -15.098000 -11.257300 -12.763000
