13
Fragment
H -19.352700 -11.293700 -8.068900
N -18.535100 -10.934900 -8.471600
O -18.395100 -9.256500 -6.961300
H -18.211700 -11.345500 -9.193800
C -17.922100 -9.877600 -7.939700
C -16.643500 -9.472200 -8.537600
H -16.081300 -7.722800 -7.543900
N -16.009600 -10.203900 -9.535400
C -15.877700 -8.386400 -8.192500
C -14.953800 -9.551100 -9.760400
N -14.759000 -8.458900 -8.978500
H -14.232800 -9.819900 -10.399900
H -14.082600 -7.895800 -8.973700
13
Fragment
H -22.427700 -17.596700 -8.068900
N -21.610000 -17.237900 -8.471600
O -21.470000 -15.559400 -6.961300
H -21.286600 -17.648400 -9.193800
C -20.997000 -16.180500 -7.939700
C -19.718500 -15.775100 -8.537600
H -19.156300 -14.025700 -7.543900
N -19.084600 -16.506800 -9.535400
C -18.952600 -14.689300 -8.192500
C -18.028700 -15.854100 -9.760400
N -17.834000 -14.761800 -8.978500
H -17.307700 -16.122800 -10.399900
H -17.157500 -14.198800 -8.973700
26
Fragment
H -19.352700 -11.293700 -8.068900
N -18.535100 -10.934900 -8.471600
O -18.395100 -9.256500 -6.961300
H -18.211700 -11.345500 -9.193800
C -17.922100 -9.877600 -7.939700
C -16.643500 -9.472200 -8.537600
H -16.081300 -7.722800 -7.543900
N -16.009600 -10.203900 -9.535400
C -15.877700 -8.386400 -8.192500
C -14.953800 -9.551100 -9.760400
N -14.759000 -8.458900 -8.978500
H -14.232800 -9.819900 -10.399900
H -14.082600 -7.895800 -8.973700
H -22.427700 -17.596700 -8.068900
N -21.610000 -17.237900 -8.471600
O -21.470000 -15.559400 -6.961300
H -21.286600 -17.648400 -9.193800
C -20.997000 -16.180500 -7.939700
C -19.718500 -15.775100 -8.537600
H -19.156300 -14.025700 -7.543900
N -19.084600 -16.506800 -9.535400
C -18.952600 -14.689300 -8.192500
C -18.028700 -15.854100 -9.760400
N -17.834000 -14.761800 -8.978500
H -17.307700 -16.122800 -10.399900
H -17.157500 -14.198800 -8.973700
