13
Fragment
H -19.352700 -11.293700 -8.068900
N -18.535100 -10.934900 -8.471600
O -18.395100 -9.256500 -6.961300
H -18.211700 -11.345500 -9.193800
C -17.922100 -9.877600 -7.939700
C -16.643500 -9.472200 -8.537600
H -16.081300 -7.722800 -7.543900
N -16.009600 -10.203900 -9.535400
C -15.877700 -8.386400 -8.192500
C -14.953800 -9.551100 -9.760400
N -14.759000 -8.458900 -8.978500
H -14.232800 -9.819900 -10.399900
H -14.082600 -7.895800 -8.973700
13
Fragment
H -12.813700 -11.293700 -8.068900
N -11.996100 -10.934900 -8.471600
O -11.856100 -9.256500 -6.961300
H -11.672700 -11.345500 -9.193800
C -11.383100 -9.877600 -7.939700
C -10.104500 -9.472200 -8.537600
H -9.542300 -7.722800 -7.543900
N -9.470600 -10.203900 -9.535400
C -9.338700 -8.386400 -8.192500
C -8.414800 -9.551100 -9.760400
N -8.220000 -8.458900 -8.978500
H -7.693800 -9.819900 -10.399900
H -7.543600 -7.895800 -8.973700
26
Fragment
H -19.352700 -11.293700 -8.068900
N -18.535100 -10.934900 -8.471600
O -18.395100 -9.256500 -6.961300
H -18.211700 -11.345500 -9.193800
C -17.922100 -9.877600 -7.939700
C -16.643500 -9.472200 -8.537600
H -16.081300 -7.722800 -7.543900
N -16.009600 -10.203900 -9.535400
C -15.877700 -8.386400 -8.192500
C -14.953800 -9.551100 -9.760400
N -14.759000 -8.458900 -8.978500
H -14.232800 -9.819900 -10.399900
H -14.082600 -7.895800 -8.973700
H -12.813700 -11.293700 -8.068900
N -11.996100 -10.934900 -8.471600
O -11.856100 -9.256500 -6.961300
H -11.672700 -11.345500 -9.193800
C -11.383100 -9.877600 -7.939700
C -10.104500 -9.472200 -8.537600
H -9.542300 -7.722800 -7.543900
N -9.470600 -10.203900 -9.535400
C -9.338700 -8.386400 -8.192500
C -8.414800 -9.551100 -9.760400
N -8.220000 -8.458900 -8.978500
H -7.693800 -9.819900 -10.399900
H -7.543600 -7.895800 -8.973700
