31
Fragment
H -13.243500 -33.151000 -30.319100
H -13.039800 -32.107200 -28.264200
C -12.411000 -33.091400 -29.908500
C -12.291000 -32.474400 -28.675900
H -11.382800 -34.010700 -31.364800
C -11.300500 -33.614900 -30.527300
C -11.063200 -32.403100 -28.057200
H -10.991100 -31.979100 -27.233800
H -10.130100 -35.548400 -33.600100
C -10.040000 -33.556400 -29.903300
C -9.919900 -32.960000 -28.647200
H -9.695100 -36.368500 -34.764700
N -9.510800 -35.962900 -34.028500
H -9.225000 -32.163200 -26.190100
N -9.065700 -34.725700 -31.714700
C -8.863000 -34.138900 -30.573500
C -8.617500 -32.950400 -27.942400
C -8.478500 -32.492600 -26.635800
C -8.273300 -35.977100 -33.556900
N -8.050600 -35.306300 -32.362700
C -7.533500 -34.045900 -29.914100
C -7.468100 -33.454400 -28.577300
O -7.314100 -36.537400 -34.086200
C -7.263500 -32.513100 -25.984400
H -7.255400 -35.264200 -32.038200
H -7.202300 -32.202800 -25.109900
O -6.517800 -34.483200 -30.472600
C -6.241700 -33.459700 -27.913300
C -6.135500 -32.991400 -26.623100
H -5.486600 -33.784700 -28.346700
H -5.313800 -32.997200 -26.186200
31
Fragment
H -3.672100 -33.151000 -30.319100
H -3.468400 -32.107200 -28.264200
C -2.839600 -33.091400 -29.908500
C -2.719600 -32.474400 -28.675900
H -1.811400 -34.010700 -31.364800
C -1.729100 -33.614900 -30.527300
C -1.491800 -32.403100 -28.057200
H -1.419700 -31.979100 -27.233800
H -0.558700 -35.548400 -33.600100
C -0.468600 -33.556400 -29.903300
C -0.348500 -32.960000 -28.647200
H -0.123700 -36.368500 -34.764700
N 0.060600 -35.962900 -34.028500
H 0.346400 -32.163200 -26.190100
N 0.505700 -34.725700 -31.714700
C 0.708400 -34.138900 -30.573500
C 0.953900 -32.950400 -27.942400
C 1.092900 -32.492600 -26.635800
C 1.298100 -35.977100 -33.556900
N 1.520800 -35.306300 -32.362700
C 2.037900 -34.045900 -29.914100
C 2.103300 -33.454400 -28.577300
O 2.257300 -36.537400 -34.086200
C 2.307900 -32.513100 -25.984400
H 2.316000 -35.264200 -32.038200
H 2.369100 -32.202800 -25.109900
O 3.053600 -34.483200 -30.472600
C 3.329700 -33.459700 -27.913300
C 3.435900 -32.991400 -26.623100
H 4.084800 -33.784700 -28.346700
H 4.257600 -32.997200 -26.186200
62
Fragment
H -13.243500 -33.151000 -30.319100
H -13.039800 -32.107200 -28.264200
C -12.411000 -33.091400 -29.908500
C -12.291000 -32.474400 -28.675900
H -11.382800 -34.010700 -31.364800
C -11.300500 -33.614900 -30.527300
C -11.063200 -32.403100 -28.057200
H -10.991100 -31.979100 -27.233800
H -10.130100 -35.548400 -33.600100
C -10.040000 -33.556400 -29.903300
C -9.919900 -32.960000 -28.647200
H -9.695100 -36.368500 -34.764700
N -9.510800 -35.962900 -34.028500
H -9.225000 -32.163200 -26.190100
N -9.065700 -34.725700 -31.714700
C -8.863000 -34.138900 -30.573500
C -8.617500 -32.950400 -27.942400
C -8.478500 -32.492600 -26.635800
C -8.273300 -35.977100 -33.556900
N -8.050600 -35.306300 -32.362700
C -7.533500 -34.045900 -29.914100
C -7.468100 -33.454400 -28.577300
O -7.314100 -36.537400 -34.086200
C -7.263500 -32.513100 -25.984400
H -7.255400 -35.264200 -32.038200
H -7.202300 -32.202800 -25.109900
O -6.517800 -34.483200 -30.472600
C -6.241700 -33.459700 -27.913300
C -6.135500 -32.991400 -26.623100
H -5.486600 -33.784700 -28.346700
H -5.313800 -32.997200 -26.186200
H -3.672100 -33.151000 -30.319100
H -3.468400 -32.107200 -28.264200
C -2.839600 -33.091400 -29.908500
C -2.719600 -32.474400 -28.675900
H -1.811400 -34.010700 -31.364800
C -1.729100 -33.614900 -30.527300
C -1.491800 -32.403100 -28.057200
H -1.419700 -31.979100 -27.233800
H -0.558700 -35.548400 -33.600100
C -0.468600 -33.556400 -29.903300
C -0.348500 -32.960000 -28.647200
H -0.123700 -36.368500 -34.764700
N 0.060600 -35.962900 -34.028500
H 0.346400 -32.163200 -26.190100
N 0.505700 -34.725700 -31.714700
C 0.708400 -34.138900 -30.573500
C 0.953900 -32.950400 -27.942400
C 1.092900 -32.492600 -26.635800
C 1.298100 -35.977100 -33.556900
N 1.520800 -35.306300 -32.362700
C 2.037900 -34.045900 -29.914100
C 2.103300 -33.454400 -28.577300
O 2.257300 -36.537400 -34.086200
C 2.307900 -32.513100 -25.984400
H 2.316000 -35.264200 -32.038200
H 2.369100 -32.202800 -25.109900
O 3.053600 -34.483200 -30.472600
C 3.329700 -33.459700 -27.913300
C 3.435900 -32.991400 -26.623100
H 4.084800 -33.784700 -28.346700
H 4.257600 -32.997200 -26.186200
