31
Fragment
H -13.243500 -33.151000 -30.319100
H -13.039800 -32.107200 -28.264200
C -12.411000 -33.091400 -29.908500
C -12.291000 -32.474400 -28.675900
H -11.382800 -34.010700 -31.364800
C -11.300500 -33.614900 -30.527300
C -11.063200 -32.403100 -28.057200
H -10.991100 -31.979100 -27.233800
H -10.130100 -35.548400 -33.600100
C -10.040000 -33.556400 -29.903300
C -9.919900 -32.960000 -28.647200
H -9.695100 -36.368500 -34.764700
N -9.510800 -35.962900 -34.028500
H -9.225000 -32.163200 -26.190100
N -9.065700 -34.725700 -31.714700
C -8.863000 -34.138900 -30.573500
C -8.617500 -32.950400 -27.942400
C -8.478500 -32.492600 -26.635800
C -8.273300 -35.977100 -33.556900
N -8.050600 -35.306300 -32.362700
C -7.533500 -34.045900 -29.914100
C -7.468100 -33.454400 -28.577300
O -7.314100 -36.537400 -34.086200
C -7.263500 -32.513100 -25.984400
H -7.255400 -35.264200 -32.038200
H -7.202300 -32.202800 -25.109900
O -6.517800 -34.483200 -30.472600
C -6.241700 -33.459700 -27.913300
C -6.135500 -32.991400 -26.623100
H -5.486600 -33.784700 -28.346700
H -5.313800 -32.997200 -26.186200
31
Fragment
H -22.473900 -31.028500 -33.383200
H -22.210100 -29.782100 -31.449200
C -21.634700 -30.950000 -32.990500
C -21.479100 -30.215200 -31.826400
H -20.658300 -32.044300 -34.354100
C -20.549200 -31.563700 -33.565700
C -20.246700 -30.126700 -31.231200
H -20.156300 -29.637600 -30.445700
H -19.443700 -33.740500 -36.524100
C -19.275300 -31.474200 -32.978800
C -19.121600 -30.756400 -31.777900
H -19.006700 -34.455700 -37.755900
N -18.815700 -34.064500 -37.013600
H -18.338000 -29.660900 -29.459500
N -18.334300 -32.730500 -34.751800
C -18.113600 -32.103800 -33.624600
C -17.801400 -30.683500 -31.120100
C -17.606500 -30.037000 -29.895100
C -17.559200 -33.960900 -36.627400
N -17.327700 -33.296600 -35.415700
C -16.783800 -31.992600 -32.997600
C -16.675000 -31.268700 -31.724200
O -16.573200 -34.377200 -37.231700
H -16.529400 -33.253500 -35.098500
C -16.365700 -29.940700 -29.316800
H -16.266800 -29.495500 -28.505900
O -15.778500 -32.492800 -33.525200
C -15.417900 -31.165800 -31.121300
C -15.257500 -30.501500 -29.933200
H -14.678900 -31.552800 -31.531700
H -14.415500 -30.427400 -29.545900
62
Fragment
H -13.243500 -33.151000 -30.319100
H -13.039800 -32.107200 -28.264200
C -12.411000 -33.091400 -29.908500
C -12.291000 -32.474400 -28.675900
H -11.382800 -34.010700 -31.364800
C -11.300500 -33.614900 -30.527300
C -11.063200 -32.403100 -28.057200
H -10.991100 -31.979100 -27.233800
H -10.130100 -35.548400 -33.600100
C -10.040000 -33.556400 -29.903300
C -9.919900 -32.960000 -28.647200
H -9.695100 -36.368500 -34.764700
N -9.510800 -35.962900 -34.028500
H -9.225000 -32.163200 -26.190100
N -9.065700 -34.725700 -31.714700
C -8.863000 -34.138900 -30.573500
C -8.617500 -32.950400 -27.942400
C -8.478500 -32.492600 -26.635800
C -8.273300 -35.977100 -33.556900
N -8.050600 -35.306300 -32.362700
C -7.533500 -34.045900 -29.914100
C -7.468100 -33.454400 -28.577300
O -7.314100 -36.537400 -34.086200
C -7.263500 -32.513100 -25.984400
H -7.255400 -35.264200 -32.038200
H -7.202300 -32.202800 -25.109900
O -6.517800 -34.483200 -30.472600
C -6.241700 -33.459700 -27.913300
C -6.135500 -32.991400 -26.623100
H -5.486600 -33.784700 -28.346700
H -5.313800 -32.997200 -26.186200
H -22.473900 -31.028500 -33.383200
H -22.210100 -29.782100 -31.449200
C -21.634700 -30.950000 -32.990500
C -21.479100 -30.215200 -31.826400
H -20.658300 -32.044300 -34.354100
C -20.549200 -31.563700 -33.565700
C -20.246700 -30.126700 -31.231200
H -20.156300 -29.637600 -30.445700
H -19.443700 -33.740500 -36.524100
C -19.275300 -31.474200 -32.978800
C -19.121600 -30.756400 -31.777900
H -19.006700 -34.455700 -37.755900
N -18.815700 -34.064500 -37.013600
H -18.338000 -29.660900 -29.459500
N -18.334300 -32.730500 -34.751800
C -18.113600 -32.103800 -33.624600
C -17.801400 -30.683500 -31.120100
C -17.606500 -30.037000 -29.895100
C -17.559200 -33.960900 -36.627400
N -17.327700 -33.296600 -35.415700
C -16.783800 -31.992600 -32.997600
C -16.675000 -31.268700 -31.724200
O -16.573200 -34.377200 -37.231700
H -16.529400 -33.253500 -35.098500
C -16.365700 -29.940700 -29.316800
H -16.266800 -29.495500 -28.505900
O -15.778500 -32.492800 -33.525200
C -15.417900 -31.165800 -31.121300
C -15.257500 -30.501500 -29.933200
H -14.678900 -31.552800 -31.531700
H -14.415500 -30.427400 -29.545900
