31
Fragment
H -13.243500 -33.151000 -30.319100
H -13.039800 -32.107200 -28.264200
C -12.411000 -33.091400 -29.908500
C -12.291000 -32.474400 -28.675900
H -11.382800 -34.010700 -31.364800
C -11.300500 -33.614900 -30.527300
C -11.063200 -32.403100 -28.057200
H -10.991100 -31.979100 -27.233800
H -10.130100 -35.548400 -33.600100
C -10.040000 -33.556400 -29.903300
C -9.919900 -32.960000 -28.647200
H -9.695100 -36.368500 -34.764700
N -9.510800 -35.962900 -34.028500
H -9.225000 -32.163200 -26.190100
N -9.065700 -34.725700 -31.714700
C -8.863000 -34.138900 -30.573500
C -8.617500 -32.950400 -27.942400
C -8.478500 -32.492600 -26.635800
C -8.273300 -35.977100 -33.556900
N -8.050600 -35.306300 -32.362700
C -7.533500 -34.045900 -29.914100
C -7.468100 -33.454400 -28.577300
O -7.314100 -36.537400 -34.086200
C -7.263500 -32.513100 -25.984400
H -7.255400 -35.264200 -32.038200
H -7.202300 -32.202800 -25.109900
O -6.517800 -34.483200 -30.472600
C -6.241700 -33.459700 -27.913300
C -6.135500 -32.991400 -26.623100
H -5.486600 -33.784700 -28.346700
H -5.313800 -32.997200 -26.186200
31
Fragment
H -13.486600 -39.972700 -34.499900
H -13.211100 -41.195900 -32.567800
C -12.647900 -40.038900 -34.104500
C -12.480500 -40.763500 -32.948300
O -12.079800 -42.247300 -30.636800
H -11.660100 -38.926600 -35.461200
C -11.555700 -39.409100 -34.673200
H -11.329000 -43.015500 -29.073900
O -11.300700 -44.211100 -26.981700
C -11.227100 -40.860400 -32.334500
C -11.100800 -41.650200 -31.111900
N -10.547800 -42.999600 -28.714300
C -10.334400 -43.656200 -27.504000
C -10.311600 -39.490200 -34.079100
C -10.109100 -40.203800 -32.897000
C -9.781200 -41.714300 -30.449900
H -9.590800 -39.057100 -34.476900
N -9.557600 -42.346800 -29.322300
N -9.108700 -43.609800 -27.000000
H -8.938400 -43.989300 -26.247600
C -8.791100 -40.277200 -32.230700
C -8.632700 -41.010400 -31.048400
H -8.484000 -43.201900 -27.425700
H -7.769200 -39.110700 -33.536700
C -7.678300 -39.606000 -32.754300
C -7.374800 -41.075200 -30.432100
H -7.266800 -41.575600 -29.655200
C -6.452600 -39.668000 -32.128400
C -6.298400 -40.403300 -30.968000
H -5.725100 -39.213200 -32.489100
H -5.469000 -40.443300 -30.549300
62
Fragment
H -13.243500 -33.151000 -30.319100
H -13.039800 -32.107200 -28.264200
C -12.411000 -33.091400 -29.908500
C -12.291000 -32.474400 -28.675900
H -11.382800 -34.010700 -31.364800
C -11.300500 -33.614900 -30.527300
C -11.063200 -32.403100 -28.057200
H -10.991100 -31.979100 -27.233800
H -10.130100 -35.548400 -33.600100
C -10.040000 -33.556400 -29.903300
C -9.919900 -32.960000 -28.647200
H -9.695100 -36.368500 -34.764700
N -9.510800 -35.962900 -34.028500
H -9.225000 -32.163200 -26.190100
N -9.065700 -34.725700 -31.714700
C -8.863000 -34.138900 -30.573500
C -8.617500 -32.950400 -27.942400
C -8.478500 -32.492600 -26.635800
C -8.273300 -35.977100 -33.556900
N -8.050600 -35.306300 -32.362700
C -7.533500 -34.045900 -29.914100
C -7.468100 -33.454400 -28.577300
O -7.314100 -36.537400 -34.086200
C -7.263500 -32.513100 -25.984400
H -7.255400 -35.264200 -32.038200
H -7.202300 -32.202800 -25.109900
O -6.517800 -34.483200 -30.472600
C -6.241700 -33.459700 -27.913300
C -6.135500 -32.991400 -26.623100
H -5.486600 -33.784700 -28.346700
H -5.313800 -32.997200 -26.186200
H -13.486600 -39.972700 -34.499900
H -13.211100 -41.195900 -32.567800
C -12.647900 -40.038900 -34.104500
C -12.480500 -40.763500 -32.948300
O -12.079800 -42.247300 -30.636800
H -11.660100 -38.926600 -35.461200
C -11.555700 -39.409100 -34.673200
H -11.329000 -43.015500 -29.073900
O -11.300700 -44.211100 -26.981700
C -11.227100 -40.860400 -32.334500
C -11.100800 -41.650200 -31.111900
N -10.547800 -42.999600 -28.714300
C -10.334400 -43.656200 -27.504000
C -10.311600 -39.490200 -34.079100
C -10.109100 -40.203800 -32.897000
C -9.781200 -41.714300 -30.449900
H -9.590800 -39.057100 -34.476900
N -9.557600 -42.346800 -29.322300
N -9.108700 -43.609800 -27.000000
H -8.938400 -43.989300 -26.247600
C -8.791100 -40.277200 -32.230700
C -8.632700 -41.010400 -31.048400
H -8.484000 -43.201900 -27.425700
H -7.769200 -39.110700 -33.536700
C -7.678300 -39.606000 -32.754300
C -7.374800 -41.075200 -30.432100
H -7.266800 -41.575600 -29.655200
C -6.452600 -39.668000 -32.128400
C -6.298400 -40.403300 -30.968000
H -5.725100 -39.213200 -32.489100
H -5.469000 -40.443300 -30.549300
