31
Fragment
H -13.243500 -33.151000 -30.319100
H -13.039800 -32.107200 -28.264200
C -12.411000 -33.091400 -29.908500
C -12.291000 -32.474400 -28.675900
H -11.382800 -34.010700 -31.364800
C -11.300500 -33.614900 -30.527300
C -11.063200 -32.403100 -28.057200
H -10.991100 -31.979100 -27.233800
H -10.130100 -35.548400 -33.600100
C -10.040000 -33.556400 -29.903300
C -9.919900 -32.960000 -28.647200
H -9.695100 -36.368500 -34.764700
N -9.510800 -35.962900 -34.028500
H -9.225000 -32.163200 -26.190100
N -9.065700 -34.725700 -31.714700
C -8.863000 -34.138900 -30.573500
C -8.617500 -32.950400 -27.942400
C -8.478500 -32.492600 -26.635800
C -8.273300 -35.977100 -33.556900
N -8.050600 -35.306300 -32.362700
C -7.533500 -34.045900 -29.914100
C -7.468100 -33.454400 -28.577300
O -7.314100 -36.537400 -34.086200
C -7.263500 -32.513100 -25.984400
H -7.255400 -35.264200 -32.038200
H -7.202300 -32.202800 -25.109900
O -6.517800 -34.483200 -30.472600
C -6.241700 -33.459700 -27.913300
C -6.135500 -32.991400 -26.623100
H -5.486600 -33.784700 -28.346700
H -5.313800 -32.997200 -26.186200
31
Fragment
H -11.984300 -41.571000 -44.093400
H -11.708800 -40.347800 -42.161200
C -11.145600 -41.504800 -43.697900
C -10.978200 -40.780200 -42.541700
O -10.577500 -39.296400 -40.230300
H -10.157800 -42.617100 -45.054600
C -10.053400 -42.134600 -44.266600
H -9.826700 -38.528200 -38.667300
O -9.798400 -37.332600 -36.575200
C -9.724800 -40.683300 -41.927900
C -9.598500 -39.893500 -40.705300
N -9.045500 -38.544100 -38.307700
C -8.832100 -37.887500 -37.097400
C -8.809300 -42.053500 -43.672600
C -8.606800 -41.339900 -42.490500
C -8.278900 -39.829400 -40.043400
H -8.088500 -42.486600 -44.070300
N -8.055400 -39.196900 -38.915800
N -7.606400 -37.933900 -36.593400
H -7.436100 -37.554400 -35.841100
C -7.288800 -41.266500 -41.824100
C -7.130400 -40.533300 -40.641800
H -6.981700 -38.341800 -37.019200
H -6.266900 -42.433000 -43.130200
C -6.176000 -41.937700 -42.347700
C -5.872500 -40.468500 -40.025500
H -5.764500 -39.968100 -39.248700
C -4.950300 -41.875700 -41.721900
C -4.796100 -41.140400 -40.561400
H -4.222900 -42.330500 -42.082600
H -3.966700 -41.100400 -40.142800
62
Fragment
H -13.243500 -33.151000 -30.319100
H -13.039800 -32.107200 -28.264200
C -12.411000 -33.091400 -29.908500
C -12.291000 -32.474400 -28.675900
H -11.382800 -34.010700 -31.364800
C -11.300500 -33.614900 -30.527300
C -11.063200 -32.403100 -28.057200
H -10.991100 -31.979100 -27.233800
H -10.130100 -35.548400 -33.600100
C -10.040000 -33.556400 -29.903300
C -9.919900 -32.960000 -28.647200
H -9.695100 -36.368500 -34.764700
N -9.510800 -35.962900 -34.028500
H -9.225000 -32.163200 -26.190100
N -9.065700 -34.725700 -31.714700
C -8.863000 -34.138900 -30.573500
C -8.617500 -32.950400 -27.942400
C -8.478500 -32.492600 -26.635800
C -8.273300 -35.977100 -33.556900
N -8.050600 -35.306300 -32.362700
C -7.533500 -34.045900 -29.914100
C -7.468100 -33.454400 -28.577300
O -7.314100 -36.537400 -34.086200
C -7.263500 -32.513100 -25.984400
H -7.255400 -35.264200 -32.038200
H -7.202300 -32.202800 -25.109900
O -6.517800 -34.483200 -30.472600
C -6.241700 -33.459700 -27.913300
C -6.135500 -32.991400 -26.623100
H -5.486600 -33.784700 -28.346700
H -5.313800 -32.997200 -26.186200
H -11.984300 -41.571000 -44.093400
H -11.708800 -40.347800 -42.161200
C -11.145600 -41.504800 -43.697900
C -10.978200 -40.780200 -42.541700
O -10.577500 -39.296400 -40.230300
H -10.157800 -42.617100 -45.054600
C -10.053400 -42.134600 -44.266600
H -9.826700 -38.528200 -38.667300
O -9.798400 -37.332600 -36.575200
C -9.724800 -40.683300 -41.927900
C -9.598500 -39.893500 -40.705300
N -9.045500 -38.544100 -38.307700
C -8.832100 -37.887500 -37.097400
C -8.809300 -42.053500 -43.672600
C -8.606800 -41.339900 -42.490500
C -8.278900 -39.829400 -40.043400
H -8.088500 -42.486600 -44.070300
N -8.055400 -39.196900 -38.915800
N -7.606400 -37.933900 -36.593400
H -7.436100 -37.554400 -35.841100
C -7.288800 -41.266500 -41.824100
C -7.130400 -40.533300 -40.641800
H -6.981700 -38.341800 -37.019200
H -6.266900 -42.433000 -43.130200
C -6.176000 -41.937700 -42.347700
C -5.872500 -40.468500 -40.025500
H -5.764500 -39.968100 -39.248700
C -4.950300 -41.875700 -41.721900
C -4.796100 -41.140400 -40.561400
H -4.222900 -42.330500 -42.082600
H -3.966700 -41.100400 -40.142800
