31
Fragment
H -13.243500 -33.151000 -30.319100
H -13.039800 -32.107200 -28.264200
C -12.411000 -33.091400 -29.908500
C -12.291000 -32.474400 -28.675900
H -11.382800 -34.010700 -31.364800
C -11.300500 -33.614900 -30.527300
C -11.063200 -32.403100 -28.057200
H -10.991100 -31.979100 -27.233800
H -10.130100 -35.548400 -33.600100
C -10.040000 -33.556400 -29.903300
C -9.919900 -32.960000 -28.647200
H -9.695100 -36.368500 -34.764700
N -9.510800 -35.962900 -34.028500
H -9.225000 -32.163200 -26.190100
N -9.065700 -34.725700 -31.714700
C -8.863000 -34.138900 -30.573500
C -8.617500 -32.950400 -27.942400
C -8.478500 -32.492600 -26.635800
C -8.273300 -35.977100 -33.556900
N -8.050600 -35.306300 -32.362700
C -7.533500 -34.045900 -29.914100
C -7.468100 -33.454400 -28.577300
O -7.314100 -36.537400 -34.086200
C -7.263500 -32.513100 -25.984400
H -7.255400 -35.264200 -32.038200
H -7.202300 -32.202800 -25.109900
O -6.517800 -34.483200 -30.472600
C -6.241700 -33.459700 -27.913300
C -6.135500 -32.991400 -26.623100
H -5.486600 -33.784700 -28.346700
H -5.313800 -32.997200 -26.186200
31
Fragment
H -12.902500 -31.028500 -33.383200
H -12.638700 -29.782100 -31.449200
C -12.063300 -30.950000 -32.990500
C -11.907700 -30.215200 -31.826400
H -11.086900 -32.044300 -34.354100
C -10.977800 -31.563700 -33.565700
C -10.675300 -30.126700 -31.231200
H -10.584900 -29.637600 -30.445700
H -9.872300 -33.740500 -36.524100
C -9.703900 -31.474200 -32.978800
C -9.550200 -30.756400 -31.777900
H -9.435300 -34.455700 -37.755900
N -9.244300 -34.064500 -37.013600
H -8.766600 -29.660900 -29.459500
N -8.762900 -32.730500 -34.751800
C -8.542200 -32.103800 -33.624600
C -8.230000 -30.683500 -31.120100
C -8.035100 -30.037000 -29.895100
C -7.987800 -33.960900 -36.627400
N -7.756300 -33.296600 -35.415700
C -7.212400 -31.992600 -32.997600
C -7.103600 -31.268700 -31.724200
O -7.001800 -34.377200 -37.231700
H -6.958000 -33.253500 -35.098500
C -6.794300 -29.940700 -29.316800
H -6.695400 -29.495500 -28.505900
O -6.207100 -32.492800 -33.525200
C -5.846500 -31.165800 -31.121300
C -5.686100 -30.501500 -29.933200
H -5.107500 -31.552800 -31.531700
H -4.844100 -30.427400 -29.545900
62
Fragment
H -13.243500 -33.151000 -30.319100
H -13.039800 -32.107200 -28.264200
C -12.411000 -33.091400 -29.908500
C -12.291000 -32.474400 -28.675900
H -11.382800 -34.010700 -31.364800
C -11.300500 -33.614900 -30.527300
C -11.063200 -32.403100 -28.057200
H -10.991100 -31.979100 -27.233800
H -10.130100 -35.548400 -33.600100
C -10.040000 -33.556400 -29.903300
C -9.919900 -32.960000 -28.647200
H -9.695100 -36.368500 -34.764700
N -9.510800 -35.962900 -34.028500
H -9.225000 -32.163200 -26.190100
N -9.065700 -34.725700 -31.714700
C -8.863000 -34.138900 -30.573500
C -8.617500 -32.950400 -27.942400
C -8.478500 -32.492600 -26.635800
C -8.273300 -35.977100 -33.556900
N -8.050600 -35.306300 -32.362700
C -7.533500 -34.045900 -29.914100
C -7.468100 -33.454400 -28.577300
O -7.314100 -36.537400 -34.086200
C -7.263500 -32.513100 -25.984400
H -7.255400 -35.264200 -32.038200
H -7.202300 -32.202800 -25.109900
O -6.517800 -34.483200 -30.472600
C -6.241700 -33.459700 -27.913300
C -6.135500 -32.991400 -26.623100
H -5.486600 -33.784700 -28.346700
H -5.313800 -32.997200 -26.186200
H -12.902500 -31.028500 -33.383200
H -12.638700 -29.782100 -31.449200
C -12.063300 -30.950000 -32.990500
C -11.907700 -30.215200 -31.826400
H -11.086900 -32.044300 -34.354100
C -10.977800 -31.563700 -33.565700
C -10.675300 -30.126700 -31.231200
H -10.584900 -29.637600 -30.445700
H -9.872300 -33.740500 -36.524100
C -9.703900 -31.474200 -32.978800
C -9.550200 -30.756400 -31.777900
H -9.435300 -34.455700 -37.755900
N -9.244300 -34.064500 -37.013600
H -8.766600 -29.660900 -29.459500
N -8.762900 -32.730500 -34.751800
C -8.542200 -32.103800 -33.624600
C -8.230000 -30.683500 -31.120100
C -8.035100 -30.037000 -29.895100
C -7.987800 -33.960900 -36.627400
N -7.756300 -33.296600 -35.415700
C -7.212400 -31.992600 -32.997600
C -7.103600 -31.268700 -31.724200
O -7.001800 -34.377200 -37.231700
H -6.958000 -33.253500 -35.098500
C -6.794300 -29.940700 -29.316800
H -6.695400 -29.495500 -28.505900
O -6.207100 -32.492800 -33.525200
C -5.846500 -31.165800 -31.121300
C -5.686100 -30.501500 -29.933200
H -5.107500 -31.552800 -31.531700
H -4.844100 -30.427400 -29.545900
