18
Fragment
N -12.178900 -20.009400 -12.848100
N -12.021700 -21.320300 -12.624400
H -11.455300 -17.363400 -12.348300
C -11.277100 -19.392200 -12.046800
N -11.075200 -21.575100 -11.720600
C -10.997200 -18.021100 -11.875500
H -10.886500 -22.337000 -11.226100
C -10.582000 -20.377700 -11.322600
C -10.017700 -17.710800 -10.977000
O -9.823700 -15.871000 -9.596600
N -9.808800 -16.279400 -10.742100
O -9.678100 -15.557800 -11.716900
C -9.589600 -20.031400 -10.394200
C -9.330100 -18.696200 -10.228800
H -9.127800 -20.678800 -9.911600
N -8.240100 -18.333800 -9.325800
O -8.066800 -19.032100 -8.337500
O -7.539000 -17.362200 -9.610100
18
Fragment
O -8.438200 -11.572100 -9.093900
O -7.910300 -13.242000 -10.366500
N -7.737000 -12.543700 -9.378200
H -6.849300 -14.888700 -8.792400
C -6.647000 -12.906100 -8.475100
C -6.387600 -14.241300 -8.309800
O -6.299000 -9.767700 -6.987000
N -6.168300 -10.489300 -7.961900
O -6.153400 -10.080900 -9.107300
C -5.959500 -11.920700 -7.727000
C -5.395100 -14.587600 -7.381300
H -5.090700 -16.546900 -7.477800
C -4.979900 -12.231000 -6.828400
N -4.901900 -15.785000 -6.983300
C -4.700000 -13.602100 -6.657100
H -4.521900 -11.573300 -6.355600
N -3.955400 -15.530200 -6.079500
N -3.798300 -14.219300 -5.855800
36
Fragment
N -12.178900 -20.009400 -12.848100
N -12.021700 -21.320300 -12.624400
H -11.455300 -17.363400 -12.348300
C -11.277100 -19.392200 -12.046800
N -11.075200 -21.575100 -11.720600
C -10.997200 -18.021100 -11.875500
H -10.886500 -22.337000 -11.226100
C -10.582000 -20.377700 -11.322600
C -10.017700 -17.710800 -10.977000
O -9.823700 -15.871000 -9.596600
N -9.808800 -16.279400 -10.742100
O -9.678100 -15.557800 -11.716900
C -9.589600 -20.031400 -10.394200
C -9.330100 -18.696200 -10.228800
H -9.127800 -20.678800 -9.911600
N -8.240100 -18.333800 -9.325800
O -8.066800 -19.032100 -8.337500
O -7.539000 -17.362200 -9.610100
O -8.438200 -11.572100 -9.093900
O -7.910300 -13.242000 -10.366500
N -7.737000 -12.543700 -9.378200
H -6.849300 -14.888700 -8.792400
C -6.647000 -12.906100 -8.475100
C -6.387600 -14.241300 -8.309800
O -6.299000 -9.767700 -6.987000
N -6.168300 -10.489300 -7.961900
O -6.153400 -10.080900 -9.107300
C -5.959500 -11.920700 -7.727000
C -5.395100 -14.587600 -7.381300
H -5.090700 -16.546900 -7.477800
C -4.979900 -12.231000 -6.828400
N -4.901900 -15.785000 -6.983300
C -4.700000 -13.602100 -6.657100
H -4.521900 -11.573300 -6.355600
N -3.955400 -15.530200 -6.079500
N -3.798300 -14.219300 -5.855800
