18
Fragment
N -12.178900 -20.009400 -12.848100
N -12.021700 -21.320300 -12.624400
H -11.455300 -17.363400 -12.348300
C -11.277100 -19.392200 -12.046800
N -11.075200 -21.575100 -11.720600
C -10.997200 -18.021100 -11.875500
H -10.886500 -22.337000 -11.226100
C -10.582000 -20.377700 -11.322600
C -10.017700 -17.710800 -10.977000
O -9.823700 -15.871000 -9.596600
N -9.808800 -16.279400 -10.742100
O -9.678100 -15.557800 -11.716900
C -9.589600 -20.031400 -10.394200
C -9.330100 -18.696200 -10.228800
H -9.127800 -20.678800 -9.911600
N -8.240100 -18.333800 -9.325800
O -8.066800 -19.032100 -8.337500
O -7.539000 -17.362200 -9.610100
18
Fragment
O -8.438200 -23.152300 -9.093900
O -7.910300 -24.822200 -10.366500
N -7.737000 -24.123900 -9.378200
H -6.849300 -26.468900 -8.792400
C -6.647000 -24.486300 -8.475100
C -6.387600 -25.821500 -8.309800
O -6.299000 -21.347900 -6.987000
N -6.168300 -22.069500 -7.961900
O -6.153400 -21.661100 -9.107300
C -5.959500 -23.500900 -7.727000
C -5.395100 -26.167800 -7.381300
H -5.090700 -28.127100 -7.477800
C -4.979900 -23.811200 -6.828400
N -4.901900 -27.365200 -6.983300
C -4.700000 -25.182300 -6.657100
H -4.521900 -23.153500 -6.355600
N -3.955400 -27.110400 -6.079500
N -3.798300 -25.799500 -5.855800
36
Fragment
N -12.178900 -20.009400 -12.848100
N -12.021700 -21.320300 -12.624400
H -11.455300 -17.363400 -12.348300
C -11.277100 -19.392200 -12.046800
N -11.075200 -21.575100 -11.720600
C -10.997200 -18.021100 -11.875500
H -10.886500 -22.337000 -11.226100
C -10.582000 -20.377700 -11.322600
C -10.017700 -17.710800 -10.977000
O -9.823700 -15.871000 -9.596600
N -9.808800 -16.279400 -10.742100
O -9.678100 -15.557800 -11.716900
C -9.589600 -20.031400 -10.394200
C -9.330100 -18.696200 -10.228800
H -9.127800 -20.678800 -9.911600
N -8.240100 -18.333800 -9.325800
O -8.066800 -19.032100 -8.337500
O -7.539000 -17.362200 -9.610100
O -8.438200 -23.152300 -9.093900
O -7.910300 -24.822200 -10.366500
N -7.737000 -24.123900 -9.378200
H -6.849300 -26.468900 -8.792400
C -6.647000 -24.486300 -8.475100
C -6.387600 -25.821500 -8.309800
O -6.299000 -21.347900 -6.987000
N -6.168300 -22.069500 -7.961900
O -6.153400 -21.661100 -9.107300
C -5.959500 -23.500900 -7.727000
C -5.395100 -26.167800 -7.381300
H -5.090700 -28.127100 -7.477800
C -4.979900 -23.811200 -6.828400
N -4.901900 -27.365200 -6.983300
C -4.700000 -25.182300 -6.657100
H -4.521900 -23.153500 -6.355600
N -3.955400 -27.110400 -6.079500
N -3.798300 -25.799500 -5.855800
