18
Fragment
N -12.178900 -20.009400 -12.848100
N -12.021700 -21.320300 -12.624400
H -11.455300 -17.363400 -12.348300
C -11.277100 -19.392200 -12.046800
N -11.075200 -21.575100 -11.720600
C -10.997200 -18.021100 -11.875500
H -10.886500 -22.337000 -11.226100
C -10.582000 -20.377700 -11.322600
C -10.017700 -17.710800 -10.977000
O -9.823700 -15.871000 -9.596600
N -9.808800 -16.279400 -10.742100
O -9.678100 -15.557800 -11.716900
C -9.589600 -20.031400 -10.394200
C -9.330100 -18.696200 -10.228800
H -9.127800 -20.678800 -9.911600
N -8.240100 -18.333800 -9.325800
O -8.066800 -19.032100 -8.337500
O -7.539000 -17.362200 -9.610100
3
Fragment
H -11.200500 -24.926400 -11.895000
O -10.810700 -24.402300 -11.167800
H -9.843700 -24.649600 -11.004700
21
Fragment
N -12.178900 -20.009400 -12.848100
N -12.021700 -21.320300 -12.624400
H -11.455300 -17.363400 -12.348300
C -11.277100 -19.392200 -12.046800
N -11.075200 -21.575100 -11.720600
C -10.997200 -18.021100 -11.875500
H -10.886500 -22.337000 -11.226100
C -10.582000 -20.377700 -11.322600
C -10.017700 -17.710800 -10.977000
O -9.823700 -15.871000 -9.596600
N -9.808800 -16.279400 -10.742100
O -9.678100 -15.557800 -11.716900
C -9.589600 -20.031400 -10.394200
C -9.330100 -18.696200 -10.228800
H -9.127800 -20.678800 -9.911600
N -8.240100 -18.333800 -9.325800
O -8.066800 -19.032100 -8.337500
O -7.539000 -17.362200 -9.610100
H -11.200500 -24.926400 -11.895000
O -10.810700 -24.402300 -11.167800
H -9.843700 -24.649600 -11.004700
