18
Fragment
N -12.178900 -20.009400 -12.848100
N -12.021700 -21.320300 -12.624400
H -11.455300 -17.363400 -12.348300
C -11.277100 -19.392200 -12.046800
N -11.075200 -21.575100 -11.720600
C -10.997200 -18.021100 -11.875500
H -10.886500 -22.337000 -11.226100
C -10.582000 -20.377700 -11.322600
C -10.017700 -17.710800 -10.977000
O -9.823700 -15.871000 -9.596600
N -9.808800 -16.279400 -10.742100
O -9.678100 -15.557800 -11.716900
C -9.589600 -20.031400 -10.394200
C -9.330100 -18.696200 -10.228800
H -9.127800 -20.678800 -9.911600
N -8.240100 -18.333800 -9.325800
O -8.066800 -19.032100 -8.337500
O -7.539000 -17.362200 -9.610100
18
Fragment
O -16.936200 -23.152300 -16.575400
O -16.408400 -24.822200 -17.848100
N -16.235100 -24.123900 -16.859700
H -15.347400 -26.468900 -16.273900
C -15.145100 -24.486300 -15.956700
C -14.885600 -25.821500 -15.791400
O -14.797100 -21.347900 -14.468600
N -14.666400 -22.069500 -15.443500
O -14.651500 -21.661100 -16.588900
C -14.457500 -23.500900 -15.208600
C -13.893200 -26.167800 -14.862900
H -13.588700 -28.127100 -14.959400
C -13.478000 -23.811200 -14.310000
N -13.400000 -27.365200 -14.464900
C -13.198000 -25.182300 -14.138700
H -13.019900 -23.153500 -13.837200
N -12.453500 -27.110400 -13.561100
N -12.296300 -25.799500 -13.337400
36
Fragment
N -12.178900 -20.009400 -12.848100
N -12.021700 -21.320300 -12.624400
H -11.455300 -17.363400 -12.348300
C -11.277100 -19.392200 -12.046800
N -11.075200 -21.575100 -11.720600
C -10.997200 -18.021100 -11.875500
H -10.886500 -22.337000 -11.226100
C -10.582000 -20.377700 -11.322600
C -10.017700 -17.710800 -10.977000
O -9.823700 -15.871000 -9.596600
N -9.808800 -16.279400 -10.742100
O -9.678100 -15.557800 -11.716900
C -9.589600 -20.031400 -10.394200
C -9.330100 -18.696200 -10.228800
H -9.127800 -20.678800 -9.911600
N -8.240100 -18.333800 -9.325800
O -8.066800 -19.032100 -8.337500
O -7.539000 -17.362200 -9.610100
O -16.936200 -23.152300 -16.575400
O -16.408400 -24.822200 -17.848100
N -16.235100 -24.123900 -16.859700
H -15.347400 -26.468900 -16.273900
C -15.145100 -24.486300 -15.956700
C -14.885600 -25.821500 -15.791400
O -14.797100 -21.347900 -14.468600
N -14.666400 -22.069500 -15.443500
O -14.651500 -21.661100 -16.588900
C -14.457500 -23.500900 -15.208600
C -13.893200 -26.167800 -14.862900
H -13.588700 -28.127100 -14.959400
C -13.478000 -23.811200 -14.310000
N -13.400000 -27.365200 -14.464900
C -13.198000 -25.182300 -14.138700
H -13.019900 -23.153500 -13.837200
N -12.453500 -27.110400 -13.561100
N -12.296300 -25.799500 -13.337400
