18
Fragment
N -12.178900 -20.009400 -12.848100
N -12.021700 -21.320300 -12.624400
H -11.455300 -17.363400 -12.348300
C -11.277100 -19.392200 -12.046800
N -11.075200 -21.575100 -11.720600
C -10.997200 -18.021100 -11.875500
H -10.886500 -22.337000 -11.226100
C -10.582000 -20.377700 -11.322600
C -10.017700 -17.710800 -10.977000
O -9.823700 -15.871000 -9.596600
N -9.808800 -16.279400 -10.742100
O -9.678100 -15.557800 -11.716900
C -9.589600 -20.031400 -10.394200
C -9.330100 -18.696200 -10.228800
H -9.127800 -20.678800 -9.911600
N -8.240100 -18.333800 -9.325800
O -8.066800 -19.032100 -8.337500
O -7.539000 -17.362200 -9.610100
18
Fragment
O -16.936200 -11.572100 -16.575400
O -16.408400 -13.242000 -17.848100
N -16.235100 -12.543700 -16.859700
H -15.347400 -14.888700 -16.273900
C -15.145100 -12.906100 -15.956700
C -14.885600 -14.241300 -15.791400
O -14.797100 -9.767700 -14.468600
N -14.666400 -10.489300 -15.443500
O -14.651500 -10.080900 -16.588900
C -14.457500 -11.920700 -15.208600
C -13.893200 -14.587600 -14.862900
H -13.588700 -16.546900 -14.959400
C -13.478000 -12.231000 -14.310000
N -13.400000 -15.785000 -14.464900
C -13.198000 -13.602100 -14.138700
H -13.019900 -11.573300 -13.837200
N -12.453500 -15.530200 -13.561100
N -12.296300 -14.219300 -13.337400
36
Fragment
N -12.178900 -20.009400 -12.848100
N -12.021700 -21.320300 -12.624400
H -11.455300 -17.363400 -12.348300
C -11.277100 -19.392200 -12.046800
N -11.075200 -21.575100 -11.720600
C -10.997200 -18.021100 -11.875500
H -10.886500 -22.337000 -11.226100
C -10.582000 -20.377700 -11.322600
C -10.017700 -17.710800 -10.977000
O -9.823700 -15.871000 -9.596600
N -9.808800 -16.279400 -10.742100
O -9.678100 -15.557800 -11.716900
C -9.589600 -20.031400 -10.394200
C -9.330100 -18.696200 -10.228800
H -9.127800 -20.678800 -9.911600
N -8.240100 -18.333800 -9.325800
O -8.066800 -19.032100 -8.337500
O -7.539000 -17.362200 -9.610100
O -16.936200 -11.572100 -16.575400
O -16.408400 -13.242000 -17.848100
N -16.235100 -12.543700 -16.859700
H -15.347400 -14.888700 -16.273900
C -15.145100 -12.906100 -15.956700
C -14.885600 -14.241300 -15.791400
O -14.797100 -9.767700 -14.468600
N -14.666400 -10.489300 -15.443500
O -14.651500 -10.080900 -16.588900
C -14.457500 -11.920700 -15.208600
C -13.893200 -14.587600 -14.862900
H -13.588700 -16.546900 -14.959400
C -13.478000 -12.231000 -14.310000
N -13.400000 -15.785000 -14.464900
C -13.198000 -13.602100 -14.138700
H -13.019900 -11.573300 -13.837200
N -12.453500 -15.530200 -13.561100
N -12.296300 -14.219300 -13.337400
