24
Fragment
H -11.164200 -23.644200 -26.901500
H -10.465300 -24.960900 -26.415700
C -10.326200 -24.041300 -26.652700
H -10.035000 -24.575900 -23.975300
N -9.765700 -23.321100 -25.506600
H -9.716400 -23.990900 -27.391600
C -9.702100 -23.752800 -24.251900
O -9.315100 -21.237000 -27.741200
C -9.178900 -22.070700 -25.516000
N -9.111100 -22.881800 -23.425900
C -8.963800 -21.134600 -26.579900
C -8.786500 -21.840300 -24.231200
H -8.446000 -20.766400 -21.883500
H -8.391800 -18.197100 -26.951500
N -8.250800 -20.008100 -26.116100
N -8.135600 -20.690800 -23.856900
H -8.077200 -19.330500 -27.988800
C -7.885400 -18.999000 -27.108700
C -7.818000 -19.750000 -24.812200
C -7.746100 -20.461900 -22.465800
H -7.598400 -19.524500 -22.325000
O -7.205700 -18.736500 -24.539500
H -6.948200 -18.803500 -27.037200
H -6.939100 -20.945100 -22.275000
22
Fragment
H -6.607000 -23.450200 -27.614500
H -6.563400 -24.374300 -25.477000
C -6.162500 -23.013300 -26.924600
C -6.137700 -23.562900 -25.637100
H -5.536100 -21.470500 -28.011700
C -5.528400 -21.832300 -27.154800
H -5.493800 -23.306600 -23.756700
C -5.492300 -22.920700 -24.602700
C -4.855400 -21.139700 -26.116700
C -4.823700 -21.681200 -24.798900
O -4.590100 -22.453200 -21.982100
H -4.431300 -22.599400 -21.190600
H -4.237500 -19.564200 -27.253000
C -4.218500 -19.905200 -26.387700
C -4.125800 -20.939700 -23.768600
C -3.969100 -21.379000 -22.356800
C -3.582200 -19.208500 -25.419700
C -3.524300 -19.720200 -24.102200
O -3.271900 -20.737600 -21.551600
H -3.182400 -18.392600 -25.619900
H -2.855500 -19.310700 -22.493600
O -2.854400 -18.952300 -23.230500
46
Fragment
H -11.164200 -23.644200 -26.901500
H -10.465300 -24.960900 -26.415700
C -10.326200 -24.041300 -26.652700
H -10.035000 -24.575900 -23.975300
N -9.765700 -23.321100 -25.506600
H -9.716400 -23.990900 -27.391600
C -9.702100 -23.752800 -24.251900
O -9.315100 -21.237000 -27.741200
C -9.178900 -22.070700 -25.516000
N -9.111100 -22.881800 -23.425900
C -8.963800 -21.134600 -26.579900
C -8.786500 -21.840300 -24.231200
H -8.446000 -20.766400 -21.883500
H -8.391800 -18.197100 -26.951500
N -8.250800 -20.008100 -26.116100
N -8.135600 -20.690800 -23.856900
H -8.077200 -19.330500 -27.988800
C -7.885400 -18.999000 -27.108700
C -7.818000 -19.750000 -24.812200
C -7.746100 -20.461900 -22.465800
H -7.598400 -19.524500 -22.325000
O -7.205700 -18.736500 -24.539500
H -6.948200 -18.803500 -27.037200
H -6.939100 -20.945100 -22.275000
H -6.607000 -23.450200 -27.614500
H -6.563400 -24.374300 -25.477000
C -6.162500 -23.013300 -26.924600
C -6.137700 -23.562900 -25.637100
H -5.536100 -21.470500 -28.011700
C -5.528400 -21.832300 -27.154800
H -5.493800 -23.306600 -23.756700
C -5.492300 -22.920700 -24.602700
C -4.855400 -21.139700 -26.116700
C -4.823700 -21.681200 -24.798900
O -4.590100 -22.453200 -21.982100
H -4.431300 -22.599400 -21.190600
H -4.237500 -19.564200 -27.253000
C -4.218500 -19.905200 -26.387700
C -4.125800 -20.939700 -23.768600
C -3.969100 -21.379000 -22.356800
C -3.582200 -19.208500 -25.419700
C -3.524300 -19.720200 -24.102200
O -3.271900 -20.737600 -21.551600
H -3.182400 -18.392600 -25.619900
H -2.855500 -19.310700 -22.493600
O -2.854400 -18.952300 -23.230500
