24
Fragment
H -11.164200 -23.644200 -26.901500
H -10.465300 -24.960900 -26.415700
C -10.326200 -24.041300 -26.652700
H -10.035000 -24.575900 -23.975300
N -9.765700 -23.321100 -25.506600
H -9.716400 -23.990900 -27.391600
C -9.702100 -23.752800 -24.251900
O -9.315100 -21.237000 -27.741200
C -9.178900 -22.070700 -25.516000
N -9.111100 -22.881800 -23.425900
C -8.963800 -21.134600 -26.579900
C -8.786500 -21.840300 -24.231200
H -8.446000 -20.766400 -21.883500
H -8.391800 -18.197100 -26.951500
N -8.250800 -20.008100 -26.116100
N -8.135600 -20.690800 -23.856900
H -8.077200 -19.330500 -27.988800
C -7.885400 -18.999000 -27.108700
C -7.818000 -19.750000 -24.812200
C -7.746100 -20.461900 -22.465800
H -7.598400 -19.524500 -22.325000
O -7.205700 -18.736500 -24.539500
H -6.948200 -18.803500 -27.037200
H -6.939100 -20.945100 -22.275000
22
Fragment
O -14.890700 -26.872700 -33.921600
H -14.889500 -26.514300 -34.658500
H -14.562700 -27.432400 -31.532200
O -14.473100 -25.087400 -35.600500
C -14.220700 -26.104800 -33.049900
C -14.162900 -26.616500 -31.732400
C -13.775900 -24.446000 -34.795300
C -13.619200 -24.885300 -33.383500
C -13.526600 -25.919800 -30.764400
H -13.507500 -26.260800 -29.899100
H -13.313700 -23.225600 -35.961500
O -13.154900 -23.371800 -35.170000
C -12.921300 -24.143800 -32.353200
C -12.889700 -24.685300 -31.035400
C -12.252800 -22.904300 -32.549400
H -12.251200 -22.518400 -33.395400
C -12.216600 -23.992700 -29.997300
H -12.209000 -24.354500 -29.140400
C -11.607300 -22.262100 -31.515000
C -11.582500 -22.811700 -30.227500
H -11.181600 -21.450700 -31.675100
H -11.138000 -22.374800 -29.537600
46
Fragment
H -11.164200 -23.644200 -26.901500
H -10.465300 -24.960900 -26.415700
C -10.326200 -24.041300 -26.652700
H -10.035000 -24.575900 -23.975300
N -9.765700 -23.321100 -25.506600
H -9.716400 -23.990900 -27.391600
C -9.702100 -23.752800 -24.251900
O -9.315100 -21.237000 -27.741200
C -9.178900 -22.070700 -25.516000
N -9.111100 -22.881800 -23.425900
C -8.963800 -21.134600 -26.579900
C -8.786500 -21.840300 -24.231200
H -8.446000 -20.766400 -21.883500
H -8.391800 -18.197100 -26.951500
N -8.250800 -20.008100 -26.116100
N -8.135600 -20.690800 -23.856900
H -8.077200 -19.330500 -27.988800
C -7.885400 -18.999000 -27.108700
C -7.818000 -19.750000 -24.812200
C -7.746100 -20.461900 -22.465800
H -7.598400 -19.524500 -22.325000
O -7.205700 -18.736500 -24.539500
H -6.948200 -18.803500 -27.037200
H -6.939100 -20.945100 -22.275000
O -14.890700 -26.872700 -33.921600
H -14.889500 -26.514300 -34.658500
H -14.562700 -27.432400 -31.532200
O -14.473100 -25.087400 -35.600500
C -14.220700 -26.104800 -33.049900
C -14.162900 -26.616500 -31.732400
C -13.775900 -24.446000 -34.795300
C -13.619200 -24.885300 -33.383500
C -13.526600 -25.919800 -30.764400
H -13.507500 -26.260800 -29.899100
H -13.313700 -23.225600 -35.961500
O -13.154900 -23.371800 -35.170000
C -12.921300 -24.143800 -32.353200
C -12.889700 -24.685300 -31.035400
C -12.252800 -22.904300 -32.549400
H -12.251200 -22.518400 -33.395400
C -12.216600 -23.992700 -29.997300
H -12.209000 -24.354500 -29.140400
C -11.607300 -22.262100 -31.515000
C -11.582500 -22.811700 -30.227500
H -11.181600 -21.450700 -31.675100
H -11.138000 -22.374800 -29.537600
