24
Fragment
H -11.164200 -23.644200 -26.901500
H -10.465300 -24.960900 -26.415700
C -10.326200 -24.041300 -26.652700
H -10.035000 -24.575900 -23.975300
N -9.765700 -23.321100 -25.506600
H -9.716400 -23.990900 -27.391600
C -9.702100 -23.752800 -24.251900
O -9.315100 -21.237000 -27.741200
C -9.178900 -22.070700 -25.516000
N -9.111100 -22.881800 -23.425900
C -8.963800 -21.134600 -26.579900
C -8.786500 -21.840300 -24.231200
H -8.446000 -20.766400 -21.883500
H -8.391800 -18.197100 -26.951500
N -8.250800 -20.008100 -26.116100
N -8.135600 -20.690800 -23.856900
H -8.077200 -19.330500 -27.988800
C -7.885400 -18.999000 -27.108700
C -7.818000 -19.750000 -24.812200
C -7.746100 -20.461900 -22.465800
H -7.598400 -19.524500 -22.325000
O -7.205700 -18.736500 -24.539500
H -6.948200 -18.803500 -27.037200
H -6.939100 -20.945100 -22.275000
24
Fragment
H -8.946100 -14.543300 -19.757500
H -8.247200 -13.226600 -19.271700
C -8.108100 -14.146200 -19.508700
H -7.816900 -13.611600 -16.831300
N -7.547500 -14.866400 -18.362500
H -7.498300 -14.196600 -20.247600
C -7.483900 -14.434700 -17.107900
O -7.096900 -16.950500 -20.597200
C -6.960800 -16.116800 -18.372000
N -6.893000 -15.305700 -16.281900
C -6.745700 -17.052900 -19.435900
C -6.568400 -16.347200 -17.087200
H -6.227800 -17.421100 -14.739500
H -6.173700 -19.990400 -19.807500
N -6.032700 -18.179400 -18.972100
N -5.917500 -17.496700 -16.712800
H -5.859100 -18.857000 -20.844800
C -5.667300 -19.188500 -19.964700
C -5.599900 -18.437500 -17.668100
C -5.528000 -17.725600 -15.321800
H -5.380300 -18.663000 -15.181000
O -4.987500 -19.451000 -17.395500
H -4.730000 -19.384000 -19.893200
H -4.720900 -17.242400 -15.131000
48
Fragment
H -11.164200 -23.644200 -26.901500
H -10.465300 -24.960900 -26.415700
C -10.326200 -24.041300 -26.652700
H -10.035000 -24.575900 -23.975300
N -9.765700 -23.321100 -25.506600
H -9.716400 -23.990900 -27.391600
C -9.702100 -23.752800 -24.251900
O -9.315100 -21.237000 -27.741200
C -9.178900 -22.070700 -25.516000
N -9.111100 -22.881800 -23.425900
C -8.963800 -21.134600 -26.579900
C -8.786500 -21.840300 -24.231200
H -8.446000 -20.766400 -21.883500
H -8.391800 -18.197100 -26.951500
N -8.250800 -20.008100 -26.116100
N -8.135600 -20.690800 -23.856900
H -8.077200 -19.330500 -27.988800
C -7.885400 -18.999000 -27.108700
C -7.818000 -19.750000 -24.812200
C -7.746100 -20.461900 -22.465800
H -7.598400 -19.524500 -22.325000
O -7.205700 -18.736500 -24.539500
H -6.948200 -18.803500 -27.037200
H -6.939100 -20.945100 -22.275000
H -8.946100 -14.543300 -19.757500
H -8.247200 -13.226600 -19.271700
C -8.108100 -14.146200 -19.508700
H -7.816900 -13.611600 -16.831300
N -7.547500 -14.866400 -18.362500
H -7.498300 -14.196600 -20.247600
C -7.483900 -14.434700 -17.107900
O -7.096900 -16.950500 -20.597200
C -6.960800 -16.116800 -18.372000
N -6.893000 -15.305700 -16.281900
C -6.745700 -17.052900 -19.435900
C -6.568400 -16.347200 -17.087200
H -6.227800 -17.421100 -14.739500
H -6.173700 -19.990400 -19.807500
N -6.032700 -18.179400 -18.972100
N -5.917500 -17.496700 -16.712800
H -5.859100 -18.857000 -20.844800
C -5.667300 -19.188500 -19.964700
C -5.599900 -18.437500 -17.668100
C -5.528000 -17.725600 -15.321800
H -5.380300 -18.663000 -15.181000
O -4.987500 -19.451000 -17.395500
H -4.730000 -19.384000 -19.893200
H -4.720900 -17.242400 -15.131000
