24
Fragment
H -11.164200 -23.644200 -26.901500
H -10.465300 -24.960900 -26.415700
C -10.326200 -24.041300 -26.652700
H -10.035000 -24.575900 -23.975300
N -9.765700 -23.321100 -25.506600
H -9.716400 -23.990900 -27.391600
C -9.702100 -23.752800 -24.251900
O -9.315100 -21.237000 -27.741200
C -9.178900 -22.070700 -25.516000
N -9.111100 -22.881800 -23.425900
C -8.963800 -21.134600 -26.579900
C -8.786500 -21.840300 -24.231200
H -8.446000 -20.766400 -21.883500
H -8.391800 -18.197100 -26.951500
N -8.250800 -20.008100 -26.116100
N -8.135600 -20.690800 -23.856900
H -8.077200 -19.330500 -27.988800
C -7.885400 -18.999000 -27.108700
C -7.818000 -19.750000 -24.812200
C -7.746100 -20.461900 -22.465800
H -7.598400 -19.524500 -22.325000
O -7.205700 -18.736500 -24.539500
H -6.948200 -18.803500 -27.037200
H -6.939100 -20.945100 -22.275000
22
Fragment
H -8.825100 -14.737300 -34.758500
H -8.781500 -13.813200 -32.621000
C -8.380600 -15.174200 -34.068700
C -8.355800 -14.624600 -32.781200
H -7.754200 -16.717000 -35.155700
C -7.746500 -16.355200 -34.298800
H -7.712000 -14.880900 -30.900700
C -7.710400 -15.266800 -31.746700
C -7.073500 -17.047800 -33.260700
C -7.041800 -16.506300 -31.942900
O -6.808200 -15.734300 -29.126100
H -6.649500 -15.588100 -28.334600
H -6.455600 -18.623300 -34.397000
C -6.436600 -18.282300 -33.531700
C -6.344000 -17.247800 -30.912600
C -6.187300 -16.808500 -29.500800
C -5.800300 -18.979000 -32.563700
C -5.742500 -18.467300 -31.246200
O -5.490000 -17.449900 -28.695600
H -5.400500 -19.794900 -32.763900
H -5.073600 -18.876800 -29.637700
O -5.072500 -19.235200 -30.374500
46
Fragment
H -11.164200 -23.644200 -26.901500
H -10.465300 -24.960900 -26.415700
C -10.326200 -24.041300 -26.652700
H -10.035000 -24.575900 -23.975300
N -9.765700 -23.321100 -25.506600
H -9.716400 -23.990900 -27.391600
C -9.702100 -23.752800 -24.251900
O -9.315100 -21.237000 -27.741200
C -9.178900 -22.070700 -25.516000
N -9.111100 -22.881800 -23.425900
C -8.963800 -21.134600 -26.579900
C -8.786500 -21.840300 -24.231200
H -8.446000 -20.766400 -21.883500
H -8.391800 -18.197100 -26.951500
N -8.250800 -20.008100 -26.116100
N -8.135600 -20.690800 -23.856900
H -8.077200 -19.330500 -27.988800
C -7.885400 -18.999000 -27.108700
C -7.818000 -19.750000 -24.812200
C -7.746100 -20.461900 -22.465800
H -7.598400 -19.524500 -22.325000
O -7.205700 -18.736500 -24.539500
H -6.948200 -18.803500 -27.037200
H -6.939100 -20.945100 -22.275000
H -8.825100 -14.737300 -34.758500
H -8.781500 -13.813200 -32.621000
C -8.380600 -15.174200 -34.068700
C -8.355800 -14.624600 -32.781200
H -7.754200 -16.717000 -35.155700
C -7.746500 -16.355200 -34.298800
H -7.712000 -14.880900 -30.900700
C -7.710400 -15.266800 -31.746700
C -7.073500 -17.047800 -33.260700
C -7.041800 -16.506300 -31.942900
O -6.808200 -15.734300 -29.126100
H -6.649500 -15.588100 -28.334600
H -6.455600 -18.623300 -34.397000
C -6.436600 -18.282300 -33.531700
C -6.344000 -17.247800 -30.912600
C -6.187300 -16.808500 -29.500800
C -5.800300 -18.979000 -32.563700
C -5.742500 -18.467300 -31.246200
O -5.490000 -17.449900 -28.695600
H -5.400500 -19.794900 -32.763900
H -5.073600 -18.876800 -29.637700
O -5.072500 -19.235200 -30.374500
