24
Fragment
H -11.164200 -23.644200 -26.901500
H -10.465300 -24.960900 -26.415700
C -10.326200 -24.041300 -26.652700
H -10.035000 -24.575900 -23.975300
N -9.765700 -23.321100 -25.506600
H -9.716400 -23.990900 -27.391600
C -9.702100 -23.752800 -24.251900
O -9.315100 -21.237000 -27.741200
C -9.178900 -22.070700 -25.516000
N -9.111100 -22.881800 -23.425900
C -8.963800 -21.134600 -26.579900
C -8.786500 -21.840300 -24.231200
H -8.446000 -20.766400 -21.883500
H -8.391800 -18.197100 -26.951500
N -8.250800 -20.008100 -26.116100
N -8.135600 -20.690800 -23.856900
H -8.077200 -19.330500 -27.988800
C -7.885400 -18.999000 -27.108700
C -7.818000 -19.750000 -24.812200
C -7.746100 -20.461900 -22.465800
H -7.598400 -19.524500 -22.325000
O -7.205700 -18.736500 -24.539500
H -6.948200 -18.803500 -27.037200
H -6.939100 -20.945100 -22.275000
22
Fragment
O -10.454400 -26.872700 -19.633600
H -10.453300 -26.514300 -20.370400
H -10.126400 -27.432400 -17.244200
O -10.036900 -25.087400 -21.312400
C -9.784400 -26.104800 -18.761900
C -9.726600 -26.616500 -17.444400
C -9.339600 -24.446000 -20.507300
C -9.182900 -24.885300 -19.095500
C -9.090300 -25.919800 -16.476400
H -9.071300 -26.260800 -15.611100
H -8.877400 -23.225600 -21.673500
O -8.718700 -23.371800 -20.881900
C -8.485100 -24.143800 -18.065200
C -8.453400 -24.685300 -16.747400
C -7.816500 -22.904300 -18.261400
H -7.814900 -22.518400 -19.107400
C -7.780400 -23.992700 -15.709300
H -7.772700 -24.354500 -14.852400
C -7.171100 -22.262100 -17.226900
C -7.146300 -22.811700 -15.939400
H -6.745400 -21.450700 -17.387100
H -6.701800 -22.374800 -15.249600
46
Fragment
H -11.164200 -23.644200 -26.901500
H -10.465300 -24.960900 -26.415700
C -10.326200 -24.041300 -26.652700
H -10.035000 -24.575900 -23.975300
N -9.765700 -23.321100 -25.506600
H -9.716400 -23.990900 -27.391600
C -9.702100 -23.752800 -24.251900
O -9.315100 -21.237000 -27.741200
C -9.178900 -22.070700 -25.516000
N -9.111100 -22.881800 -23.425900
C -8.963800 -21.134600 -26.579900
C -8.786500 -21.840300 -24.231200
H -8.446000 -20.766400 -21.883500
H -8.391800 -18.197100 -26.951500
N -8.250800 -20.008100 -26.116100
N -8.135600 -20.690800 -23.856900
H -8.077200 -19.330500 -27.988800
C -7.885400 -18.999000 -27.108700
C -7.818000 -19.750000 -24.812200
C -7.746100 -20.461900 -22.465800
H -7.598400 -19.524500 -22.325000
O -7.205700 -18.736500 -24.539500
H -6.948200 -18.803500 -27.037200
H -6.939100 -20.945100 -22.275000
O -10.454400 -26.872700 -19.633600
H -10.453300 -26.514300 -20.370400
H -10.126400 -27.432400 -17.244200
O -10.036900 -25.087400 -21.312400
C -9.784400 -26.104800 -18.761900
C -9.726600 -26.616500 -17.444400
C -9.339600 -24.446000 -20.507300
C -9.182900 -24.885300 -19.095500
C -9.090300 -25.919800 -16.476400
H -9.071300 -26.260800 -15.611100
H -8.877400 -23.225600 -21.673500
O -8.718700 -23.371800 -20.881900
C -8.485100 -24.143800 -18.065200
C -8.453400 -24.685300 -16.747400
C -7.816500 -22.904300 -18.261400
H -7.814900 -22.518400 -19.107400
C -7.780400 -23.992700 -15.709300
H -7.772700 -24.354500 -14.852400
C -7.171100 -22.262100 -17.226900
C -7.146300 -22.811700 -15.939400
H -6.745400 -21.450700 -17.387100
H -6.701800 -22.374800 -15.249600
