24
Fragment
H -11.164200 -23.644200 -26.901500
H -10.465300 -24.960900 -26.415700
C -10.326200 -24.041300 -26.652700
H -10.035000 -24.575900 -23.975300
N -9.765700 -23.321100 -25.506600
H -9.716400 -23.990900 -27.391600
C -9.702100 -23.752800 -24.251900
O -9.315100 -21.237000 -27.741200
C -9.178900 -22.070700 -25.516000
N -9.111100 -22.881800 -23.425900
C -8.963800 -21.134600 -26.579900
C -8.786500 -21.840300 -24.231200
H -8.446000 -20.766400 -21.883500
H -8.391800 -18.197100 -26.951500
N -8.250800 -20.008100 -26.116100
N -8.135600 -20.690800 -23.856900
H -8.077200 -19.330500 -27.988800
C -7.885400 -18.999000 -27.108700
C -7.818000 -19.750000 -24.812200
C -7.746100 -20.461900 -22.465800
H -7.598400 -19.524500 -22.325000
O -7.205700 -18.736500 -24.539500
H -6.948200 -18.803500 -27.037200
H -6.939100 -20.945100 -22.275000
24
Fragment
H -13.382400 -14.543300 -34.045500
H -12.683400 -13.226600 -33.559700
C -12.544400 -14.146200 -33.796800
H -12.253200 -13.611600 -31.119300
N -11.983800 -14.866400 -32.650600
H -11.934500 -14.196600 -34.535600
C -11.920200 -14.434700 -31.395900
O -11.533200 -16.950500 -34.885200
C -11.397000 -16.116800 -32.660000
N -11.329200 -15.305700 -30.569900
C -11.182000 -17.052900 -33.723900
C -11.004600 -16.347200 -31.375200
H -10.664100 -17.421100 -29.027600
H -10.610000 -19.990400 -34.095500
N -10.469000 -18.179400 -33.260100
N -10.353700 -17.496700 -31.000900
H -10.295400 -18.857000 -35.132800
C -10.103600 -19.188500 -34.252700
C -10.036100 -18.437500 -31.956200
C -9.964200 -17.725600 -29.609800
H -9.816500 -18.663000 -29.469100
O -9.423800 -19.451000 -31.683600
H -9.166300 -19.384000 -34.181200
H -9.157200 -17.242400 -29.419000
48
Fragment
H -11.164200 -23.644200 -26.901500
H -10.465300 -24.960900 -26.415700
C -10.326200 -24.041300 -26.652700
H -10.035000 -24.575900 -23.975300
N -9.765700 -23.321100 -25.506600
H -9.716400 -23.990900 -27.391600
C -9.702100 -23.752800 -24.251900
O -9.315100 -21.237000 -27.741200
C -9.178900 -22.070700 -25.516000
N -9.111100 -22.881800 -23.425900
C -8.963800 -21.134600 -26.579900
C -8.786500 -21.840300 -24.231200
H -8.446000 -20.766400 -21.883500
H -8.391800 -18.197100 -26.951500
N -8.250800 -20.008100 -26.116100
N -8.135600 -20.690800 -23.856900
H -8.077200 -19.330500 -27.988800
C -7.885400 -18.999000 -27.108700
C -7.818000 -19.750000 -24.812200
C -7.746100 -20.461900 -22.465800
H -7.598400 -19.524500 -22.325000
O -7.205700 -18.736500 -24.539500
H -6.948200 -18.803500 -27.037200
H -6.939100 -20.945100 -22.275000
H -13.382400 -14.543300 -34.045500
H -12.683400 -13.226600 -33.559700
C -12.544400 -14.146200 -33.796800
H -12.253200 -13.611600 -31.119300
N -11.983800 -14.866400 -32.650600
H -11.934500 -14.196600 -34.535600
C -11.920200 -14.434700 -31.395900
O -11.533200 -16.950500 -34.885200
C -11.397000 -16.116800 -32.660000
N -11.329200 -15.305700 -30.569900
C -11.182000 -17.052900 -33.723900
C -11.004600 -16.347200 -31.375200
H -10.664100 -17.421100 -29.027600
H -10.610000 -19.990400 -34.095500
N -10.469000 -18.179400 -33.260100
N -10.353700 -17.496700 -31.000900
H -10.295400 -18.857000 -35.132800
C -10.103600 -19.188500 -34.252700
C -10.036100 -18.437500 -31.956200
C -9.964200 -17.725600 -29.609800
H -9.816500 -18.663000 -29.469100
O -9.423800 -19.451000 -31.683600
H -9.166300 -19.384000 -34.181200
H -9.157200 -17.242400 -29.419000
