11
Fragment
N -22.537000 -5.868500 -21.952600
C -21.696200 -6.034800 -21.204200
C -20.622500 -6.231500 -20.282100
N -20.486800 -5.486100 -19.144600
C -19.607600 -7.150900 -20.374400
C -19.403200 -5.968100 -18.570900
C -19.343800 -8.104200 -21.394200
N -19.188700 -8.855900 -22.230100
H -19.062600 -5.646600 -17.767300
N -18.842900 -6.967200 -19.261800
H -18.136300 -7.408100 -19.045300
11
Fragment
H -23.699200 -9.825100 -13.288300
N -22.992600 -9.384200 -13.504800
H -22.772900 -8.063600 -12.010300
N -22.646800 -11.272900 -16.473100
C -22.491700 -10.521200 -15.637200
C -22.432300 -8.385100 -12.813900
C -22.227900 -9.567900 -14.617400
N -21.348700 -7.903100 -13.387600
C -21.213000 -8.648500 -14.525100
C -20.139300 -8.451800 -15.447200
N -19.298500 -8.285500 -16.195600
22
Fragment
N -22.537000 -5.868500 -21.952600
C -21.696200 -6.034800 -21.204200
C -20.622500 -6.231500 -20.282100
N -20.486800 -5.486100 -19.144600
C -19.607600 -7.150900 -20.374400
C -19.403200 -5.968100 -18.570900
C -19.343800 -8.104200 -21.394200
N -19.188700 -8.855900 -22.230100
H -19.062600 -5.646600 -17.767300
N -18.842900 -6.967200 -19.261800
H -18.136300 -7.408100 -19.045300
H -23.699200 -9.825100 -13.288300
N -22.992600 -9.384200 -13.504800
H -22.772900 -8.063600 -12.010300
N -22.646800 -11.272900 -16.473100
C -22.491700 -10.521200 -15.637200
C -22.432300 -8.385100 -12.813900
C -22.227900 -9.567900 -14.617400
N -21.348700 -7.903100 -13.387600
C -21.213000 -8.648500 -14.525100
C -20.139300 -8.451800 -15.447200
N -19.298500 -8.285500 -16.195600
