11
Fragment
N -22.537000 -5.868500 -21.952600
C -21.696200 -6.034800 -21.204200
C -20.622500 -6.231500 -20.282100
N -20.486800 -5.486100 -19.144600
C -19.607600 -7.150900 -20.374400
C -19.403200 -5.968100 -18.570900
C -19.343800 -8.104200 -21.394200
N -19.188700 -8.855900 -22.230100
H -19.062600 -5.646600 -17.767300
N -18.842900 -6.967200 -19.261800
H -18.136300 -7.408100 -19.045300
11
Fragment
H -17.722700 -7.093900 -13.288300
N -17.016100 -7.534800 -13.504800
H -16.796400 -8.855400 -12.010300
N -16.670300 -5.646100 -16.473100
C -16.515200 -6.397800 -15.637200
C -16.455800 -8.533900 -12.813900
C -16.251400 -7.351100 -14.617400
N -15.372200 -9.015900 -13.387600
C -15.236500 -8.270500 -14.525100
C -14.162800 -8.467200 -15.447200
N -13.322000 -8.633500 -16.195600
22
Fragment
N -22.537000 -5.868500 -21.952600
C -21.696200 -6.034800 -21.204200
C -20.622500 -6.231500 -20.282100
N -20.486800 -5.486100 -19.144600
C -19.607600 -7.150900 -20.374400
C -19.403200 -5.968100 -18.570900
C -19.343800 -8.104200 -21.394200
N -19.188700 -8.855900 -22.230100
H -19.062600 -5.646600 -17.767300
N -18.842900 -6.967200 -19.261800
H -18.136300 -7.408100 -19.045300
H -17.722700 -7.093900 -13.288300
N -17.016100 -7.534800 -13.504800
H -16.796400 -8.855400 -12.010300
N -16.670300 -5.646100 -16.473100
C -16.515200 -6.397800 -15.637200
C -16.455800 -8.533900 -12.813900
C -16.251400 -7.351100 -14.617400
N -15.372200 -9.015900 -13.387600
C -15.236500 -8.270500 -14.525100
C -14.162800 -8.467200 -15.447200
N -13.322000 -8.633500 -16.195600
