11
Fragment
N -22.537000 -5.868500 -21.952600
C -21.696200 -6.034800 -21.204200
C -20.622500 -6.231500 -20.282100
N -20.486800 -5.486100 -19.144600
C -19.607600 -7.150900 -20.374400
C -19.403200 -5.968100 -18.570900
C -19.343800 -8.104200 -21.394200
N -19.188700 -8.855900 -22.230100
H -19.062600 -5.646600 -17.767300
N -18.842900 -6.967200 -19.261800
H -18.136300 -7.408100 -19.045300
11
Fragment
N -28.513500 -11.050500 -21.952600
C -27.672700 -10.884200 -21.204200
C -26.599000 -10.687500 -20.282100
N -26.463300 -11.432900 -19.144600
C -25.584100 -9.768100 -20.374400
C -25.379700 -10.950900 -18.570900
C -25.320300 -8.814800 -21.394200
N -25.165200 -8.063100 -22.230100
H -25.039100 -11.272400 -17.767300
N -24.819400 -9.951800 -19.261800
H -24.112800 -9.510900 -19.045300
22
Fragment
N -22.537000 -5.868500 -21.952600
C -21.696200 -6.034800 -21.204200
C -20.622500 -6.231500 -20.282100
N -20.486800 -5.486100 -19.144600
C -19.607600 -7.150900 -20.374400
C -19.403200 -5.968100 -18.570900
C -19.343800 -8.104200 -21.394200
N -19.188700 -8.855900 -22.230100
H -19.062600 -5.646600 -17.767300
N -18.842900 -6.967200 -19.261800
H -18.136300 -7.408100 -19.045300
N -28.513500 -11.050500 -21.952600
C -27.672700 -10.884200 -21.204200
C -26.599000 -10.687500 -20.282100
N -26.463300 -11.432900 -19.144600
C -25.584100 -9.768100 -20.374400
C -25.379700 -10.950900 -18.570900
C -25.320300 -8.814800 -21.394200
N -25.165200 -8.063100 -22.230100
H -25.039100 -11.272400 -17.767300
N -24.819400 -9.951800 -19.261800
H -24.112800 -9.510900 -19.045300
