24
Fragment
H -28.135100 -21.663500 -14.607400
O -27.841500 -24.016000 -15.281600
H -27.299200 -21.272900 -15.874400
C -27.265900 -21.409900 -14.924400
H -26.993000 -20.597400 -14.493000
H -26.978800 -26.271300 -15.257400
C -26.721000 -23.798600 -14.817300
H -26.548900 -26.548000 -13.776300
N -26.296800 -22.480700 -14.614800
C -26.258600 -26.207600 -14.625800
N -25.858200 -24.802900 -14.479800
H -25.513100 -26.723000 -14.939000
C -25.029400 -22.078600 -14.153300
O -24.730300 -20.883700 -14.075600
C -24.606100 -24.498500 -13.969900
C -24.215900 -23.182700 -13.819600
N -23.651500 -25.366900 -13.589900
N -22.930200 -23.237000 -13.305300
C -22.642000 -24.555500 -13.189400
H -22.502400 -21.544200 -12.336200
C -22.063000 -22.108500 -12.976700
H -21.877400 -21.605200 -13.772600
H -21.826700 -24.917600 -12.786600
H -21.239800 -22.435400 -12.604700
16
Fragment
H -33.993100 -16.005900 -12.654600
H -33.263500 -14.825800 -13.102100
N -33.217500 -15.639600 -12.888600
H -33.057200 -18.234500 -12.964900
C -32.294300 -17.834300 -13.314800
C -32.210200 -16.430400 -13.367700
H -31.331400 -19.552900 -13.738900
C -31.258400 -18.626500 -13.776300
C -31.046400 -15.863400 -13.890000
H -30.963400 -14.937000 -13.930300
C -30.130600 -18.055400 -14.287600
C -30.016400 -16.663700 -14.346300
F -29.144300 -18.875400 -14.735800
N -28.836100 -15.993700 -14.888400
O -28.762500 -14.798700 -14.825300
O -28.005100 -16.669200 -15.458400
40
Fragment
H -28.135100 -21.663500 -14.607400
O -27.841500 -24.016000 -15.281600
H -27.299200 -21.272900 -15.874400
C -27.265900 -21.409900 -14.924400
H -26.993000 -20.597400 -14.493000
H -26.978800 -26.271300 -15.257400
C -26.721000 -23.798600 -14.817300
H -26.548900 -26.548000 -13.776300
N -26.296800 -22.480700 -14.614800
C -26.258600 -26.207600 -14.625800
N -25.858200 -24.802900 -14.479800
H -25.513100 -26.723000 -14.939000
C -25.029400 -22.078600 -14.153300
O -24.730300 -20.883700 -14.075600
C -24.606100 -24.498500 -13.969900
C -24.215900 -23.182700 -13.819600
N -23.651500 -25.366900 -13.589900
N -22.930200 -23.237000 -13.305300
C -22.642000 -24.555500 -13.189400
H -22.502400 -21.544200 -12.336200
C -22.063000 -22.108500 -12.976700
H -21.877400 -21.605200 -13.772600
H -21.826700 -24.917600 -12.786600
H -21.239800 -22.435400 -12.604700
H -33.993100 -16.005900 -12.654600
H -33.263500 -14.825800 -13.102100
N -33.217500 -15.639600 -12.888600
H -33.057200 -18.234500 -12.964900
C -32.294300 -17.834300 -13.314800
C -32.210200 -16.430400 -13.367700
H -31.331400 -19.552900 -13.738900
C -31.258400 -18.626500 -13.776300
C -31.046400 -15.863400 -13.890000
H -30.963400 -14.937000 -13.930300
C -30.130600 -18.055400 -14.287600
C -30.016400 -16.663700 -14.346300
F -29.144300 -18.875400 -14.735800
N -28.836100 -15.993700 -14.888400
O -28.762500 -14.798700 -14.825300
O -28.005100 -16.669200 -15.458400
