24
Fragment
H -15.454100 -14.877500 -22.359600
H -15.319900 -13.661900 -21.379100
H -14.968900 -15.712300 -16.727700
C -14.854500 -14.397500 -21.784200
O -14.843300 -13.828500 -19.076600
C -14.426400 -14.924000 -19.420600
N -14.356200 -15.296900 -20.738700
H -14.116000 -14.064200 -22.297800
C -14.105300 -15.455900 -17.059800
H -14.004600 -14.504200 -16.985600
N -13.984600 -15.854300 -18.469900
C -13.850900 -16.528400 -21.076200
N -13.741900 -17.026900 -22.329800
C -13.444000 -17.121500 -18.732300
H -13.422300 -15.890800 -16.545100
C -13.391100 -17.397200 -20.124700
C -13.203600 -18.236400 -22.115400
H -13.087300 -20.189500 -19.745800
O -13.073500 -17.861600 -17.822800
H -12.996500 -18.888900 -22.840500
N -12.972300 -18.518600 -20.816600
C -12.426700 -19.753500 -20.288900
H -12.179100 -20.330400 -21.015100
H -11.652100 -19.559100 -19.756600
16
Fragment
H -18.421700 -16.039300 -29.235200
H -18.373200 -17.093500 -28.158000
N -18.369800 -16.261600 -28.419300
H -17.958700 -16.518000 -25.869300
C -17.893700 -15.356600 -27.535200
C -17.754800 -15.661500 -26.167300
H -17.616400 -13.835100 -28.859200
C -17.547800 -14.055600 -27.957800
C -17.325300 -14.720500 -25.266300
H -17.244500 -14.936600 -24.364900
C -17.113200 -13.112900 -27.065800
C -17.011900 -13.439000 -25.713300
H -16.886500 -12.260200 -27.360200
N -16.561000 -12.436100 -24.778400
O -16.462100 -12.728700 -23.592600
O -16.290400 -11.310200 -25.195400
40
Fragment
H -15.454100 -14.877500 -22.359600
H -15.319900 -13.661900 -21.379100
H -14.968900 -15.712300 -16.727700
C -14.854500 -14.397500 -21.784200
O -14.843300 -13.828500 -19.076600
C -14.426400 -14.924000 -19.420600
N -14.356200 -15.296900 -20.738700
H -14.116000 -14.064200 -22.297800
C -14.105300 -15.455900 -17.059800
H -14.004600 -14.504200 -16.985600
N -13.984600 -15.854300 -18.469900
C -13.850900 -16.528400 -21.076200
N -13.741900 -17.026900 -22.329800
C -13.444000 -17.121500 -18.732300
H -13.422300 -15.890800 -16.545100
C -13.391100 -17.397200 -20.124700
C -13.203600 -18.236400 -22.115400
H -13.087300 -20.189500 -19.745800
O -13.073500 -17.861600 -17.822800
H -12.996500 -18.888900 -22.840500
N -12.972300 -18.518600 -20.816600
C -12.426700 -19.753500 -20.288900
H -12.179100 -20.330400 -21.015100
H -11.652100 -19.559100 -19.756600
H -18.421700 -16.039300 -29.235200
H -18.373200 -17.093500 -28.158000
N -18.369800 -16.261600 -28.419300
H -17.958700 -16.518000 -25.869300
C -17.893700 -15.356600 -27.535200
C -17.754800 -15.661500 -26.167300
H -17.616400 -13.835100 -28.859200
C -17.547800 -14.055600 -27.957800
C -17.325300 -14.720500 -25.266300
H -17.244500 -14.936600 -24.364900
C -17.113200 -13.112900 -27.065800
C -17.011900 -13.439000 -25.713300
H -16.886500 -12.260200 -27.360200
N -16.561000 -12.436100 -24.778400
O -16.462100 -12.728700 -23.592600
O -16.290400 -11.310200 -25.195400
