16
Fragment
O -10.107800 -24.170500 -19.260700
Cl -9.304200 -21.456500 -19.932400
N -9.108100 -24.625700 -19.808100
C -8.650200 -22.533900 -21.127100
C -8.561700 -23.919300 -20.977100
O -8.556600 -25.663200 -19.445900
H -8.143600 -21.050700 -22.402300
C -8.108400 -21.972500 -22.284000
C -7.954500 -24.721000 -21.933300
H -7.896500 -25.638900 -21.796600
C -7.522000 -22.757300 -23.255100
C -7.426600 -24.154600 -23.105500
H -7.183300 -22.356800 -24.022600
N -6.862000 -24.943200 -24.062500
H -6.835800 -25.777300 -23.927100
H -6.443300 -24.558000 -24.741600
16
Fragment
H -12.508300 -16.130100 -20.015300
H -12.115800 -14.910800 -20.829900
N -12.089500 -15.744900 -20.694400
H -11.768200 -18.331300 -20.734400
C -11.525000 -16.533500 -21.651500
C -11.429600 -17.930800 -21.501800
H -11.055100 -15.049200 -22.960300
C -10.997100 -15.967100 -22.823700
C -10.843200 -18.715600 -22.472900
H -10.808000 -19.637400 -22.354600
O -10.395000 -15.024900 -25.311100
C -10.389900 -16.768800 -23.779800
C -10.301300 -18.154200 -23.629900
N -9.843500 -16.062400 -24.948900
Cl -9.647400 -19.231600 -24.824600
O -8.843800 -16.517600 -25.496200
32
Fragment
O -10.107800 -24.170500 -19.260700
Cl -9.304200 -21.456500 -19.932400
N -9.108100 -24.625700 -19.808100
C -8.650200 -22.533900 -21.127100
C -8.561700 -23.919300 -20.977100
O -8.556600 -25.663200 -19.445900
H -8.143600 -21.050700 -22.402300
C -8.108400 -21.972500 -22.284000
C -7.954500 -24.721000 -21.933300
H -7.896500 -25.638900 -21.796600
C -7.522000 -22.757300 -23.255100
C -7.426600 -24.154600 -23.105500
H -7.183300 -22.356800 -24.022600
N -6.862000 -24.943200 -24.062500
H -6.835800 -25.777300 -23.927100
H -6.443300 -24.558000 -24.741600
H -12.508300 -16.130100 -20.015300
H -12.115800 -14.910800 -20.829900
N -12.089500 -15.744900 -20.694400
H -11.768200 -18.331300 -20.734400
C -11.525000 -16.533500 -21.651500
C -11.429600 -17.930800 -21.501800
H -11.055100 -15.049200 -22.960300
C -10.997100 -15.967100 -22.823700
C -10.843200 -18.715600 -22.472900
H -10.808000 -19.637400 -22.354600
O -10.395000 -15.024900 -25.311100
C -10.389900 -16.768800 -23.779800
C -10.301300 -18.154200 -23.629900
N -9.843500 -16.062400 -24.948900
Cl -9.647400 -19.231600 -24.824600
O -8.843800 -16.517600 -25.496200
