16
Fragment
O -10.107800 -24.170500 -19.260700
Cl -9.304200 -21.456500 -19.932400
N -9.108100 -24.625700 -19.808100
C -8.650200 -22.533900 -21.127100
C -8.561700 -23.919300 -20.977100
O -8.556600 -25.663200 -19.445900
H -8.143600 -21.050700 -22.402300
C -8.108400 -21.972500 -22.284000
C -7.954500 -24.721000 -21.933300
H -7.896500 -25.638900 -21.796600
C -7.522000 -22.757300 -23.255100
C -7.426600 -24.154600 -23.105500
H -7.183300 -22.356800 -24.022600
N -6.862000 -24.943200 -24.062500
H -6.835800 -25.777300 -23.927100
H -6.443300 -24.558000 -24.741600
24
Fragment
H -6.096600 -21.275800 -19.900400
O -5.943900 -23.478700 -18.878500
H -5.919300 -26.729400 -19.833300
H -5.813100 -25.739300 -18.623400
H -5.392300 -20.778100 -21.210300
C -5.353200 -26.097100 -19.386000
C -5.353200 -23.703500 -19.927300
C -5.286200 -21.305100 -20.415000
N -5.013400 -25.008300 -20.307100
N -4.992700 -22.691300 -20.783300
H -4.562600 -20.953000 -19.891500
H -4.548500 -26.535400 -19.097800
C -4.304500 -22.977000 -21.944300
C -4.290000 -25.380000 -21.454200
O -3.990800 -26.557300 -21.659200
C -3.970200 -24.267700 -22.272400
N -3.873200 -22.082800 -22.862300
H -3.486300 -25.732500 -24.705800
N -3.281500 -24.185300 -23.467100
C -3.256900 -22.863700 -23.767300
H -2.798600 -22.541200 -24.550700
C -2.760300 -25.283600 -24.268000
H -2.296800 -25.903400 -23.698800
H -2.152500 -24.939100 -24.926600
40
Fragment
O -10.107800 -24.170500 -19.260700
Cl -9.304200 -21.456500 -19.932400
N -9.108100 -24.625700 -19.808100
C -8.650200 -22.533900 -21.127100
C -8.561700 -23.919300 -20.977100
O -8.556600 -25.663200 -19.445900
H -8.143600 -21.050700 -22.402300
C -8.108400 -21.972500 -22.284000
C -7.954500 -24.721000 -21.933300
H -7.896500 -25.638900 -21.796600
C -7.522000 -22.757300 -23.255100
C -7.426600 -24.154600 -23.105500
H -7.183300 -22.356800 -24.022600
N -6.862000 -24.943200 -24.062500
H -6.835800 -25.777300 -23.927100
H -6.443300 -24.558000 -24.741600
H -6.096600 -21.275800 -19.900400
O -5.943900 -23.478700 -18.878500
H -5.919300 -26.729400 -19.833300
H -5.813100 -25.739300 -18.623400
H -5.392300 -20.778100 -21.210300
C -5.353200 -26.097100 -19.386000
C -5.353200 -23.703500 -19.927300
C -5.286200 -21.305100 -20.415000
N -5.013400 -25.008300 -20.307100
N -4.992700 -22.691300 -20.783300
H -4.562600 -20.953000 -19.891500
H -4.548500 -26.535400 -19.097800
C -4.304500 -22.977000 -21.944300
C -4.290000 -25.380000 -21.454200
O -3.990800 -26.557300 -21.659200
C -3.970200 -24.267700 -22.272400
N -3.873200 -22.082800 -22.862300
H -3.486300 -25.732500 -24.705800
N -3.281500 -24.185300 -23.467100
C -3.256900 -22.863700 -23.767300
H -2.798600 -22.541200 -24.550700
C -2.760300 -25.283600 -24.268000
H -2.296800 -25.903400 -23.698800
H -2.152500 -24.939100 -24.926600
