24
Fragment
H -17.609000 -20.805700 -19.559900
H -16.903800 -26.381600 -19.754700
H -16.833400 -21.478900 -18.374300
C -16.770400 -21.184000 -19.286200
O -16.607800 -23.747000 -18.347000
N -16.445300 -22.325800 -20.147800
C -16.399500 -23.593800 -19.544700
O -16.336300 -20.888300 -21.938800
H -16.265500 -21.840500 -24.678500
C -16.231000 -22.039800 -21.503900
N -16.094500 -24.658200 -20.364800
H -16.080900 -20.520600 -19.360000
C -16.023800 -26.000100 -19.787700
C -15.895000 -23.197600 -22.250700
C -15.850800 -24.454500 -21.704400
H -15.664100 -25.947700 -18.899300
N -15.602800 -23.379900 -23.596200
N -15.556000 -25.410000 -22.620900
C -15.457200 -22.354400 -24.622100
H -15.456000 -26.552700 -20.330600
C -15.404200 -24.707100 -23.748700
H -15.284900 -22.772400 -25.469500
H -15.182100 -25.096500 -24.563400
H -14.725400 -21.776500 -24.395700
16
Fragment
H -17.656900 -24.880900 -27.793400
H -17.530600 -25.965800 -28.733500
Cl -17.528200 -22.302600 -27.743200
N -17.336800 -25.143900 -28.519200
C -17.190100 -22.867700 -29.350200
C -17.158300 -24.262300 -29.540100
H -17.001000 -21.045000 -30.208800
C -16.975300 -21.958700 -30.379200
C -16.902400 -24.715100 -30.847300
H -16.870900 -25.626400 -31.030300
C -16.721000 -22.421500 -31.664200
C -16.699500 -23.794900 -31.855500
H -16.570700 -21.833600 -32.368400
O -16.559300 -25.523900 -33.394600
N -16.471000 -24.313700 -33.210700
O -16.203900 -23.509000 -34.103000
40
Fragment
H -17.609000 -20.805700 -19.559900
H -16.903800 -26.381600 -19.754700
H -16.833400 -21.478900 -18.374300
C -16.770400 -21.184000 -19.286200
O -16.607800 -23.747000 -18.347000
N -16.445300 -22.325800 -20.147800
C -16.399500 -23.593800 -19.544700
O -16.336300 -20.888300 -21.938800
H -16.265500 -21.840500 -24.678500
C -16.231000 -22.039800 -21.503900
N -16.094500 -24.658200 -20.364800
H -16.080900 -20.520600 -19.360000
C -16.023800 -26.000100 -19.787700
C -15.895000 -23.197600 -22.250700
C -15.850800 -24.454500 -21.704400
H -15.664100 -25.947700 -18.899300
N -15.602800 -23.379900 -23.596200
N -15.556000 -25.410000 -22.620900
C -15.457200 -22.354400 -24.622100
H -15.456000 -26.552700 -20.330600
C -15.404200 -24.707100 -23.748700
H -15.284900 -22.772400 -25.469500
H -15.182100 -25.096500 -24.563400
H -14.725400 -21.776500 -24.395700
H -17.656900 -24.880900 -27.793400
H -17.530600 -25.965800 -28.733500
Cl -17.528200 -22.302600 -27.743200
N -17.336800 -25.143900 -28.519200
C -17.190100 -22.867700 -29.350200
C -17.158300 -24.262300 -29.540100
H -17.001000 -21.045000 -30.208800
C -16.975300 -21.958700 -30.379200
C -16.902400 -24.715100 -30.847300
H -16.870900 -25.626400 -31.030300
C -16.721000 -22.421500 -31.664200
C -16.699500 -23.794900 -31.855500
H -16.570700 -21.833600 -32.368400
O -16.559300 -25.523900 -33.394600
N -16.471000 -24.313700 -33.210700
O -16.203900 -23.509000 -34.103000
