24
Fragment
H -17.609000 -20.805700 -19.559900
H -16.903800 -26.381600 -19.754700
H -16.833400 -21.478900 -18.374300
C -16.770400 -21.184000 -19.286200
O -16.607800 -23.747000 -18.347000
N -16.445300 -22.325800 -20.147800
C -16.399500 -23.593800 -19.544700
O -16.336300 -20.888300 -21.938800
H -16.265500 -21.840500 -24.678500
C -16.231000 -22.039800 -21.503900
N -16.094500 -24.658200 -20.364800
H -16.080900 -20.520600 -19.360000
C -16.023800 -26.000100 -19.787700
C -15.895000 -23.197600 -22.250700
C -15.850800 -24.454500 -21.704400
H -15.664100 -25.947700 -18.899300
N -15.602800 -23.379900 -23.596200
N -15.556000 -25.410000 -22.620900
C -15.457200 -22.354400 -24.622100
H -15.456000 -26.552700 -20.330600
C -15.404200 -24.707100 -23.748700
H -15.284900 -22.772400 -25.469500
H -15.182100 -25.096500 -24.563400
H -14.725400 -21.776500 -24.395700
16
Fragment
H -17.105600 -31.835200 -20.313600
Cl -17.087500 -29.267000 -20.166900
N -17.028300 -32.074300 -21.069900
H -16.833400 -32.899200 -21.235100
C -16.710600 -31.163500 -22.026900
C -16.702100 -29.777500 -21.779500
H -16.412300 -27.933800 -22.552800
C -16.403500 -28.840200 -22.758300
C -16.392400 -31.574500 -23.330300
H -16.385700 -32.479100 -23.547100
C -16.091200 -29.259700 -24.046600
C -16.088400 -30.626200 -24.289000
H -15.891900 -28.648700 -24.719200
N -15.705700 -31.110400 -25.618600
O -15.596500 -32.322500 -25.783600
O -15.503900 -30.282100 -26.509400
40
Fragment
H -17.609000 -20.805700 -19.559900
H -16.903800 -26.381600 -19.754700
H -16.833400 -21.478900 -18.374300
C -16.770400 -21.184000 -19.286200
O -16.607800 -23.747000 -18.347000
N -16.445300 -22.325800 -20.147800
C -16.399500 -23.593800 -19.544700
O -16.336300 -20.888300 -21.938800
H -16.265500 -21.840500 -24.678500
C -16.231000 -22.039800 -21.503900
N -16.094500 -24.658200 -20.364800
H -16.080900 -20.520600 -19.360000
C -16.023800 -26.000100 -19.787700
C -15.895000 -23.197600 -22.250700
C -15.850800 -24.454500 -21.704400
H -15.664100 -25.947700 -18.899300
N -15.602800 -23.379900 -23.596200
N -15.556000 -25.410000 -22.620900
C -15.457200 -22.354400 -24.622100
H -15.456000 -26.552700 -20.330600
C -15.404200 -24.707100 -23.748700
H -15.284900 -22.772400 -25.469500
H -15.182100 -25.096500 -24.563400
H -14.725400 -21.776500 -24.395700
H -17.105600 -31.835200 -20.313600
Cl -17.087500 -29.267000 -20.166900
N -17.028300 -32.074300 -21.069900
H -16.833400 -32.899200 -21.235100
C -16.710600 -31.163500 -22.026900
C -16.702100 -29.777500 -21.779500
H -16.412300 -27.933800 -22.552800
C -16.403500 -28.840200 -22.758300
C -16.392400 -31.574500 -23.330300
H -16.385700 -32.479100 -23.547100
C -16.091200 -29.259700 -24.046600
C -16.088400 -30.626200 -24.289000
H -15.891900 -28.648700 -24.719200
N -15.705700 -31.110400 -25.618600
O -15.596500 -32.322500 -25.783600
O -15.503900 -30.282100 -26.509400
