16
Fragment
O -10.107800 -24.170500 -19.260700
Cl -9.304200 -21.456500 -19.932400
N -9.108100 -24.625700 -19.808100
C -8.650200 -22.533900 -21.127100
C -8.561700 -23.919300 -20.977100
O -8.556600 -25.663200 -19.445900
H -8.143600 -21.050700 -22.402300
C -8.108400 -21.972500 -22.284000
C -7.954500 -24.721000 -21.933300
H -7.896500 -25.638900 -21.796600
C -7.522000 -22.757300 -23.255100
C -7.426600 -24.154600 -23.105500
H -7.183300 -22.356800 -24.022600
N -6.862000 -24.943200 -24.062500
H -6.835800 -25.777300 -23.927100
H -6.443300 -24.558000 -24.741600
16
Fragment
H -13.247200 -31.339300 -12.555800
H -12.854700 -32.558600 -13.370400
N -12.828400 -31.724500 -13.234900
H -12.507100 -29.138100 -13.274900
C -12.263900 -30.936000 -14.192000
C -12.168500 -29.538600 -14.042300
H -11.794000 -32.420300 -15.500800
C -11.736000 -31.502400 -15.364200
C -11.582100 -28.753900 -15.013400
H -11.546900 -27.832000 -14.895100
O -11.133900 -32.444600 -17.851600
C -11.128800 -30.700700 -16.320300
C -11.040200 -29.315200 -16.170400
N -10.582400 -31.407000 -17.489400
Cl -10.386300 -28.237800 -17.365100
O -9.582700 -30.951800 -18.036800
32
Fragment
O -10.107800 -24.170500 -19.260700
Cl -9.304200 -21.456500 -19.932400
N -9.108100 -24.625700 -19.808100
C -8.650200 -22.533900 -21.127100
C -8.561700 -23.919300 -20.977100
O -8.556600 -25.663200 -19.445900
H -8.143600 -21.050700 -22.402300
C -8.108400 -21.972500 -22.284000
C -7.954500 -24.721000 -21.933300
H -7.896500 -25.638900 -21.796600
C -7.522000 -22.757300 -23.255100
C -7.426600 -24.154600 -23.105500
H -7.183300 -22.356800 -24.022600
N -6.862000 -24.943200 -24.062500
H -6.835800 -25.777300 -23.927100
H -6.443300 -24.558000 -24.741600
H -13.247200 -31.339300 -12.555800
H -12.854700 -32.558600 -13.370400
N -12.828400 -31.724500 -13.234900
H -12.507100 -29.138100 -13.274900
C -12.263900 -30.936000 -14.192000
C -12.168500 -29.538600 -14.042300
H -11.794000 -32.420300 -15.500800
C -11.736000 -31.502400 -15.364200
C -11.582100 -28.753900 -15.013400
H -11.546900 -27.832000 -14.895100
O -11.133900 -32.444600 -17.851600
C -11.128800 -30.700700 -16.320300
C -11.040200 -29.315200 -16.170400
N -10.582400 -31.407000 -17.489400
Cl -10.386300 -28.237800 -17.365100
O -9.582700 -30.951800 -18.036800
