24
Fragment
H -15.454100 -14.877500 -22.359600
H -15.319900 -13.661900 -21.379100
H -14.968900 -15.712300 -16.727700
C -14.854500 -14.397500 -21.784200
O -14.843300 -13.828500 -19.076600
C -14.426400 -14.924000 -19.420600
N -14.356200 -15.296900 -20.738700
H -14.116000 -14.064200 -22.297800
C -14.105300 -15.455900 -17.059800
H -14.004600 -14.504200 -16.985600
N -13.984600 -15.854300 -18.469900
C -13.850900 -16.528400 -21.076200
N -13.741900 -17.026900 -22.329800
C -13.444000 -17.121500 -18.732300
H -13.422300 -15.890800 -16.545100
C -13.391100 -17.397200 -20.124700
C -13.203600 -18.236400 -22.115400
H -13.087300 -20.189500 -19.745800
O -13.073500 -17.861600 -17.822800
H -12.996500 -18.888900 -22.840500
N -12.972300 -18.518600 -20.816600
C -12.426700 -19.753500 -20.288900
H -12.179100 -20.330400 -21.015100
H -11.652100 -19.559100 -19.756600
24
Fragment
H -14.248300 -22.773400 -29.075400
H -14.114100 -23.989000 -28.094900
H -13.763100 -21.938600 -23.443500
C -13.648700 -23.253400 -28.500000
O -13.637500 -23.822400 -25.792500
C -13.220600 -22.726900 -26.136400
N -13.150400 -22.354000 -27.454500
H -12.910200 -23.586700 -29.013600
C -12.899400 -22.195000 -23.775600
H -12.798800 -23.146700 -23.701400
N -12.778700 -21.796600 -25.185700
C -12.645100 -21.122500 -27.792000
N -12.536100 -20.624000 -29.045600
C -12.238100 -20.529400 -25.448100
H -12.216400 -21.760100 -23.260900
C -12.185300 -20.253700 -26.840500
C -11.997800 -19.414500 -28.831200
H -11.881500 -17.461400 -26.461600
O -11.867700 -19.789300 -24.538600
H -11.790600 -18.762000 -29.556300
N -11.766400 -19.132300 -27.532400
C -11.220900 -17.897400 -27.004700
H -10.973200 -17.320500 -27.730900
H -10.446300 -18.091800 -26.472400
48
Fragment
H -15.454100 -14.877500 -22.359600
H -15.319900 -13.661900 -21.379100
H -14.968900 -15.712300 -16.727700
C -14.854500 -14.397500 -21.784200
O -14.843300 -13.828500 -19.076600
C -14.426400 -14.924000 -19.420600
N -14.356200 -15.296900 -20.738700
H -14.116000 -14.064200 -22.297800
C -14.105300 -15.455900 -17.059800
H -14.004600 -14.504200 -16.985600
N -13.984600 -15.854300 -18.469900
C -13.850900 -16.528400 -21.076200
N -13.741900 -17.026900 -22.329800
C -13.444000 -17.121500 -18.732300
H -13.422300 -15.890800 -16.545100
C -13.391100 -17.397200 -20.124700
C -13.203600 -18.236400 -22.115400
H -13.087300 -20.189500 -19.745800
O -13.073500 -17.861600 -17.822800
H -12.996500 -18.888900 -22.840500
N -12.972300 -18.518600 -20.816600
C -12.426700 -19.753500 -20.288900
H -12.179100 -20.330400 -21.015100
H -11.652100 -19.559100 -19.756600
H -14.248300 -22.773400 -29.075400
H -14.114100 -23.989000 -28.094900
H -13.763100 -21.938600 -23.443500
C -13.648700 -23.253400 -28.500000
O -13.637500 -23.822400 -25.792500
C -13.220600 -22.726900 -26.136400
N -13.150400 -22.354000 -27.454500
H -12.910200 -23.586700 -29.013600
C -12.899400 -22.195000 -23.775600
H -12.798800 -23.146700 -23.701400
N -12.778700 -21.796600 -25.185700
C -12.645100 -21.122500 -27.792000
N -12.536100 -20.624000 -29.045600
C -12.238100 -20.529400 -25.448100
H -12.216400 -21.760100 -23.260900
C -12.185300 -20.253700 -26.840500
C -11.997800 -19.414500 -28.831200
H -11.881500 -17.461400 -26.461600
O -11.867700 -19.789300 -24.538600
H -11.790600 -18.762000 -29.556300
N -11.766400 -19.132300 -27.532400
C -11.220900 -17.897400 -27.004700
H -10.973200 -17.320500 -27.730900
H -10.446300 -18.091800 -26.472400
