24
Fragment
H -17.609000 -20.805700 -19.559900
H -16.903800 -26.381600 -19.754700
H -16.833400 -21.478900 -18.374300
C -16.770400 -21.184000 -19.286200
O -16.607800 -23.747000 -18.347000
N -16.445300 -22.325800 -20.147800
C -16.399500 -23.593800 -19.544700
O -16.336300 -20.888300 -21.938800
H -16.265500 -21.840500 -24.678500
C -16.231000 -22.039800 -21.503900
N -16.094500 -24.658200 -20.364800
H -16.080900 -20.520600 -19.360000
C -16.023800 -26.000100 -19.787700
C -15.895000 -23.197600 -22.250700
C -15.850800 -24.454500 -21.704400
H -15.664100 -25.947700 -18.899300
N -15.602800 -23.379900 -23.596200
N -15.556000 -25.410000 -22.620900
C -15.457200 -22.354400 -24.622100
H -15.456000 -26.552700 -20.330600
C -15.404200 -24.707100 -23.748700
H -15.284900 -22.772400 -25.469500
H -15.182100 -25.096500 -24.563400
H -14.725400 -21.776500 -24.395700
24
Fragment
H -21.571100 -15.647100 -18.755400
H -21.343100 -21.196600 -18.968800
H -21.258500 -20.214600 -17.749200
O -21.049200 -17.915100 -17.759400
H -20.886000 -15.087900 -20.049400
C -20.810900 -20.522100 -18.540800
C -20.790200 -15.693100 -19.310100
C -20.781000 -18.105300 -18.940100
N -20.630300 -17.055900 -19.814800
N -20.616300 -19.395800 -19.461000
C -20.305500 -17.292200 -21.132900
C -20.267500 -19.718500 -20.786200
H -20.238200 -20.007400 -24.058600
C -20.160000 -18.569700 -21.609400
O -20.085100 -20.887900 -21.126000
N -20.064300 -16.355700 -22.084700
H -20.017000 -15.449600 -18.796000
H -19.957900 -20.892000 -18.303100
N -19.790100 -18.419400 -22.935600
C -19.757100 -17.090800 -23.155000
H -19.539400 -16.719400 -23.979000
C -19.456600 -19.478400 -23.882000
H -19.142400 -19.088000 -24.700600
H -18.770200 -20.036600 -23.509800
48
Fragment
H -17.609000 -20.805700 -19.559900
H -16.903800 -26.381600 -19.754700
H -16.833400 -21.478900 -18.374300
C -16.770400 -21.184000 -19.286200
O -16.607800 -23.747000 -18.347000
N -16.445300 -22.325800 -20.147800
C -16.399500 -23.593800 -19.544700
O -16.336300 -20.888300 -21.938800
H -16.265500 -21.840500 -24.678500
C -16.231000 -22.039800 -21.503900
N -16.094500 -24.658200 -20.364800
H -16.080900 -20.520600 -19.360000
C -16.023800 -26.000100 -19.787700
C -15.895000 -23.197600 -22.250700
C -15.850800 -24.454500 -21.704400
H -15.664100 -25.947700 -18.899300
N -15.602800 -23.379900 -23.596200
N -15.556000 -25.410000 -22.620900
C -15.457200 -22.354400 -24.622100
H -15.456000 -26.552700 -20.330600
C -15.404200 -24.707100 -23.748700
H -15.284900 -22.772400 -25.469500
H -15.182100 -25.096500 -24.563400
H -14.725400 -21.776500 -24.395700
H -21.571100 -15.647100 -18.755400
H -21.343100 -21.196600 -18.968800
H -21.258500 -20.214600 -17.749200
O -21.049200 -17.915100 -17.759400
H -20.886000 -15.087900 -20.049400
C -20.810900 -20.522100 -18.540800
C -20.790200 -15.693100 -19.310100
C -20.781000 -18.105300 -18.940100
N -20.630300 -17.055900 -19.814800
N -20.616300 -19.395800 -19.461000
C -20.305500 -17.292200 -21.132900
C -20.267500 -19.718500 -20.786200
H -20.238200 -20.007400 -24.058600
C -20.160000 -18.569700 -21.609400
O -20.085100 -20.887900 -21.126000
N -20.064300 -16.355700 -22.084700
H -20.017000 -15.449600 -18.796000
H -19.957900 -20.892000 -18.303100
N -19.790100 -18.419400 -22.935600
C -19.757100 -17.090800 -23.155000
H -19.539400 -16.719400 -23.979000
C -19.456600 -19.478400 -23.882000
H -19.142400 -19.088000 -24.700600
H -18.770200 -20.036600 -23.509800
