24
Fragment
H -15.454100 -14.877500 -22.359600
H -15.319900 -13.661900 -21.379100
H -14.968900 -15.712300 -16.727700
C -14.854500 -14.397500 -21.784200
O -14.843300 -13.828500 -19.076600
C -14.426400 -14.924000 -19.420600
N -14.356200 -15.296900 -20.738700
H -14.116000 -14.064200 -22.297800
C -14.105300 -15.455900 -17.059800
H -14.004600 -14.504200 -16.985600
N -13.984600 -15.854300 -18.469900
C -13.850900 -16.528400 -21.076200
N -13.741900 -17.026900 -22.329800
C -13.444000 -17.121500 -18.732300
H -13.422300 -15.890800 -16.545100
C -13.391100 -17.397200 -20.124700
C -13.203600 -18.236400 -22.115400
H -13.087300 -20.189500 -19.745800
O -13.073500 -17.861600 -17.822800
H -12.996500 -18.888900 -22.840500
N -12.972300 -18.518600 -20.816600
C -12.426700 -19.753500 -20.288900
H -12.179100 -20.330400 -21.015100
H -11.652100 -19.559100 -19.756600
16
Fragment
H -19.627500 -10.854200 -22.519400
H -19.579000 -9.800000 -21.442200
N -19.575700 -10.631900 -21.703500
H -19.164500 -10.375500 -19.153500
C -19.099600 -11.536900 -20.819400
C -18.960600 -11.232000 -19.451500
H -18.822200 -13.058400 -22.143400
C -18.753600 -12.837900 -21.242000
C -18.531100 -12.173000 -18.550500
H -18.450300 -11.956900 -17.649100
C -18.319000 -13.780600 -20.350000
C -18.217700 -13.454500 -18.997500
H -18.092300 -14.633300 -20.644400
N -17.766800 -14.457400 -18.062600
O -17.667900 -14.164800 -16.876800
O -17.496200 -15.583300 -18.479600
40
Fragment
H -15.454100 -14.877500 -22.359600
H -15.319900 -13.661900 -21.379100
H -14.968900 -15.712300 -16.727700
C -14.854500 -14.397500 -21.784200
O -14.843300 -13.828500 -19.076600
C -14.426400 -14.924000 -19.420600
N -14.356200 -15.296900 -20.738700
H -14.116000 -14.064200 -22.297800
C -14.105300 -15.455900 -17.059800
H -14.004600 -14.504200 -16.985600
N -13.984600 -15.854300 -18.469900
C -13.850900 -16.528400 -21.076200
N -13.741900 -17.026900 -22.329800
C -13.444000 -17.121500 -18.732300
H -13.422300 -15.890800 -16.545100
C -13.391100 -17.397200 -20.124700
C -13.203600 -18.236400 -22.115400
H -13.087300 -20.189500 -19.745800
O -13.073500 -17.861600 -17.822800
H -12.996500 -18.888900 -22.840500
N -12.972300 -18.518600 -20.816600
C -12.426700 -19.753500 -20.288900
H -12.179100 -20.330400 -21.015100
H -11.652100 -19.559100 -19.756600
H -19.627500 -10.854200 -22.519400
H -19.579000 -9.800000 -21.442200
N -19.575700 -10.631900 -21.703500
H -19.164500 -10.375500 -19.153500
C -19.099600 -11.536900 -20.819400
C -18.960600 -11.232000 -19.451500
H -18.822200 -13.058400 -22.143400
C -18.753600 -12.837900 -21.242000
C -18.531100 -12.173000 -18.550500
H -18.450300 -11.956900 -17.649100
C -18.319000 -13.780600 -20.350000
C -18.217700 -13.454500 -18.997500
H -18.092300 -14.633300 -20.644400
N -17.766800 -14.457400 -18.062600
O -17.667900 -14.164800 -16.876800
O -17.496200 -15.583300 -18.479600
