24
Fragment
H -17.609000 -20.805700 -19.559900
H -16.903800 -26.381600 -19.754700
H -16.833400 -21.478900 -18.374300
C -16.770400 -21.184000 -19.286200
O -16.607800 -23.747000 -18.347000
N -16.445300 -22.325800 -20.147800
C -16.399500 -23.593800 -19.544700
O -16.336300 -20.888300 -21.938800
H -16.265500 -21.840500 -24.678500
C -16.231000 -22.039800 -21.503900
N -16.094500 -24.658200 -20.364800
H -16.080900 -20.520600 -19.360000
C -16.023800 -26.000100 -19.787700
C -15.895000 -23.197600 -22.250700
C -15.850800 -24.454500 -21.704400
H -15.664100 -25.947700 -18.899300
N -15.602800 -23.379900 -23.596200
N -15.556000 -25.410000 -22.620900
C -15.457200 -22.354400 -24.622100
H -15.456000 -26.552700 -20.330600
C -15.404200 -24.707100 -23.748700
H -15.284900 -22.772400 -25.469500
H -15.182100 -25.096500 -24.563400
H -14.725400 -21.776500 -24.395700
24
Fragment
H -15.356900 -27.874000 -28.028900
H -14.651600 -22.298100 -28.223600
H -14.581300 -27.200900 -26.843200
C -14.518200 -27.495700 -27.755100
O -14.355700 -24.932800 -26.815900
N -14.193200 -26.354000 -28.616800
C -14.147400 -25.085900 -28.013600
O -14.084100 -27.791400 -30.407800
H -14.013300 -26.839200 -33.147500
C -13.978900 -26.639900 -29.972800
N -13.842300 -24.021500 -28.833800
H -13.828700 -28.159100 -27.829000
C -13.771600 -22.679600 -28.256700
C -13.642800 -25.482200 -30.719600
C -13.598700 -24.225300 -30.173400
H -13.411900 -22.732100 -27.368300
N -13.350600 -25.299800 -32.065200
N -13.303900 -23.269800 -31.089900
C -13.205100 -26.325300 -33.091100
H -13.203800 -22.127000 -28.799500
C -13.152100 -23.972700 -32.217600
H -13.032700 -25.907400 -33.938500
H -12.930000 -23.583300 -33.032300
H -12.473300 -26.903200 -32.864600
48
Fragment
H -17.609000 -20.805700 -19.559900
H -16.903800 -26.381600 -19.754700
H -16.833400 -21.478900 -18.374300
C -16.770400 -21.184000 -19.286200
O -16.607800 -23.747000 -18.347000
N -16.445300 -22.325800 -20.147800
C -16.399500 -23.593800 -19.544700
O -16.336300 -20.888300 -21.938800
H -16.265500 -21.840500 -24.678500
C -16.231000 -22.039800 -21.503900
N -16.094500 -24.658200 -20.364800
H -16.080900 -20.520600 -19.360000
C -16.023800 -26.000100 -19.787700
C -15.895000 -23.197600 -22.250700
C -15.850800 -24.454500 -21.704400
H -15.664100 -25.947700 -18.899300
N -15.602800 -23.379900 -23.596200
N -15.556000 -25.410000 -22.620900
C -15.457200 -22.354400 -24.622100
H -15.456000 -26.552700 -20.330600
C -15.404200 -24.707100 -23.748700
H -15.284900 -22.772400 -25.469500
H -15.182100 -25.096500 -24.563400
H -14.725400 -21.776500 -24.395700
H -15.356900 -27.874000 -28.028900
H -14.651600 -22.298100 -28.223600
H -14.581300 -27.200900 -26.843200
C -14.518200 -27.495700 -27.755100
O -14.355700 -24.932800 -26.815900
N -14.193200 -26.354000 -28.616800
C -14.147400 -25.085900 -28.013600
O -14.084100 -27.791400 -30.407800
H -14.013300 -26.839200 -33.147500
C -13.978900 -26.639900 -29.972800
N -13.842300 -24.021500 -28.833800
H -13.828700 -28.159100 -27.829000
C -13.771600 -22.679600 -28.256700
C -13.642800 -25.482200 -30.719600
C -13.598700 -24.225300 -30.173400
H -13.411900 -22.732100 -27.368300
N -13.350600 -25.299800 -32.065200
N -13.303900 -23.269800 -31.089900
C -13.205100 -26.325300 -33.091100
H -13.203800 -22.127000 -28.799500
C -13.152100 -23.972700 -32.217600
H -13.032700 -25.907400 -33.938500
H -12.930000 -23.583300 -33.032300
H -12.473300 -26.903200 -32.864600
