16
Fragment
O -10.107800 -24.170500 -19.260700
Cl -9.304200 -21.456500 -19.932400
N -9.108100 -24.625700 -19.808100
C -8.650200 -22.533900 -21.127100
C -8.561700 -23.919300 -20.977100
O -8.556600 -25.663200 -19.445900
H -8.143600 -21.050700 -22.402300
C -8.108400 -21.972500 -22.284000
C -7.954500 -24.721000 -21.933300
H -7.896500 -25.638900 -21.796600
C -7.522000 -22.757300 -23.255100
C -7.426600 -24.154600 -23.105500
H -7.183300 -22.356800 -24.022600
N -6.862000 -24.943200 -24.062500
H -6.835800 -25.777300 -23.927100
H -6.443300 -24.558000 -24.741600
24
Fragment
H -9.004000 -29.311700 -19.830300
H -8.859800 -28.347400 -21.058100
C -8.396300 -28.967200 -20.489000
H -8.358000 -31.709600 -20.206300
C -7.899700 -31.387100 -20.989700
N -7.875100 -30.065500 -21.289800
H -7.670300 -28.518300 -20.051100
N -7.283400 -32.168000 -21.894700
C -7.186400 -29.983100 -22.484600
O -7.165700 -27.693500 -23.097700
C -6.866600 -28.870800 -23.302700
C -6.852100 -31.273800 -22.812600
H -6.608100 -27.715400 -25.659200
H -6.594000 -33.297800 -24.865500
N -6.163800 -31.559500 -23.973600
N -6.143200 -29.242500 -24.449800
C -5.870400 -32.945700 -24.342000
C -5.803400 -28.153700 -25.370900
C -5.803300 -30.547300 -24.829700
H -5.764200 -33.472700 -23.546600
H -5.343500 -28.511500 -26.133600
H -5.237300 -27.521400 -24.923700
O -5.212700 -30.772100 -25.878500
H -5.060000 -32.975000 -24.856500
40
Fragment
O -10.107800 -24.170500 -19.260700
Cl -9.304200 -21.456500 -19.932400
N -9.108100 -24.625700 -19.808100
C -8.650200 -22.533900 -21.127100
C -8.561700 -23.919300 -20.977100
O -8.556600 -25.663200 -19.445900
H -8.143600 -21.050700 -22.402300
C -8.108400 -21.972500 -22.284000
C -7.954500 -24.721000 -21.933300
H -7.896500 -25.638900 -21.796600
C -7.522000 -22.757300 -23.255100
C -7.426600 -24.154600 -23.105500
H -7.183300 -22.356800 -24.022600
N -6.862000 -24.943200 -24.062500
H -6.835800 -25.777300 -23.927100
H -6.443300 -24.558000 -24.741600
H -9.004000 -29.311700 -19.830300
H -8.859800 -28.347400 -21.058100
C -8.396300 -28.967200 -20.489000
H -8.358000 -31.709600 -20.206300
C -7.899700 -31.387100 -20.989700
N -7.875100 -30.065500 -21.289800
H -7.670300 -28.518300 -20.051100
N -7.283400 -32.168000 -21.894700
C -7.186400 -29.983100 -22.484600
O -7.165700 -27.693500 -23.097700
C -6.866600 -28.870800 -23.302700
C -6.852100 -31.273800 -22.812600
H -6.608100 -27.715400 -25.659200
H -6.594000 -33.297800 -24.865500
N -6.163800 -31.559500 -23.973600
N -6.143200 -29.242500 -24.449800
C -5.870400 -32.945700 -24.342000
C -5.803400 -28.153700 -25.370900
C -5.803300 -30.547300 -24.829700
H -5.764200 -33.472700 -23.546600
H -5.343500 -28.511500 -26.133600
H -5.237300 -27.521400 -24.923700
O -5.212700 -30.772100 -25.878500
H -5.060000 -32.975000 -24.856500
