16
Fragment
O -10.107800 -24.170500 -19.260700
Cl -9.304200 -21.456500 -19.932400
N -9.108100 -24.625700 -19.808100
C -8.650200 -22.533900 -21.127100
C -8.561700 -23.919300 -20.977100
O -8.556600 -25.663200 -19.445900
H -8.143600 -21.050700 -22.402300
C -8.108400 -21.972500 -22.284000
C -7.954500 -24.721000 -21.933300
H -7.896500 -25.638900 -21.796600
C -7.522000 -22.757300 -23.255100
C -7.426600 -24.154600 -23.105500
H -7.183300 -22.356800 -24.022600
N -6.862000 -24.943200 -24.062500
H -6.835800 -25.777300 -23.927100
H -6.443300 -24.558000 -24.741600
16
Fragment
H -13.247200 -17.776600 -12.555800
H -12.854700 -18.995900 -13.370400
N -12.828400 -18.161800 -13.234900
H -12.507100 -15.575400 -13.274900
C -12.263900 -17.373300 -14.192000
C -12.168500 -15.975900 -14.042300
H -11.794000 -18.857600 -15.500800
C -11.736000 -17.939700 -15.364200
C -11.582100 -15.191200 -15.013400
H -11.546900 -14.269300 -14.895100
O -11.133900 -18.881900 -17.851600
C -11.128800 -17.138000 -16.320300
C -11.040200 -15.752500 -16.170400
N -10.582400 -17.844300 -17.489400
Cl -10.386300 -14.675100 -17.365100
O -9.582700 -17.389100 -18.036800
32
Fragment
O -10.107800 -24.170500 -19.260700
Cl -9.304200 -21.456500 -19.932400
N -9.108100 -24.625700 -19.808100
C -8.650200 -22.533900 -21.127100
C -8.561700 -23.919300 -20.977100
O -8.556600 -25.663200 -19.445900
H -8.143600 -21.050700 -22.402300
C -8.108400 -21.972500 -22.284000
C -7.954500 -24.721000 -21.933300
H -7.896500 -25.638900 -21.796600
C -7.522000 -22.757300 -23.255100
C -7.426600 -24.154600 -23.105500
H -7.183300 -22.356800 -24.022600
N -6.862000 -24.943200 -24.062500
H -6.835800 -25.777300 -23.927100
H -6.443300 -24.558000 -24.741600
H -13.247200 -17.776600 -12.555800
H -12.854700 -18.995900 -13.370400
N -12.828400 -18.161800 -13.234900
H -12.507100 -15.575400 -13.274900
C -12.263900 -17.373300 -14.192000
C -12.168500 -15.975900 -14.042300
H -11.794000 -18.857600 -15.500800
C -11.736000 -17.939700 -15.364200
C -11.582100 -15.191200 -15.013400
H -11.546900 -14.269300 -14.895100
O -11.133900 -18.881900 -17.851600
C -11.128800 -17.138000 -16.320300
C -11.040200 -15.752500 -16.170400
N -10.582400 -17.844300 -17.489400
Cl -10.386300 -14.675100 -17.365100
O -9.582700 -17.389100 -18.036800
