24
Fragment
H -15.454100 -14.877500 -22.359600
H -15.319900 -13.661900 -21.379100
H -14.968900 -15.712300 -16.727700
C -14.854500 -14.397500 -21.784200
O -14.843300 -13.828500 -19.076600
C -14.426400 -14.924000 -19.420600
N -14.356200 -15.296900 -20.738700
H -14.116000 -14.064200 -22.297800
C -14.105300 -15.455900 -17.059800
H -14.004600 -14.504200 -16.985600
N -13.984600 -15.854300 -18.469900
C -13.850900 -16.528400 -21.076200
N -13.741900 -17.026900 -22.329800
C -13.444000 -17.121500 -18.732300
H -13.422300 -15.890800 -16.545100
C -13.391100 -17.397200 -20.124700
C -13.203600 -18.236400 -22.115400
H -13.087300 -20.189500 -19.745800
O -13.073500 -17.861600 -17.822800
H -12.996500 -18.888900 -22.840500
N -12.972300 -18.518600 -20.816600
C -12.426700 -19.753500 -20.288900
H -12.179100 -20.330400 -21.015100
H -11.652100 -19.559100 -19.756600
16
Fragment
O -16.125800 -20.962000 -28.531000
O -15.954100 -19.543500 -30.133800
N -15.855200 -19.836100 -28.948100
H -15.529700 -20.012000 -26.366300
C -15.404400 -18.833200 -28.013100
C -15.303000 -19.159300 -26.660700
H -15.171700 -17.335600 -29.361500
C -15.091000 -17.551700 -28.460100
C -14.868400 -18.216600 -25.768700
H -14.799800 -18.437100 -24.867300
C -14.661400 -16.610700 -27.559100
C -14.522500 -16.915600 -26.191200
H -14.457500 -15.754200 -27.857200
N -14.046400 -16.010600 -25.307200
H -14.043000 -15.178700 -25.568400
H -13.994600 -16.232900 -24.491200
40
Fragment
H -15.454100 -14.877500 -22.359600
H -15.319900 -13.661900 -21.379100
H -14.968900 -15.712300 -16.727700
C -14.854500 -14.397500 -21.784200
O -14.843300 -13.828500 -19.076600
C -14.426400 -14.924000 -19.420600
N -14.356200 -15.296900 -20.738700
H -14.116000 -14.064200 -22.297800
C -14.105300 -15.455900 -17.059800
H -14.004600 -14.504200 -16.985600
N -13.984600 -15.854300 -18.469900
C -13.850900 -16.528400 -21.076200
N -13.741900 -17.026900 -22.329800
C -13.444000 -17.121500 -18.732300
H -13.422300 -15.890800 -16.545100
C -13.391100 -17.397200 -20.124700
C -13.203600 -18.236400 -22.115400
H -13.087300 -20.189500 -19.745800
O -13.073500 -17.861600 -17.822800
H -12.996500 -18.888900 -22.840500
N -12.972300 -18.518600 -20.816600
C -12.426700 -19.753500 -20.288900
H -12.179100 -20.330400 -21.015100
H -11.652100 -19.559100 -19.756600
O -16.125800 -20.962000 -28.531000
O -15.954100 -19.543500 -30.133800
N -15.855200 -19.836100 -28.948100
H -15.529700 -20.012000 -26.366300
C -15.404400 -18.833200 -28.013100
C -15.303000 -19.159300 -26.660700
H -15.171700 -17.335600 -29.361500
C -15.091000 -17.551700 -28.460100
C -14.868400 -18.216600 -25.768700
H -14.799800 -18.437100 -24.867300
C -14.661400 -16.610700 -27.559100
C -14.522500 -16.915600 -26.191200
H -14.457500 -15.754200 -27.857200
N -14.046400 -16.010600 -25.307200
H -14.043000 -15.178700 -25.568400
H -13.994600 -16.232900 -24.491200
