24
Fragment
H -15.454100 -14.877500 -22.359600
H -15.319900 -13.661900 -21.379100
H -14.968900 -15.712300 -16.727700
C -14.854500 -14.397500 -21.784200
O -14.843300 -13.828500 -19.076600
C -14.426400 -14.924000 -19.420600
N -14.356200 -15.296900 -20.738700
H -14.116000 -14.064200 -22.297800
C -14.105300 -15.455900 -17.059800
H -14.004600 -14.504200 -16.985600
N -13.984600 -15.854300 -18.469900
C -13.850900 -16.528400 -21.076200
N -13.741900 -17.026900 -22.329800
C -13.444000 -17.121500 -18.732300
H -13.422300 -15.890800 -16.545100
C -13.391100 -17.397200 -20.124700
C -13.203600 -18.236400 -22.115400
H -13.087300 -20.189500 -19.745800
O -13.073500 -17.861600 -17.822800
H -12.996500 -18.888900 -22.840500
N -12.972300 -18.518600 -20.816600
C -12.426700 -19.753500 -20.288900
H -12.179100 -20.330400 -21.015100
H -11.652100 -19.559100 -19.756600
24
Fragment
H -16.659900 -12.016000 -15.643800
H -16.525800 -13.231600 -14.663300
H -16.174700 -11.181200 -10.011900
C -16.060400 -12.496000 -15.068400
O -16.049100 -13.065000 -12.360800
C -15.632200 -11.969500 -12.704800
N -15.562000 -11.596600 -14.022900
H -15.321900 -12.829300 -15.582000
C -15.311100 -11.437600 -10.344000
H -15.210400 -12.389300 -10.269800
N -15.190400 -11.039200 -11.754100
C -15.056700 -10.365100 -14.360400
N -14.947700 -9.866600 -15.614000
C -14.649800 -9.772000 -12.016500
H -14.628100 -11.002700 -9.829300
C -14.596900 -9.496300 -13.408900
C -14.409500 -8.657100 -15.399600
H -14.293100 -6.704000 -13.030000
O -14.279300 -9.031900 -11.107000
H -14.202300 -8.004600 -16.124600
N -14.178100 -8.374900 -14.100800
C -13.632500 -7.140000 -13.573000
H -13.384900 -6.563100 -14.299300
H -12.857900 -7.334400 -13.040800
48
Fragment
H -15.454100 -14.877500 -22.359600
H -15.319900 -13.661900 -21.379100
H -14.968900 -15.712300 -16.727700
C -14.854500 -14.397500 -21.784200
O -14.843300 -13.828500 -19.076600
C -14.426400 -14.924000 -19.420600
N -14.356200 -15.296900 -20.738700
H -14.116000 -14.064200 -22.297800
C -14.105300 -15.455900 -17.059800
H -14.004600 -14.504200 -16.985600
N -13.984600 -15.854300 -18.469900
C -13.850900 -16.528400 -21.076200
N -13.741900 -17.026900 -22.329800
C -13.444000 -17.121500 -18.732300
H -13.422300 -15.890800 -16.545100
C -13.391100 -17.397200 -20.124700
C -13.203600 -18.236400 -22.115400
H -13.087300 -20.189500 -19.745800
O -13.073500 -17.861600 -17.822800
H -12.996500 -18.888900 -22.840500
N -12.972300 -18.518600 -20.816600
C -12.426700 -19.753500 -20.288900
H -12.179100 -20.330400 -21.015100
H -11.652100 -19.559100 -19.756600
H -16.659900 -12.016000 -15.643800
H -16.525800 -13.231600 -14.663300
H -16.174700 -11.181200 -10.011900
C -16.060400 -12.496000 -15.068400
O -16.049100 -13.065000 -12.360800
C -15.632200 -11.969500 -12.704800
N -15.562000 -11.596600 -14.022900
H -15.321900 -12.829300 -15.582000
C -15.311100 -11.437600 -10.344000
H -15.210400 -12.389300 -10.269800
N -15.190400 -11.039200 -11.754100
C -15.056700 -10.365100 -14.360400
N -14.947700 -9.866600 -15.614000
C -14.649800 -9.772000 -12.016500
H -14.628100 -11.002700 -9.829300
C -14.596900 -9.496300 -13.408900
C -14.409500 -8.657100 -15.399600
H -14.293100 -6.704000 -13.030000
O -14.279300 -9.031900 -11.107000
H -14.202300 -8.004600 -16.124600
N -14.178100 -8.374900 -14.100800
C -13.632500 -7.140000 -13.573000
H -13.384900 -6.563100 -14.299300
H -12.857900 -7.334400 -13.040800
