24
Fragment
H -15.454100 -14.877500 -22.359600
H -15.319900 -13.661900 -21.379100
H -14.968900 -15.712300 -16.727700
C -14.854500 -14.397500 -21.784200
O -14.843300 -13.828500 -19.076600
C -14.426400 -14.924000 -19.420600
N -14.356200 -15.296900 -20.738700
H -14.116000 -14.064200 -22.297800
C -14.105300 -15.455900 -17.059800
H -14.004600 -14.504200 -16.985600
N -13.984600 -15.854300 -18.469900
C -13.850900 -16.528400 -21.076200
N -13.741900 -17.026900 -22.329800
C -13.444000 -17.121500 -18.732300
H -13.422300 -15.890800 -16.545100
C -13.391100 -17.397200 -20.124700
C -13.203600 -18.236400 -22.115400
H -13.087300 -20.189500 -19.745800
O -13.073500 -17.861600 -17.822800
H -12.996500 -18.888900 -22.840500
N -12.972300 -18.518600 -20.816600
C -12.426700 -19.753500 -20.288900
H -12.179100 -20.330400 -21.015100
H -11.652100 -19.559100 -19.756600
24
Fragment
H -12.660100 -12.713100 -20.538300
H -12.133100 -11.941800 -19.279700
C -11.885500 -12.518700 -20.006000
N -11.339900 -13.753600 -19.478300
H -11.315700 -13.383300 -17.454400
O -11.238700 -14.410600 -22.472000
H -11.224800 -12.082700 -20.549000
C -11.108500 -14.035800 -18.179400
C -10.921000 -14.875000 -20.170100
H -10.889900 -16.381400 -23.749800
C -10.868200 -15.150700 -21.562600
N -10.570200 -15.245300 -17.965000
C -10.461300 -15.743800 -19.218600
N -10.327600 -16.417900 -21.824900
H -10.307600 -17.768000 -23.309200
C -10.206900 -16.816300 -23.235100
H -10.196100 -18.208000 -17.997000
N -9.955900 -16.975300 -19.556200
C -9.885700 -17.348200 -20.874200
O -9.468900 -18.443700 -21.218200
C -9.457600 -17.874700 -18.510600
H -9.343200 -16.559900 -23.567100
H -8.992200 -18.610300 -18.915700
H -8.858100 -17.394700 -17.935200
48
Fragment
H -15.454100 -14.877500 -22.359600
H -15.319900 -13.661900 -21.379100
H -14.968900 -15.712300 -16.727700
C -14.854500 -14.397500 -21.784200
O -14.843300 -13.828500 -19.076600
C -14.426400 -14.924000 -19.420600
N -14.356200 -15.296900 -20.738700
H -14.116000 -14.064200 -22.297800
C -14.105300 -15.455900 -17.059800
H -14.004600 -14.504200 -16.985600
N -13.984600 -15.854300 -18.469900
C -13.850900 -16.528400 -21.076200
N -13.741900 -17.026900 -22.329800
C -13.444000 -17.121500 -18.732300
H -13.422300 -15.890800 -16.545100
C -13.391100 -17.397200 -20.124700
C -13.203600 -18.236400 -22.115400
H -13.087300 -20.189500 -19.745800
O -13.073500 -17.861600 -17.822800
H -12.996500 -18.888900 -22.840500
N -12.972300 -18.518600 -20.816600
C -12.426700 -19.753500 -20.288900
H -12.179100 -20.330400 -21.015100
H -11.652100 -19.559100 -19.756600
H -12.660100 -12.713100 -20.538300
H -12.133100 -11.941800 -19.279700
C -11.885500 -12.518700 -20.006000
N -11.339900 -13.753600 -19.478300
H -11.315700 -13.383300 -17.454400
O -11.238700 -14.410600 -22.472000
H -11.224800 -12.082700 -20.549000
C -11.108500 -14.035800 -18.179400
C -10.921000 -14.875000 -20.170100
H -10.889900 -16.381400 -23.749800
C -10.868200 -15.150700 -21.562600
N -10.570200 -15.245300 -17.965000
C -10.461300 -15.743800 -19.218600
N -10.327600 -16.417900 -21.824900
H -10.307600 -17.768000 -23.309200
C -10.206900 -16.816300 -23.235100
H -10.196100 -18.208000 -17.997000
N -9.955900 -16.975300 -19.556200
C -9.885700 -17.348200 -20.874200
O -9.468900 -18.443700 -21.218200
C -9.457600 -17.874700 -18.510600
H -9.343200 -16.559900 -23.567100
H -8.992200 -18.610300 -18.915700
H -8.858100 -17.394700 -17.935200
