24
Fragment
H -19.088000 -10.248700 -26.528000
H -18.490200 -9.799800 -27.906700
C -18.317900 -10.290300 -27.099600
H -18.128700 -11.206100 -27.316300
N -17.755000 -10.627700 -24.236500
H -17.505400 -10.925800 -22.230100
N -17.167400 -9.705500 -26.409900
C -17.139500 -10.547800 -23.056500
C -16.950900 -9.926200 -25.071400
O -16.403600 -8.733500 -28.307300
C -16.252500 -8.963900 -27.121900
N -16.012900 -9.836600 -23.099700
C -15.866400 -9.423100 -24.415600
H -15.593900 -9.290600 -21.220700
N -15.146700 -8.471000 -26.427500
C -15.095100 -9.582300 -21.986800
C -14.884900 -8.621700 -25.057500
H -14.622300 -10.389700 -21.771600
H -14.486800 -6.779500 -27.285000
H -14.467900 -8.901100 -22.238300
C -14.178200 -7.686400 -27.211300
H -14.092000 -8.067700 -28.088200
O -13.910800 -8.100200 -24.539700
H -13.325000 -7.699400 -26.772100
17
Fragment
H -15.323700 -12.979000 -25.043700
O -14.736100 -12.019200 -27.083000
O -14.426500 -12.556900 -24.959400
C -14.075500 -11.998000 -26.086200
C -12.739200 -11.313600 -26.039000
F -12.731600 -10.996500 -23.702300
H -12.444500 -11.434200 -28.033700
C -12.128000 -10.842700 -24.886700
C -12.067300 -11.136000 -27.236800
C -10.914900 -10.190100 -24.904000
C -10.835800 -10.514300 -27.241900
O -10.625400 -10.818300 -29.510300
H -10.549700 -9.860900 -24.115200
C -10.253900 -10.030400 -26.083200
N -10.109100 -10.391300 -28.516800
H -9.428500 -9.603500 -26.109100
O -9.011200 -9.880500 -28.503800
41
Fragment
H -19.088000 -10.248700 -26.528000
H -18.490200 -9.799800 -27.906700
C -18.317900 -10.290300 -27.099600
H -18.128700 -11.206100 -27.316300
N -17.755000 -10.627700 -24.236500
H -17.505400 -10.925800 -22.230100
N -17.167400 -9.705500 -26.409900
C -17.139500 -10.547800 -23.056500
C -16.950900 -9.926200 -25.071400
O -16.403600 -8.733500 -28.307300
C -16.252500 -8.963900 -27.121900
N -16.012900 -9.836600 -23.099700
C -15.866400 -9.423100 -24.415600
H -15.593900 -9.290600 -21.220700
N -15.146700 -8.471000 -26.427500
C -15.095100 -9.582300 -21.986800
C -14.884900 -8.621700 -25.057500
H -14.622300 -10.389700 -21.771600
H -14.486800 -6.779500 -27.285000
H -14.467900 -8.901100 -22.238300
C -14.178200 -7.686400 -27.211300
H -14.092000 -8.067700 -28.088200
O -13.910800 -8.100200 -24.539700
H -13.325000 -7.699400 -26.772100
H -15.323700 -12.979000 -25.043700
O -14.736100 -12.019200 -27.083000
O -14.426500 -12.556900 -24.959400
C -14.075500 -11.998000 -26.086200
C -12.739200 -11.313600 -26.039000
F -12.731600 -10.996500 -23.702300
H -12.444500 -11.434200 -28.033700
C -12.128000 -10.842700 -24.886700
C -12.067300 -11.136000 -27.236800
C -10.914900 -10.190100 -24.904000
C -10.835800 -10.514300 -27.241900
O -10.625400 -10.818300 -29.510300
H -10.549700 -9.860900 -24.115200
C -10.253900 -10.030400 -26.083200
N -10.109100 -10.391300 -28.516800
H -9.428500 -9.603500 -26.109100
O -9.011200 -9.880500 -28.503800
