16
Fragment
H -8.685800 -53.419000 -12.726800
H -8.000300 -51.323700 -11.938100
C -7.904900 -53.332500 -12.228900
F -7.523100 -55.643000 -12.414300
C -7.505700 -52.089700 -11.762300
C -7.139100 -54.423100 -11.949300
O -6.557300 -49.757000 -10.746600
C -6.339200 -52.043100 -11.023100
C -5.963400 -54.396500 -11.194900
N -5.896300 -50.746700 -10.501200
C -5.568100 -53.148600 -10.732200
H -5.521300 -56.249300 -11.243600
N -5.258400 -55.531500 -10.934400
O -4.876600 -50.693800 -9.838000
H -4.790900 -53.059800 -10.229500
H -4.503500 -55.454400 -10.420500
24
Fragment
H -8.873700 -58.963100 -12.983300
H -8.873200 -64.214500 -11.458600
O -8.739000 -61.621400 -13.116800
H -8.160400 -64.457300 -12.833100
C -8.051900 -64.478300 -11.879700
C -7.963600 -59.013700 -13.285400
H -7.946500 -59.272400 -14.210000
H -7.821000 -65.368600 -11.602400
C -7.723000 -61.325800 -12.498200
H -7.546000 -58.154900 -13.183900
N -7.235700 -60.010400 -12.485500
N -6.990500 -63.558000 -11.492200
C -6.913700 -62.198400 -11.727100
C -6.091900 -59.553400 -11.823000
C -5.909700 -63.848400 -10.742600
C -5.777500 -61.789700 -11.089400
H -5.766200 -64.799900 -10.444500
O -5.749200 -58.378400 -11.882900
N -5.381100 -60.469700 -11.105400
N -5.137200 -62.798400 -10.468500
H -4.558000 -59.505200 -9.561500
C -4.242400 -60.024700 -10.303100
H -3.763500 -60.789000 -9.976200
H -3.659100 -59.488600 -10.845700
40
Fragment
H -8.685800 -53.419000 -12.726800
H -8.000300 -51.323700 -11.938100
C -7.904900 -53.332500 -12.228900
F -7.523100 -55.643000 -12.414300
C -7.505700 -52.089700 -11.762300
C -7.139100 -54.423100 -11.949300
O -6.557300 -49.757000 -10.746600
C -6.339200 -52.043100 -11.023100
C -5.963400 -54.396500 -11.194900
N -5.896300 -50.746700 -10.501200
C -5.568100 -53.148600 -10.732200
H -5.521300 -56.249300 -11.243600
N -5.258400 -55.531500 -10.934400
O -4.876600 -50.693800 -9.838000
H -4.790900 -53.059800 -10.229500
H -4.503500 -55.454400 -10.420500
H -8.873700 -58.963100 -12.983300
H -8.873200 -64.214500 -11.458600
O -8.739000 -61.621400 -13.116800
H -8.160400 -64.457300 -12.833100
C -8.051900 -64.478300 -11.879700
C -7.963600 -59.013700 -13.285400
H -7.946500 -59.272400 -14.210000
H -7.821000 -65.368600 -11.602400
C -7.723000 -61.325800 -12.498200
H -7.546000 -58.154900 -13.183900
N -7.235700 -60.010400 -12.485500
N -6.990500 -63.558000 -11.492200
C -6.913700 -62.198400 -11.727100
C -6.091900 -59.553400 -11.823000
C -5.909700 -63.848400 -10.742600
C -5.777500 -61.789700 -11.089400
H -5.766200 -64.799900 -10.444500
O -5.749200 -58.378400 -11.882900
N -5.381100 -60.469700 -11.105400
N -5.137200 -62.798400 -10.468500
H -4.558000 -59.505200 -9.561500
C -4.242400 -60.024700 -10.303100
H -3.763500 -60.789000 -9.976200
H -3.659100 -59.488600 -10.845700
