19
Fragment
O -28.022900 -15.891600 -29.582400
H -27.202400 -19.314800 -29.303600
O -26.985400 -18.616300 -29.696600
N -26.829300 -16.025200 -29.561000
O -26.153700 -15.964300 -28.561100
C -26.127200 -18.749400 -30.617000
C -26.121500 -16.200100 -30.837800
H -26.043800 -14.205200 -31.168900
C -25.780100 -15.037800 -31.486600
C -25.765000 -17.462000 -31.296000
O -25.604700 -19.776400 -30.867600
C -25.028000 -15.169300 -32.631500
C -25.017600 -17.523900 -32.464000
O -25.004200 -12.881100 -32.909000
H -24.767000 -18.354200 -32.800300
C -24.640100 -16.380000 -33.134100
N -24.583400 -13.932800 -33.309500
H -24.132700 -16.431400 -33.911100
O -23.789800 -14.037300 -34.216500
24
Fragment
H -23.450700 -15.517200 -29.502700
H -22.886500 -16.961600 -29.272500
C -22.657100 -16.057600 -29.497800
H -22.491700 -11.051800 -32.316200
O -22.475200 -13.019200 -30.352100
N -22.040000 -16.026200 -30.818100
H -22.039700 -15.712800 -28.848700
C -21.916600 -13.518600 -31.314100
C -21.713600 -14.905500 -31.554900
H -21.684300 -17.954200 -31.192600
C -21.585200 -17.070700 -31.501000
C -21.565900 -11.278200 -32.203100
N -21.396700 -12.730800 -32.344500
H -21.273400 -11.005600 -31.329600
C -21.076800 -15.373200 -32.659800
H -21.042700 -10.828700 -32.871500
N -20.990300 -16.727400 -32.640400
C -20.773300 -13.182900 -33.507700
N -20.618800 -14.544400 -33.646900
H -20.529100 -15.895500 -35.122300
O -20.394100 -12.414300 -34.362500
H -20.173200 -14.445500 -35.597300
C -20.065200 -15.087800 -34.892300
H -19.131800 -15.277300 -34.771500
43
Fragment
O -28.022900 -15.891600 -29.582400
H -27.202400 -19.314800 -29.303600
O -26.985400 -18.616300 -29.696600
N -26.829300 -16.025200 -29.561000
O -26.153700 -15.964300 -28.561100
C -26.127200 -18.749400 -30.617000
C -26.121500 -16.200100 -30.837800
H -26.043800 -14.205200 -31.168900
C -25.780100 -15.037800 -31.486600
C -25.765000 -17.462000 -31.296000
O -25.604700 -19.776400 -30.867600
C -25.028000 -15.169300 -32.631500
C -25.017600 -17.523900 -32.464000
O -25.004200 -12.881100 -32.909000
H -24.767000 -18.354200 -32.800300
C -24.640100 -16.380000 -33.134100
N -24.583400 -13.932800 -33.309500
H -24.132700 -16.431400 -33.911100
O -23.789800 -14.037300 -34.216500
H -23.450700 -15.517200 -29.502700
H -22.886500 -16.961600 -29.272500
C -22.657100 -16.057600 -29.497800
H -22.491700 -11.051800 -32.316200
O -22.475200 -13.019200 -30.352100
N -22.040000 -16.026200 -30.818100
H -22.039700 -15.712800 -28.848700
C -21.916600 -13.518600 -31.314100
C -21.713600 -14.905500 -31.554900
H -21.684300 -17.954200 -31.192600
C -21.585200 -17.070700 -31.501000
C -21.565900 -11.278200 -32.203100
N -21.396700 -12.730800 -32.344500
H -21.273400 -11.005600 -31.329600
C -21.076800 -15.373200 -32.659800
H -21.042700 -10.828700 -32.871500
N -20.990300 -16.727400 -32.640400
C -20.773300 -13.182900 -33.507700
N -20.618800 -14.544400 -33.646900
H -20.529100 -15.895500 -35.122300
O -20.394100 -12.414300 -34.362500
H -20.173200 -14.445500 -35.597300
C -20.065200 -15.087800 -34.892300
H -19.131800 -15.277300 -34.771500
