19
Fragment
O -28.022900 -15.891600 -29.582400
H -27.202400 -19.314800 -29.303600
O -26.985400 -18.616300 -29.696600
N -26.829300 -16.025200 -29.561000
O -26.153700 -15.964300 -28.561100
C -26.127200 -18.749400 -30.617000
C -26.121500 -16.200100 -30.837800
H -26.043800 -14.205200 -31.168900
C -25.780100 -15.037800 -31.486600
C -25.765000 -17.462000 -31.296000
O -25.604700 -19.776400 -30.867600
C -25.028000 -15.169300 -32.631500
C -25.017600 -17.523900 -32.464000
O -25.004200 -12.881100 -32.909000
H -24.767000 -18.354200 -32.800300
C -24.640100 -16.380000 -33.134100
N -24.583400 -13.932800 -33.309500
H -24.132700 -16.431400 -33.911100
O -23.789800 -14.037300 -34.216500
24
Fragment
H -25.638300 -20.464100 -25.430600
C -25.082700 -20.757800 -26.196600
H -24.975400 -18.182000 -26.245400
N -24.892300 -22.046900 -26.477700
H -24.847700 -24.614000 -27.836600
H -24.792000 -18.128300 -27.801900
N -24.441100 -19.942500 -27.033800
C -24.435700 -18.478100 -26.982300
C -24.082600 -22.023000 -27.569100
C -23.901500 -24.463500 -27.774100
C -23.787300 -20.751000 -27.939100
H -23.620600 -24.564000 -26.861000
N -23.591700 -23.110700 -28.233400
H -23.535800 -18.166700 -26.864700
H -23.438700 -25.101700 -28.322500
C -22.957100 -20.446600 -29.056200
C -22.805000 -22.926900 -29.345400
O -22.610200 -19.342700 -29.431800
N -22.536600 -21.608400 -29.721600
O -22.360600 -23.865600 -29.971000
H -22.275800 -20.973600 -31.611000
C -21.736800 -21.405000 -30.943200
H -21.436500 -22.254600 -31.274800
H -20.976800 -20.852900 -30.739500
43
Fragment
O -28.022900 -15.891600 -29.582400
H -27.202400 -19.314800 -29.303600
O -26.985400 -18.616300 -29.696600
N -26.829300 -16.025200 -29.561000
O -26.153700 -15.964300 -28.561100
C -26.127200 -18.749400 -30.617000
C -26.121500 -16.200100 -30.837800
H -26.043800 -14.205200 -31.168900
C -25.780100 -15.037800 -31.486600
C -25.765000 -17.462000 -31.296000
O -25.604700 -19.776400 -30.867600
C -25.028000 -15.169300 -32.631500
C -25.017600 -17.523900 -32.464000
O -25.004200 -12.881100 -32.909000
H -24.767000 -18.354200 -32.800300
C -24.640100 -16.380000 -33.134100
N -24.583400 -13.932800 -33.309500
H -24.132700 -16.431400 -33.911100
O -23.789800 -14.037300 -34.216500
H -25.638300 -20.464100 -25.430600
C -25.082700 -20.757800 -26.196600
H -24.975400 -18.182000 -26.245400
N -24.892300 -22.046900 -26.477700
H -24.847700 -24.614000 -27.836600
H -24.792000 -18.128300 -27.801900
N -24.441100 -19.942500 -27.033800
C -24.435700 -18.478100 -26.982300
C -24.082600 -22.023000 -27.569100
C -23.901500 -24.463500 -27.774100
C -23.787300 -20.751000 -27.939100
H -23.620600 -24.564000 -26.861000
N -23.591700 -23.110700 -28.233400
H -23.535800 -18.166700 -26.864700
H -23.438700 -25.101700 -28.322500
C -22.957100 -20.446600 -29.056200
C -22.805000 -22.926900 -29.345400
O -22.610200 -19.342700 -29.431800
N -22.536600 -21.608400 -29.721600
O -22.360600 -23.865600 -29.971000
H -22.275800 -20.973600 -31.611000
C -21.736800 -21.405000 -30.943200
H -21.436500 -22.254600 -31.274800
H -20.976800 -20.852900 -30.739500
