16
Fragment
H -8.685800 -53.419000 -12.726800
H -8.000300 -51.323700 -11.938100
C -7.904900 -53.332500 -12.228900
F -7.523100 -55.643000 -12.414300
C -7.505700 -52.089700 -11.762300
C -7.139100 -54.423100 -11.949300
O -6.557300 -49.757000 -10.746600
C -6.339200 -52.043100 -11.023100
C -5.963400 -54.396500 -11.194900
N -5.896300 -50.746700 -10.501200
C -5.568100 -53.148600 -10.732200
H -5.521300 -56.249300 -11.243600
N -5.258400 -55.531500 -10.934400
O -4.876600 -50.693800 -9.838000
H -4.790900 -53.059800 -10.229500
H -4.503500 -55.454400 -10.420500
16
Fragment
H -14.564200 -53.419000 -12.726800
H -13.878700 -51.323700 -11.938100
C -13.783300 -53.332500 -12.228900
F -13.401500 -55.643000 -12.414300
C -13.384100 -52.089700 -11.762300
C -13.017500 -54.423100 -11.949300
O -12.435700 -49.757000 -10.746600
C -12.217600 -52.043100 -11.023100
C -11.841800 -54.396500 -11.194900
N -11.774700 -50.746700 -10.501200
C -11.446500 -53.148600 -10.732200
H -11.399700 -56.249300 -11.243600
N -11.136800 -55.531500 -10.934400
O -10.755000 -50.693800 -9.838000
H -10.669300 -53.059800 -10.229500
H -10.381900 -55.454400 -10.420500
32
Fragment
H -8.685800 -53.419000 -12.726800
H -8.000300 -51.323700 -11.938100
C -7.904900 -53.332500 -12.228900
F -7.523100 -55.643000 -12.414300
C -7.505700 -52.089700 -11.762300
C -7.139100 -54.423100 -11.949300
O -6.557300 -49.757000 -10.746600
C -6.339200 -52.043100 -11.023100
C -5.963400 -54.396500 -11.194900
N -5.896300 -50.746700 -10.501200
C -5.568100 -53.148600 -10.732200
H -5.521300 -56.249300 -11.243600
N -5.258400 -55.531500 -10.934400
O -4.876600 -50.693800 -9.838000
H -4.790900 -53.059800 -10.229500
H -4.503500 -55.454400 -10.420500
H -14.564200 -53.419000 -12.726800
H -13.878700 -51.323700 -11.938100
C -13.783300 -53.332500 -12.228900
F -13.401500 -55.643000 -12.414300
C -13.384100 -52.089700 -11.762300
C -13.017500 -54.423100 -11.949300
O -12.435700 -49.757000 -10.746600
C -12.217600 -52.043100 -11.023100
C -11.841800 -54.396500 -11.194900
N -11.774700 -50.746700 -10.501200
C -11.446500 -53.148600 -10.732200
H -11.399700 -56.249300 -11.243600
N -11.136800 -55.531500 -10.934400
O -10.755000 -50.693800 -9.838000
H -10.669300 -53.059800 -10.229500
H -10.381900 -55.454400 -10.420500
