24
Fragment
H -19.088000 -10.248700 -26.528000
H -18.490200 -9.799800 -27.906700
C -18.317900 -10.290300 -27.099600
H -18.128700 -11.206100 -27.316300
N -17.755000 -10.627700 -24.236500
H -17.505400 -10.925800 -22.230100
N -17.167400 -9.705500 -26.409900
C -17.139500 -10.547800 -23.056500
C -16.950900 -9.926200 -25.071400
O -16.403600 -8.733500 -28.307300
C -16.252500 -8.963900 -27.121900
N -16.012900 -9.836600 -23.099700
C -15.866400 -9.423100 -24.415600
H -15.593900 -9.290600 -21.220700
N -15.146700 -8.471000 -26.427500
C -15.095100 -9.582300 -21.986800
C -14.884900 -8.621700 -25.057500
H -14.622300 -10.389700 -21.771600
H -14.486800 -6.779500 -27.285000
H -14.467900 -8.901100 -22.238300
C -14.178200 -7.686400 -27.211300
H -14.092000 -8.067700 -28.088200
O -13.910800 -8.100200 -24.539700
H -13.325000 -7.699400 -26.772100
17
Fragment
O -25.495300 -14.562000 -20.973400
H -25.078000 -14.839000 -23.368000
N -24.397300 -14.051200 -20.960300
C -24.252500 -14.412100 -23.393900
H -23.956800 -14.581600 -25.362000
O -23.881100 -13.624200 -19.966800
C -23.670700 -13.928200 -22.235200
C -23.591600 -14.252400 -24.573100
C -22.439200 -13.306500 -22.240300
C -22.378400 -13.599800 -24.590500
H -22.062000 -13.008300 -21.443400
F -21.774900 -13.446000 -25.774800
C -21.767300 -13.128900 -23.438100
C -20.431000 -12.444500 -23.391000
O -20.079900 -11.885600 -24.517700
O -19.770400 -12.423300 -22.394200
H -19.182800 -11.463500 -24.433500
41
Fragment
H -19.088000 -10.248700 -26.528000
H -18.490200 -9.799800 -27.906700
C -18.317900 -10.290300 -27.099600
H -18.128700 -11.206100 -27.316300
N -17.755000 -10.627700 -24.236500
H -17.505400 -10.925800 -22.230100
N -17.167400 -9.705500 -26.409900
C -17.139500 -10.547800 -23.056500
C -16.950900 -9.926200 -25.071400
O -16.403600 -8.733500 -28.307300
C -16.252500 -8.963900 -27.121900
N -16.012900 -9.836600 -23.099700
C -15.866400 -9.423100 -24.415600
H -15.593900 -9.290600 -21.220700
N -15.146700 -8.471000 -26.427500
C -15.095100 -9.582300 -21.986800
C -14.884900 -8.621700 -25.057500
H -14.622300 -10.389700 -21.771600
H -14.486800 -6.779500 -27.285000
H -14.467900 -8.901100 -22.238300
C -14.178200 -7.686400 -27.211300
H -14.092000 -8.067700 -28.088200
O -13.910800 -8.100200 -24.539700
H -13.325000 -7.699400 -26.772100
O -25.495300 -14.562000 -20.973400
H -25.078000 -14.839000 -23.368000
N -24.397300 -14.051200 -20.960300
C -24.252500 -14.412100 -23.393900
H -23.956800 -14.581600 -25.362000
O -23.881100 -13.624200 -19.966800
C -23.670700 -13.928200 -22.235200
C -23.591600 -14.252400 -24.573100
C -22.439200 -13.306500 -22.240300
C -22.378400 -13.599800 -24.590500
H -22.062000 -13.008300 -21.443400
F -21.774900 -13.446000 -25.774800
C -21.767300 -13.128900 -23.438100
C -20.431000 -12.444500 -23.391000
O -20.079900 -11.885600 -24.517700
O -19.770400 -12.423300 -22.394200
H -19.182800 -11.463500 -24.433500
