24
Fragment
H -19.088000 -10.248700 -26.528000
H -18.490200 -9.799800 -27.906700
C -18.317900 -10.290300 -27.099600
H -18.128700 -11.206100 -27.316300
N -17.755000 -10.627700 -24.236500
H -17.505400 -10.925800 -22.230100
N -17.167400 -9.705500 -26.409900
C -17.139500 -10.547800 -23.056500
C -16.950900 -9.926200 -25.071400
O -16.403600 -8.733500 -28.307300
C -16.252500 -8.963900 -27.121900
N -16.012900 -9.836600 -23.099700
C -15.866400 -9.423100 -24.415600
H -15.593900 -9.290600 -21.220700
N -15.146700 -8.471000 -26.427500
C -15.095100 -9.582300 -21.986800
C -14.884900 -8.621700 -25.057500
H -14.622300 -10.389700 -21.771600
H -14.486800 -6.779500 -27.285000
H -14.467900 -8.901100 -22.238300
C -14.178200 -7.686400 -27.211300
H -14.092000 -8.067700 -28.088200
O -13.910800 -8.100200 -24.539700
H -13.325000 -7.699400 -26.772100
17
Fragment
H -15.855200 -7.389800 -16.797500
O -15.267600 -8.349600 -18.836800
O -14.958100 -7.811800 -16.713200
C -14.607000 -8.370700 -17.840000
C -13.270700 -9.055100 -17.792800
F -13.263100 -9.372200 -15.456200
H -12.976000 -8.934500 -19.787600
C -12.659500 -9.526100 -16.640500
C -12.598800 -9.232700 -18.990600
C -11.446400 -10.178700 -16.657800
C -11.367300 -9.854400 -18.995800
O -11.156900 -9.550500 -21.264100
H -11.081200 -10.507800 -15.869000
C -10.785500 -10.338400 -17.837000
N -10.640700 -9.977400 -20.270600
H -9.960000 -10.765300 -17.862900
O -9.542700 -10.488300 -20.257600
41
Fragment
H -19.088000 -10.248700 -26.528000
H -18.490200 -9.799800 -27.906700
C -18.317900 -10.290300 -27.099600
H -18.128700 -11.206100 -27.316300
N -17.755000 -10.627700 -24.236500
H -17.505400 -10.925800 -22.230100
N -17.167400 -9.705500 -26.409900
C -17.139500 -10.547800 -23.056500
C -16.950900 -9.926200 -25.071400
O -16.403600 -8.733500 -28.307300
C -16.252500 -8.963900 -27.121900
N -16.012900 -9.836600 -23.099700
C -15.866400 -9.423100 -24.415600
H -15.593900 -9.290600 -21.220700
N -15.146700 -8.471000 -26.427500
C -15.095100 -9.582300 -21.986800
C -14.884900 -8.621700 -25.057500
H -14.622300 -10.389700 -21.771600
H -14.486800 -6.779500 -27.285000
H -14.467900 -8.901100 -22.238300
C -14.178200 -7.686400 -27.211300
H -14.092000 -8.067700 -28.088200
O -13.910800 -8.100200 -24.539700
H -13.325000 -7.699400 -26.772100
H -15.855200 -7.389800 -16.797500
O -15.267600 -8.349600 -18.836800
O -14.958100 -7.811800 -16.713200
C -14.607000 -8.370700 -17.840000
C -13.270700 -9.055100 -17.792800
F -13.263100 -9.372200 -15.456200
H -12.976000 -8.934500 -19.787600
C -12.659500 -9.526100 -16.640500
C -12.598800 -9.232700 -18.990600
C -11.446400 -10.178700 -16.657800
C -11.367300 -9.854400 -18.995800
O -11.156900 -9.550500 -21.264100
H -11.081200 -10.507800 -15.869000
C -10.785500 -10.338400 -17.837000
N -10.640700 -9.977400 -20.270600
H -9.960000 -10.765300 -17.862900
O -9.542700 -10.488300 -20.257600
