19
Fragment
O -28.022900 -15.891600 -29.582400
H -27.202400 -19.314800 -29.303600
O -26.985400 -18.616300 -29.696600
N -26.829300 -16.025200 -29.561000
O -26.153700 -15.964300 -28.561100
C -26.127200 -18.749400 -30.617000
C -26.121500 -16.200100 -30.837800
H -26.043800 -14.205200 -31.168900
C -25.780100 -15.037800 -31.486600
C -25.765000 -17.462000 -31.296000
O -25.604700 -19.776400 -30.867600
C -25.028000 -15.169300 -32.631500
C -25.017600 -17.523900 -32.464000
O -25.004200 -12.881100 -32.909000
H -24.767000 -18.354200 -32.800300
C -24.640100 -16.380000 -33.134100
N -24.583400 -13.932800 -33.309500
H -24.132700 -16.431400 -33.911100
O -23.789800 -14.037300 -34.216500
19
Fragment
O -28.552500 -8.660200 -34.291100
N -27.894200 -8.091800 -35.142400
O -27.765900 -6.891300 -35.216400
H -27.739600 -10.681300 -35.312300
O -27.501900 -13.100700 -37.418900
C -27.278600 -10.284400 -36.016000
C -27.222700 -8.920200 -36.156500
N -26.694700 -12.497900 -36.777100
C -26.626000 -11.036400 -36.958200
C -26.553600 -8.304100 -37.181800
H -26.536400 -7.376100 -37.250600
O -25.991600 -12.985400 -35.941300
C -25.931300 -10.475000 -38.024500
C -25.909800 -9.091100 -38.106900
H -25.448100 -8.685400 -38.805300
C -25.171600 -11.259400 -39.050700
O -25.025300 -12.451800 -38.790900
O -24.702800 -10.782600 -39.972700
H -24.580300 -12.924000 -39.406400
38
Fragment
O -28.022900 -15.891600 -29.582400
H -27.202400 -19.314800 -29.303600
O -26.985400 -18.616300 -29.696600
N -26.829300 -16.025200 -29.561000
O -26.153700 -15.964300 -28.561100
C -26.127200 -18.749400 -30.617000
C -26.121500 -16.200100 -30.837800
H -26.043800 -14.205200 -31.168900
C -25.780100 -15.037800 -31.486600
C -25.765000 -17.462000 -31.296000
O -25.604700 -19.776400 -30.867600
C -25.028000 -15.169300 -32.631500
C -25.017600 -17.523900 -32.464000
O -25.004200 -12.881100 -32.909000
H -24.767000 -18.354200 -32.800300
C -24.640100 -16.380000 -33.134100
N -24.583400 -13.932800 -33.309500
H -24.132700 -16.431400 -33.911100
O -23.789800 -14.037300 -34.216500
O -28.552500 -8.660200 -34.291100
N -27.894200 -8.091800 -35.142400
O -27.765900 -6.891300 -35.216400
H -27.739600 -10.681300 -35.312300
O -27.501900 -13.100700 -37.418900
C -27.278600 -10.284400 -36.016000
C -27.222700 -8.920200 -36.156500
N -26.694700 -12.497900 -36.777100
C -26.626000 -11.036400 -36.958200
C -26.553600 -8.304100 -37.181800
H -26.536400 -7.376100 -37.250600
O -25.991600 -12.985400 -35.941300
C -25.931300 -10.475000 -38.024500
C -25.909800 -9.091100 -38.106900
H -25.448100 -8.685400 -38.805300
C -25.171600 -11.259400 -39.050700
O -25.025300 -12.451800 -38.790900
O -24.702800 -10.782600 -39.972700
H -24.580300 -12.924000 -39.406400
