19
Fragment
O -28.022900 -15.891600 -29.582400
H -27.202400 -19.314800 -29.303600
O -26.985400 -18.616300 -29.696600
N -26.829300 -16.025200 -29.561000
O -26.153700 -15.964300 -28.561100
C -26.127200 -18.749400 -30.617000
C -26.121500 -16.200100 -30.837800
H -26.043800 -14.205200 -31.168900
C -25.780100 -15.037800 -31.486600
C -25.765000 -17.462000 -31.296000
O -25.604700 -19.776400 -30.867600
C -25.028000 -15.169300 -32.631500
C -25.017600 -17.523900 -32.464000
O -25.004200 -12.881100 -32.909000
H -24.767000 -18.354200 -32.800300
C -24.640100 -16.380000 -33.134100
N -24.583400 -13.932800 -33.309500
H -24.132700 -16.431400 -33.911100
O -23.789800 -14.037300 -34.216500
19
Fragment
H -25.094200 -6.586700 -33.669900
O -24.971700 -8.728000 -33.103600
O -24.649200 -7.058900 -34.285400
C -24.503000 -8.251300 -34.025600
H -24.226400 -10.825300 -34.271000
C -23.764800 -10.419600 -34.969400
C -23.743200 -9.035700 -35.051800
O -23.682900 -6.525300 -37.135000
H -23.138200 -12.134600 -35.825700
C -23.120900 -11.206600 -35.894500
C -23.048500 -8.474200 -36.118100
N -22.979800 -7.012800 -36.299200
C -22.451800 -10.590500 -36.919800
C -22.395900 -9.226300 -37.060300
O -22.172600 -6.410000 -35.657400
H -21.934900 -8.829400 -37.764000
O -21.908600 -12.619400 -37.859900
N -21.780300 -11.418900 -37.933900
O -21.122000 -10.850500 -38.785200
38
Fragment
O -28.022900 -15.891600 -29.582400
H -27.202400 -19.314800 -29.303600
O -26.985400 -18.616300 -29.696600
N -26.829300 -16.025200 -29.561000
O -26.153700 -15.964300 -28.561100
C -26.127200 -18.749400 -30.617000
C -26.121500 -16.200100 -30.837800
H -26.043800 -14.205200 -31.168900
C -25.780100 -15.037800 -31.486600
C -25.765000 -17.462000 -31.296000
O -25.604700 -19.776400 -30.867600
C -25.028000 -15.169300 -32.631500
C -25.017600 -17.523900 -32.464000
O -25.004200 -12.881100 -32.909000
H -24.767000 -18.354200 -32.800300
C -24.640100 -16.380000 -33.134100
N -24.583400 -13.932800 -33.309500
H -24.132700 -16.431400 -33.911100
O -23.789800 -14.037300 -34.216500
H -25.094200 -6.586700 -33.669900
O -24.971700 -8.728000 -33.103600
O -24.649200 -7.058900 -34.285400
C -24.503000 -8.251300 -34.025600
H -24.226400 -10.825300 -34.271000
C -23.764800 -10.419600 -34.969400
C -23.743200 -9.035700 -35.051800
O -23.682900 -6.525300 -37.135000
H -23.138200 -12.134600 -35.825700
C -23.120900 -11.206600 -35.894500
C -23.048500 -8.474200 -36.118100
N -22.979800 -7.012800 -36.299200
C -22.451800 -10.590500 -36.919800
C -22.395900 -9.226300 -37.060300
O -22.172600 -6.410000 -35.657400
H -21.934900 -8.829400 -37.764000
O -21.908600 -12.619400 -37.859900
N -21.780300 -11.418900 -37.933900
O -21.122000 -10.850500 -38.785200
