24
Fragment
H -19.088000 -10.248700 -26.528000
H -18.490200 -9.799800 -27.906700
C -18.317900 -10.290300 -27.099600
H -18.128700 -11.206100 -27.316300
N -17.755000 -10.627700 -24.236500
H -17.505400 -10.925800 -22.230100
N -17.167400 -9.705500 -26.409900
C -17.139500 -10.547800 -23.056500
C -16.950900 -9.926200 -25.071400
O -16.403600 -8.733500 -28.307300
C -16.252500 -8.963900 -27.121900
N -16.012900 -9.836600 -23.099700
C -15.866400 -9.423100 -24.415600
H -15.593900 -9.290600 -21.220700
N -15.146700 -8.471000 -26.427500
C -15.095100 -9.582300 -21.986800
C -14.884900 -8.621700 -25.057500
H -14.622300 -10.389700 -21.771600
H -14.486800 -6.779500 -27.285000
H -14.467900 -8.901100 -22.238300
C -14.178200 -7.686400 -27.211300
H -14.092000 -8.067700 -28.088200
O -13.910800 -8.100200 -24.539700
H -13.325000 -7.699400 -26.772100
24
Fragment
H -21.181500 -8.595600 -22.705100
O -20.595700 -8.194800 -24.937500
H -20.414400 -8.227300 -21.389000
C -20.328200 -8.608600 -22.265900
H -20.038600 -7.393900 -27.238800
H -20.019600 -9.515500 -22.192100
H -19.884100 -5.905300 -27.705500
C -19.621600 -7.673300 -24.419600
C -19.411400 -6.712700 -27.490300
N -19.359700 -7.824000 -23.049600
H -18.912500 -7.004400 -28.256400
C -18.640100 -6.871900 -25.061500
N -18.493600 -6.458400 -26.377400
C -18.254000 -7.331100 -22.355200
O -18.102900 -7.561500 -21.169800
C -17.555500 -6.368800 -24.405700
C -17.367000 -5.747200 -26.420600
N -17.339100 -6.589500 -23.067200
H -17.001100 -5.369200 -27.247100
N -16.751400 -5.667300 -25.240600
H -16.377700 -5.088900 -22.160800
C -16.188600 -6.004700 -22.377500
H -16.016200 -6.495200 -21.570400
H -15.418500 -6.046300 -22.949100
48
Fragment
H -19.088000 -10.248700 -26.528000
H -18.490200 -9.799800 -27.906700
C -18.317900 -10.290300 -27.099600
H -18.128700 -11.206100 -27.316300
N -17.755000 -10.627700 -24.236500
H -17.505400 -10.925800 -22.230100
N -17.167400 -9.705500 -26.409900
C -17.139500 -10.547800 -23.056500
C -16.950900 -9.926200 -25.071400
O -16.403600 -8.733500 -28.307300
C -16.252500 -8.963900 -27.121900
N -16.012900 -9.836600 -23.099700
C -15.866400 -9.423100 -24.415600
H -15.593900 -9.290600 -21.220700
N -15.146700 -8.471000 -26.427500
C -15.095100 -9.582300 -21.986800
C -14.884900 -8.621700 -25.057500
H -14.622300 -10.389700 -21.771600
H -14.486800 -6.779500 -27.285000
H -14.467900 -8.901100 -22.238300
C -14.178200 -7.686400 -27.211300
H -14.092000 -8.067700 -28.088200
O -13.910800 -8.100200 -24.539700
H -13.325000 -7.699400 -26.772100
H -21.181500 -8.595600 -22.705100
O -20.595700 -8.194800 -24.937500
H -20.414400 -8.227300 -21.389000
C -20.328200 -8.608600 -22.265900
H -20.038600 -7.393900 -27.238800
H -20.019600 -9.515500 -22.192100
H -19.884100 -5.905300 -27.705500
C -19.621600 -7.673300 -24.419600
C -19.411400 -6.712700 -27.490300
N -19.359700 -7.824000 -23.049600
H -18.912500 -7.004400 -28.256400
C -18.640100 -6.871900 -25.061500
N -18.493600 -6.458400 -26.377400
C -18.254000 -7.331100 -22.355200
O -18.102900 -7.561500 -21.169800
C -17.555500 -6.368800 -24.405700
C -17.367000 -5.747200 -26.420600
N -17.339100 -6.589500 -23.067200
H -17.001100 -5.369200 -27.247100
N -16.751400 -5.667300 -25.240600
H -16.377700 -5.088900 -22.160800
C -16.188600 -6.004700 -22.377500
H -16.016200 -6.495200 -21.570400
H -15.418500 -6.046300 -22.949100
