24
Fragment
H -19.088000 -10.248700 -26.528000
H -18.490200 -9.799800 -27.906700
C -18.317900 -10.290300 -27.099600
H -18.128700 -11.206100 -27.316300
N -17.755000 -10.627700 -24.236500
H -17.505400 -10.925800 -22.230100
N -17.167400 -9.705500 -26.409900
C -17.139500 -10.547800 -23.056500
C -16.950900 -9.926200 -25.071400
O -16.403600 -8.733500 -28.307300
C -16.252500 -8.963900 -27.121900
N -16.012900 -9.836600 -23.099700
C -15.866400 -9.423100 -24.415600
H -15.593900 -9.290600 -21.220700
N -15.146700 -8.471000 -26.427500
C -15.095100 -9.582300 -21.986800
C -14.884900 -8.621700 -25.057500
H -14.622300 -10.389700 -21.771600
H -14.486800 -6.779500 -27.285000
H -14.467900 -8.901100 -22.238300
C -14.178200 -7.686400 -27.211300
H -14.092000 -8.067700 -28.088200
O -13.910800 -8.100200 -24.539700
H -13.325000 -7.699400 -26.772100
17
Fragment
O -12.930100 -6.414500 -20.973400
H -12.512800 -6.691500 -23.368000
N -11.832100 -5.903700 -20.960300
C -11.687300 -6.264600 -23.393900
H -11.391600 -6.434100 -25.362000
O -11.315900 -5.476700 -19.966800
C -11.105500 -5.780700 -22.235200
C -11.026400 -6.104900 -24.573100
C -9.874000 -5.159000 -22.240300
C -9.813200 -5.452300 -24.590500
H -9.496800 -4.860800 -21.443400
F -9.209700 -5.298500 -25.774800
C -9.202100 -4.981400 -23.438100
C -7.865800 -4.297000 -23.391000
O -7.514700 -3.738100 -24.517700
O -7.205200 -4.275800 -22.394200
H -6.617600 -3.316000 -24.433500
41
Fragment
H -19.088000 -10.248700 -26.528000
H -18.490200 -9.799800 -27.906700
C -18.317900 -10.290300 -27.099600
H -18.128700 -11.206100 -27.316300
N -17.755000 -10.627700 -24.236500
H -17.505400 -10.925800 -22.230100
N -17.167400 -9.705500 -26.409900
C -17.139500 -10.547800 -23.056500
C -16.950900 -9.926200 -25.071400
O -16.403600 -8.733500 -28.307300
C -16.252500 -8.963900 -27.121900
N -16.012900 -9.836600 -23.099700
C -15.866400 -9.423100 -24.415600
H -15.593900 -9.290600 -21.220700
N -15.146700 -8.471000 -26.427500
C -15.095100 -9.582300 -21.986800
C -14.884900 -8.621700 -25.057500
H -14.622300 -10.389700 -21.771600
H -14.486800 -6.779500 -27.285000
H -14.467900 -8.901100 -22.238300
C -14.178200 -7.686400 -27.211300
H -14.092000 -8.067700 -28.088200
O -13.910800 -8.100200 -24.539700
H -13.325000 -7.699400 -26.772100
O -12.930100 -6.414500 -20.973400
H -12.512800 -6.691500 -23.368000
N -11.832100 -5.903700 -20.960300
C -11.687300 -6.264600 -23.393900
H -11.391600 -6.434100 -25.362000
O -11.315900 -5.476700 -19.966800
C -11.105500 -5.780700 -22.235200
C -11.026400 -6.104900 -24.573100
C -9.874000 -5.159000 -22.240300
C -9.813200 -5.452300 -24.590500
H -9.496800 -4.860800 -21.443400
F -9.209700 -5.298500 -25.774800
C -9.202100 -4.981400 -23.438100
C -7.865800 -4.297000 -23.391000
O -7.514700 -3.738100 -24.517700
O -7.205200 -4.275800 -22.394200
H -6.617600 -3.316000 -24.433500
