16
Fragment
H -8.685800 -53.419000 -12.726800
H -8.000300 -51.323700 -11.938100
C -7.904900 -53.332500 -12.228900
F -7.523100 -55.643000 -12.414300
C -7.505700 -52.089700 -11.762300
C -7.139100 -54.423100 -11.949300
O -6.557300 -49.757000 -10.746600
C -6.339200 -52.043100 -11.023100
C -5.963400 -54.396500 -11.194900
N -5.896300 -50.746700 -10.501200
C -5.568100 -53.148600 -10.732200
H -5.521300 -56.249300 -11.243600
N -5.258400 -55.531500 -10.934400
O -4.876600 -50.693800 -9.838000
H -4.790900 -53.059800 -10.229500
H -4.503500 -55.454400 -10.420500
24
Fragment
H -3.191200 -57.439900 -8.987700
H -3.190600 -52.188500 -7.463000
O -3.056500 -54.781600 -9.121200
H -2.477800 -51.945700 -8.837500
C -2.369400 -51.924700 -7.884100
C -2.281100 -57.389300 -9.289800
H -2.264000 -57.130600 -10.214400
H -2.138400 -51.034400 -7.606800
C -2.040400 -55.077200 -8.502600
H -1.863400 -58.248100 -9.188300
N -1.553100 -56.392600 -8.489900
N -1.307900 -52.845000 -7.496600
C -1.231100 -54.204600 -7.731500
C -0.409400 -56.849600 -7.827400
C -0.227200 -52.554600 -6.747000
C -0.095000 -54.613300 -7.093800
H -0.083700 -51.603100 -6.448900
O -0.066600 -58.024600 -7.887300
N 0.301400 -55.933300 -7.109800
N 0.545300 -53.604600 -6.472900
H 1.124600 -56.897800 -5.565900
C 1.440200 -56.378300 -6.307500
H 1.919100 -55.614000 -5.980600
H 2.023400 -56.914400 -6.850100
40
Fragment
H -8.685800 -53.419000 -12.726800
H -8.000300 -51.323700 -11.938100
C -7.904900 -53.332500 -12.228900
F -7.523100 -55.643000 -12.414300
C -7.505700 -52.089700 -11.762300
C -7.139100 -54.423100 -11.949300
O -6.557300 -49.757000 -10.746600
C -6.339200 -52.043100 -11.023100
C -5.963400 -54.396500 -11.194900
N -5.896300 -50.746700 -10.501200
C -5.568100 -53.148600 -10.732200
H -5.521300 -56.249300 -11.243600
N -5.258400 -55.531500 -10.934400
O -4.876600 -50.693800 -9.838000
H -4.790900 -53.059800 -10.229500
H -4.503500 -55.454400 -10.420500
H -3.191200 -57.439900 -8.987700
H -3.190600 -52.188500 -7.463000
O -3.056500 -54.781600 -9.121200
H -2.477800 -51.945700 -8.837500
C -2.369400 -51.924700 -7.884100
C -2.281100 -57.389300 -9.289800
H -2.264000 -57.130600 -10.214400
H -2.138400 -51.034400 -7.606800
C -2.040400 -55.077200 -8.502600
H -1.863400 -58.248100 -9.188300
N -1.553100 -56.392600 -8.489900
N -1.307900 -52.845000 -7.496600
C -1.231100 -54.204600 -7.731500
C -0.409400 -56.849600 -7.827400
C -0.227200 -52.554600 -6.747000
C -0.095000 -54.613300 -7.093800
H -0.083700 -51.603100 -6.448900
O -0.066600 -58.024600 -7.887300
N 0.301400 -55.933300 -7.109800
N 0.545300 -53.604600 -6.472900
H 1.124600 -56.897800 -5.565900
C 1.440200 -56.378300 -6.307500
H 1.919100 -55.614000 -5.980600
H 2.023400 -56.914400 -6.850100
