16
Fragment
H -8.685800 -53.419000 -12.726800
H -8.000300 -51.323700 -11.938100
C -7.904900 -53.332500 -12.228900
F -7.523100 -55.643000 -12.414300
C -7.505700 -52.089700 -11.762300
C -7.139100 -54.423100 -11.949300
O -6.557300 -49.757000 -10.746600
C -6.339200 -52.043100 -11.023100
C -5.963400 -54.396500 -11.194900
N -5.896300 -50.746700 -10.501200
C -5.568100 -53.148600 -10.732200
H -5.521300 -56.249300 -11.243600
N -5.258400 -55.531500 -10.934400
O -4.876600 -50.693800 -9.838000
H -4.790900 -53.059800 -10.229500
H -4.503500 -55.454400 -10.420500
16
Fragment
H -11.956600 -44.319600 -13.553100
H -11.669200 -46.714200 -13.744100
O -11.583600 -49.080200 -14.135600
N -11.201800 -44.242500 -13.039300
H -10.938900 -43.524700 -12.730000
C -10.892100 -46.625400 -13.241400
N -10.563900 -49.027300 -13.472400
C -10.496800 -45.377500 -12.778700
C -10.121000 -47.730900 -12.950600
O -9.902800 -50.017000 -13.227000
C -9.321000 -45.350900 -12.024400
C -8.954500 -47.684300 -12.211400
F -8.937100 -44.131000 -11.559300
C -8.555300 -46.441500 -11.744700
H -8.459900 -48.450300 -12.035600
H -7.774300 -46.355000 -11.246800
32
Fragment
H -8.685800 -53.419000 -12.726800
H -8.000300 -51.323700 -11.938100
C -7.904900 -53.332500 -12.228900
F -7.523100 -55.643000 -12.414300
C -7.505700 -52.089700 -11.762300
C -7.139100 -54.423100 -11.949300
O -6.557300 -49.757000 -10.746600
C -6.339200 -52.043100 -11.023100
C -5.963400 -54.396500 -11.194900
N -5.896300 -50.746700 -10.501200
C -5.568100 -53.148600 -10.732200
H -5.521300 -56.249300 -11.243600
N -5.258400 -55.531500 -10.934400
O -4.876600 -50.693800 -9.838000
H -4.790900 -53.059800 -10.229500
H -4.503500 -55.454400 -10.420500
H -11.956600 -44.319600 -13.553100
H -11.669200 -46.714200 -13.744100
O -11.583600 -49.080200 -14.135600
N -11.201800 -44.242500 -13.039300
H -10.938900 -43.524700 -12.730000
C -10.892100 -46.625400 -13.241400
N -10.563900 -49.027300 -13.472400
C -10.496800 -45.377500 -12.778700
C -10.121000 -47.730900 -12.950600
O -9.902800 -50.017000 -13.227000
C -9.321000 -45.350900 -12.024400
C -8.954500 -47.684300 -12.211400
F -8.937100 -44.131000 -11.559300
C -8.555300 -46.441500 -11.744700
H -8.459900 -48.450300 -12.035600
H -7.774300 -46.355000 -11.246800
