17
Fragment
H -19.000300 -4.753000 -46.552000
H -18.459700 -5.275500 -48.746100
C -18.141600 -5.110700 -46.743100
C -17.827000 -5.419700 -48.051800
N -17.281200 -5.297200 -45.734500
O -17.157200 -6.717400 -50.511500
C -16.577500 -5.941800 -48.339400
C -16.272200 -6.315200 -49.766900
C -16.077600 -5.803900 -46.009300
C -15.681700 -6.138000 -47.293900
H -15.466900 -5.941000 -45.295700
H -15.163000 -6.067200 -52.035700
N -15.003000 -6.157900 -50.141100
H -14.815600 -6.494200 -47.457000
H -14.619100 -7.314400 -51.604000
N -14.546000 -6.430900 -51.452200
H -14.403600 -5.786300 -49.561800
16
Fragment
H -13.264700 -5.500600 -53.970800
H -12.728700 -4.936500 -56.164900
C -12.402700 -5.697600 -54.315800
C -12.083000 -5.368000 -55.618300
H -11.675900 -6.554100 -52.625200
C -11.454000 -6.317800 -53.518900
O -11.410200 -4.726100 -58.215200
H -11.079000 -4.498000 -59.070500
C -10.820600 -5.661600 -56.141000
C -10.466600 -5.304700 -57.531600
C -10.191900 -6.597200 -54.000900
C -9.877600 -6.280000 -55.318200
H -9.543100 -7.003100 -53.437900
O -9.344100 -5.544800 -57.999600
H -8.714000 -6.314400 -56.659100
O -8.634000 -6.600500 -55.782300
33
Fragment
H -19.000300 -4.753000 -46.552000
H -18.459700 -5.275500 -48.746100
C -18.141600 -5.110700 -46.743100
C -17.827000 -5.419700 -48.051800
N -17.281200 -5.297200 -45.734500
O -17.157200 -6.717400 -50.511500
C -16.577500 -5.941800 -48.339400
C -16.272200 -6.315200 -49.766900
C -16.077600 -5.803900 -46.009300
C -15.681700 -6.138000 -47.293900
H -15.466900 -5.941000 -45.295700
H -15.163000 -6.067200 -52.035700
N -15.003000 -6.157900 -50.141100
H -14.815600 -6.494200 -47.457000
H -14.619100 -7.314400 -51.604000
N -14.546000 -6.430900 -51.452200
H -14.403600 -5.786300 -49.561800
H -13.264700 -5.500600 -53.970800
H -12.728700 -4.936500 -56.164900
C -12.402700 -5.697600 -54.315800
C -12.083000 -5.368000 -55.618300
H -11.675900 -6.554100 -52.625200
C -11.454000 -6.317800 -53.518900
O -11.410200 -4.726100 -58.215200
H -11.079000 -4.498000 -59.070500
C -10.820600 -5.661600 -56.141000
C -10.466600 -5.304700 -57.531600
C -10.191900 -6.597200 -54.000900
C -9.877600 -6.280000 -55.318200
H -9.543100 -7.003100 -53.437900
O -9.344100 -5.544800 -57.999600
H -8.714000 -6.314400 -56.659100
O -8.634000 -6.600500 -55.782300
