17
Fragment
H -19.000300 -4.753000 -46.552000
H -18.459700 -5.275500 -48.746100
C -18.141600 -5.110700 -46.743100
C -17.827000 -5.419700 -48.051800
N -17.281200 -5.297200 -45.734500
O -17.157200 -6.717400 -50.511500
C -16.577500 -5.941800 -48.339400
C -16.272200 -6.315200 -49.766900
C -16.077600 -5.803900 -46.009300
C -15.681700 -6.138000 -47.293900
H -15.466900 -5.941000 -45.295700
H -15.163000 -6.067200 -52.035700
N -15.003000 -6.157900 -50.141100
H -14.815600 -6.494200 -47.457000
H -14.619100 -7.314400 -51.604000
N -14.546000 -6.430900 -51.452200
H -14.403600 -5.786300 -49.561800
16
Fragment
H -19.832300 -7.607600 -39.085600
H -19.296200 -8.171700 -41.279700
C -18.970200 -7.410600 -39.430600
C -18.650600 -7.740200 -40.733100
H -18.243400 -6.554100 -37.740000
C -18.021600 -6.790400 -38.633700
O -17.977800 -8.382100 -43.329900
H -17.646500 -8.610200 -44.185200
C -17.388100 -7.446600 -41.255800
C -17.034100 -7.803500 -42.646400
C -16.759500 -6.511000 -39.115600
C -16.445100 -6.828200 -40.433000
H -16.110600 -6.105100 -38.552700
O -15.911600 -7.563400 -43.114400
H -15.281600 -6.793800 -41.773800
O -15.201500 -6.507700 -40.897100
33
Fragment
H -19.000300 -4.753000 -46.552000
H -18.459700 -5.275500 -48.746100
C -18.141600 -5.110700 -46.743100
C -17.827000 -5.419700 -48.051800
N -17.281200 -5.297200 -45.734500
O -17.157200 -6.717400 -50.511500
C -16.577500 -5.941800 -48.339400
C -16.272200 -6.315200 -49.766900
C -16.077600 -5.803900 -46.009300
C -15.681700 -6.138000 -47.293900
H -15.466900 -5.941000 -45.295700
H -15.163000 -6.067200 -52.035700
N -15.003000 -6.157900 -50.141100
H -14.815600 -6.494200 -47.457000
H -14.619100 -7.314400 -51.604000
N -14.546000 -6.430900 -51.452200
H -14.403600 -5.786300 -49.561800
H -19.832300 -7.607600 -39.085600
H -19.296200 -8.171700 -41.279700
C -18.970200 -7.410600 -39.430600
C -18.650600 -7.740200 -40.733100
H -18.243400 -6.554100 -37.740000
C -18.021600 -6.790400 -38.633700
O -17.977800 -8.382100 -43.329900
H -17.646500 -8.610200 -44.185200
C -17.388100 -7.446600 -41.255800
C -17.034100 -7.803500 -42.646400
C -16.759500 -6.511000 -39.115600
C -16.445100 -6.828200 -40.433000
H -16.110600 -6.105100 -38.552700
O -15.911600 -7.563400 -43.114400
H -15.281600 -6.793800 -41.773800
O -15.201500 -6.507700 -40.897100
