18
Fragment
H -11.480800 -12.915300 -25.493800
O -10.651300 -12.626000 -24.955800
O -10.370900 -14.817200 -24.712900
C -10.045100 -13.683700 -24.459700
H -9.285900 -12.772300 -22.794600
C -8.924400 -13.321500 -23.520800
H -8.763000 -15.143000 -22.505400
H -8.268700 -12.778100 -24.006500
C -8.232900 -14.496300 -22.934300
C -6.932400 -14.699700 -22.970100
H -6.896600 -16.417900 -21.897900
H -6.402300 -14.053000 -23.399000
C -6.240900 -15.874500 -22.383600
H -5.879400 -16.423700 -23.109800
C -5.120200 -15.512300 -21.444700
O -4.794400 -14.378800 -21.191500
O -4.514000 -16.570000 -20.948600
H -3.684500 -16.280700 -20.410600
32
Fragment
N -8.799500 -15.919400 -19.478300
H -8.768400 -13.882700 -19.786300
C -8.358400 -14.625400 -19.381300
H -7.971000 -17.612000 -18.621900
C -7.948300 -16.635200 -18.775800
C -7.242700 -14.578200 -18.615000
H -7.053700 -15.773600 -15.200500
N -6.990200 -15.866000 -18.232900
H -6.743500 -13.814600 -18.390800
H -6.425800 -14.389700 -13.450000
C -6.242600 -15.300300 -15.247600
H -6.006300 -17.240200 -17.131500
C -5.866400 -14.470900 -14.200700
C -5.814800 -16.348200 -17.489900
C -5.433100 -15.434600 -16.357400
H -5.057000 -16.428600 -18.106200
H -5.053200 -12.767400 -12.496700
C -4.677100 -13.761400 -14.245500
C -4.295400 -12.847800 -13.113100
C -4.243800 -14.725100 -16.402300
H -4.103900 -11.955800 -13.471400
C -3.867600 -13.895700 -15.355300
H -3.684400 -14.806300 -17.152900
H -3.366700 -15.381400 -12.212100
N -3.120000 -13.330000 -12.370000
H -3.056500 -13.422400 -15.402500
C -2.867500 -14.617800 -11.987900
C -2.161900 -12.560800 -11.827100
H -2.139200 -11.584000 -11.981000
C -1.751800 -14.570600 -11.221600
H -1.341800 -15.313300 -10.816600
N -1.310700 -13.276600 -11.124600
50
Fragment
H -11.480800 -12.915300 -25.493800
O -10.651300 -12.626000 -24.955800
O -10.370900 -14.817200 -24.712900
C -10.045100 -13.683700 -24.459700
H -9.285900 -12.772300 -22.794600
C -8.924400 -13.321500 -23.520800
H -8.763000 -15.143000 -22.505400
H -8.268700 -12.778100 -24.006500
C -8.232900 -14.496300 -22.934300
C -6.932400 -14.699700 -22.970100
H -6.896600 -16.417900 -21.897900
H -6.402300 -14.053000 -23.399000
C -6.240900 -15.874500 -22.383600
H -5.879400 -16.423700 -23.109800
C -5.120200 -15.512300 -21.444700
O -4.794400 -14.378800 -21.191500
O -4.514000 -16.570000 -20.948600
H -3.684500 -16.280700 -20.410600
N -8.799500 -15.919400 -19.478300
H -8.768400 -13.882700 -19.786300
C -8.358400 -14.625400 -19.381300
H -7.971000 -17.612000 -18.621900
C -7.948300 -16.635200 -18.775800
C -7.242700 -14.578200 -18.615000
H -7.053700 -15.773600 -15.200500
N -6.990200 -15.866000 -18.232900
H -6.743500 -13.814600 -18.390800
H -6.425800 -14.389700 -13.450000
C -6.242600 -15.300300 -15.247600
H -6.006300 -17.240200 -17.131500
C -5.866400 -14.470900 -14.200700
C -5.814800 -16.348200 -17.489900
C -5.433100 -15.434600 -16.357400
H -5.057000 -16.428600 -18.106200
H -5.053200 -12.767400 -12.496700
C -4.677100 -13.761400 -14.245500
C -4.295400 -12.847800 -13.113100
C -4.243800 -14.725100 -16.402300
H -4.103900 -11.955800 -13.471400
C -3.867600 -13.895700 -15.355300
H -3.684400 -14.806300 -17.152900
H -3.366700 -15.381400 -12.212100
N -3.120000 -13.330000 -12.370000
H -3.056500 -13.422400 -15.402500
C -2.867500 -14.617800 -11.987900
C -2.161900 -12.560800 -11.827100
H -2.139200 -11.584000 -11.981000
C -1.751800 -14.570600 -11.221600
H -1.341800 -15.313300 -10.816600
N -1.310700 -13.276600 -11.124600
