17
Fragment
H -19.000300 -4.753000 -46.552000
H -18.459700 -5.275500 -48.746100
C -18.141600 -5.110700 -46.743100
C -17.827000 -5.419700 -48.051800
N -17.281200 -5.297200 -45.734500
O -17.157200 -6.717400 -50.511500
C -16.577500 -5.941800 -48.339400
C -16.272200 -6.315200 -49.766900
C -16.077600 -5.803900 -46.009300
C -15.681700 -6.138000 -47.293900
H -15.466900 -5.941000 -45.295700
H -15.163000 -6.067200 -52.035700
N -15.003000 -6.157900 -50.141100
H -14.815600 -6.494200 -47.457000
H -14.619100 -7.314400 -51.604000
N -14.546000 -6.430900 -51.452200
H -14.403600 -5.786300 -49.561800
17
Fragment
H -19.000300 -8.498200 -46.552000
H -18.459700 -9.020700 -48.746100
C -18.141600 -8.855900 -46.743100
C -17.827000 -9.164900 -48.051800
N -17.281200 -9.042400 -45.734500
O -17.157200 -10.462600 -50.511500
C -16.577500 -9.687000 -48.339400
C -16.272200 -10.060400 -49.766900
C -16.077600 -9.549100 -46.009300
C -15.681700 -9.883200 -47.293900
H -15.466900 -9.686200 -45.295700
H -15.163000 -9.812400 -52.035700
N -15.003000 -9.903100 -50.141100
H -14.815600 -10.239400 -47.457000
H -14.619100 -11.059600 -51.604000
N -14.546000 -10.176100 -51.452200
H -14.403600 -9.531500 -49.561800
34
Fragment
H -19.000300 -4.753000 -46.552000
H -18.459700 -5.275500 -48.746100
C -18.141600 -5.110700 -46.743100
C -17.827000 -5.419700 -48.051800
N -17.281200 -5.297200 -45.734500
O -17.157200 -6.717400 -50.511500
C -16.577500 -5.941800 -48.339400
C -16.272200 -6.315200 -49.766900
C -16.077600 -5.803900 -46.009300
C -15.681700 -6.138000 -47.293900
H -15.466900 -5.941000 -45.295700
H -15.163000 -6.067200 -52.035700
N -15.003000 -6.157900 -50.141100
H -14.815600 -6.494200 -47.457000
H -14.619100 -7.314400 -51.604000
N -14.546000 -6.430900 -51.452200
H -14.403600 -5.786300 -49.561800
H -19.000300 -8.498200 -46.552000
H -18.459700 -9.020700 -48.746100
C -18.141600 -8.855900 -46.743100
C -17.827000 -9.164900 -48.051800
N -17.281200 -9.042400 -45.734500
O -17.157200 -10.462600 -50.511500
C -16.577500 -9.687000 -48.339400
C -16.272200 -10.060400 -49.766900
C -16.077600 -9.549100 -46.009300
C -15.681700 -9.883200 -47.293900
H -15.466900 -9.686200 -45.295700
H -15.163000 -9.812400 -52.035700
N -15.003000 -9.903100 -50.141100
H -14.815600 -10.239400 -47.457000
H -14.619100 -11.059600 -51.604000
N -14.546000 -10.176100 -51.452200
H -14.403600 -9.531500 -49.561800
