17
Fragment
H -19.000300 -4.753000 -46.552000
H -18.459700 -5.275500 -48.746100
C -18.141600 -5.110700 -46.743100
C -17.827000 -5.419700 -48.051800
N -17.281200 -5.297200 -45.734500
O -17.157200 -6.717400 -50.511500
C -16.577500 -5.941800 -48.339400
C -16.272200 -6.315200 -49.766900
C -16.077600 -5.803900 -46.009300
C -15.681700 -6.138000 -47.293900
H -15.466900 -5.941000 -45.295700
H -15.163000 -6.067200 -52.035700
N -15.003000 -6.157900 -50.141100
H -14.815600 -6.494200 -47.457000
H -14.619100 -7.314400 -51.604000
N -14.546000 -6.430900 -51.452200
H -14.403600 -5.786300 -49.561800
17
Fragment
H -19.000300 -1.007800 -46.552000
H -18.459700 -1.530300 -48.746100
C -18.141600 -1.365500 -46.743100
C -17.827000 -1.674500 -48.051800
N -17.281200 -1.552000 -45.734500
O -17.157200 -2.972200 -50.511500
C -16.577500 -2.196600 -48.339400
C -16.272200 -2.570000 -49.766900
C -16.077600 -2.058700 -46.009300
C -15.681700 -2.392800 -47.293900
H -15.466900 -2.195800 -45.295700
H -15.163000 -2.322000 -52.035700
N -15.003000 -2.412700 -50.141100
H -14.815600 -2.749000 -47.457000
H -14.619100 -3.569200 -51.604000
N -14.546000 -2.685700 -51.452200
H -14.403600 -2.041100 -49.561800
34
Fragment
H -19.000300 -4.753000 -46.552000
H -18.459700 -5.275500 -48.746100
C -18.141600 -5.110700 -46.743100
C -17.827000 -5.419700 -48.051800
N -17.281200 -5.297200 -45.734500
O -17.157200 -6.717400 -50.511500
C -16.577500 -5.941800 -48.339400
C -16.272200 -6.315200 -49.766900
C -16.077600 -5.803900 -46.009300
C -15.681700 -6.138000 -47.293900
H -15.466900 -5.941000 -45.295700
H -15.163000 -6.067200 -52.035700
N -15.003000 -6.157900 -50.141100
H -14.815600 -6.494200 -47.457000
H -14.619100 -7.314400 -51.604000
N -14.546000 -6.430900 -51.452200
H -14.403600 -5.786300 -49.561800
H -19.000300 -1.007800 -46.552000
H -18.459700 -1.530300 -48.746100
C -18.141600 -1.365500 -46.743100
C -17.827000 -1.674500 -48.051800
N -17.281200 -1.552000 -45.734500
O -17.157200 -2.972200 -50.511500
C -16.577500 -2.196600 -48.339400
C -16.272200 -2.570000 -49.766900
C -16.077600 -2.058700 -46.009300
C -15.681700 -2.392800 -47.293900
H -15.466900 -2.195800 -45.295700
H -15.163000 -2.322000 -52.035700
N -15.003000 -2.412700 -50.141100
H -14.815600 -2.749000 -47.457000
H -14.619100 -3.569200 -51.604000
N -14.546000 -2.685700 -51.452200
H -14.403600 -2.041100 -49.561800
