18
Fragment
H -11.480800 -12.915300 -25.493800
O -10.651300 -12.626000 -24.955800
O -10.370900 -14.817200 -24.712900
C -10.045100 -13.683700 -24.459700
H -9.285900 -12.772300 -22.794600
C -8.924400 -13.321500 -23.520800
H -8.763000 -15.143000 -22.505400
H -8.268700 -12.778100 -24.006500
C -8.232900 -14.496300 -22.934300
C -6.932400 -14.699700 -22.970100
H -6.896600 -16.417900 -21.897900
H -6.402300 -14.053000 -23.399000
C -6.240900 -15.874500 -22.383600
H -5.879400 -16.423700 -23.109800
C -5.120200 -15.512300 -21.444700
O -4.794400 -14.378800 -21.191500
O -4.514000 -16.570000 -20.948600
H -3.684500 -16.280700 -20.410600
32
Fragment
N -11.327000 -8.410600 -27.129000
H -11.296000 -10.447300 -27.437100
C -10.886000 -9.704600 -27.032000
H -10.498500 -6.718000 -26.272600
C -10.475900 -7.694800 -26.426600
C -9.770300 -9.751800 -26.265700
H -9.581300 -8.556400 -22.851200
N -9.517700 -8.464000 -25.883700
H -9.271100 -10.515400 -26.041600
H -8.953400 -9.940300 -21.100700
C -8.770200 -9.029700 -22.898300
H -8.533800 -7.089800 -24.782300
C -8.393900 -9.859100 -21.851400
C -8.342400 -7.981800 -25.140600
C -7.960700 -8.895400 -24.008200
H -7.584500 -7.901400 -25.757000
H -7.580800 -11.562600 -20.147400
C -7.204600 -10.568600 -21.896200
C -6.822900 -11.482200 -20.763800
C -6.771400 -9.604900 -24.053000
H -6.631400 -12.374200 -21.122100
C -6.395100 -10.434300 -23.006100
H -6.211900 -9.523700 -24.803700
H -5.894200 -8.948600 -19.862800
N -5.647500 -11.000000 -20.020700
H -5.584000 -10.907600 -23.053200
C -5.395000 -9.712200 -19.638700
C -4.689400 -11.769200 -19.477900
H -4.666800 -12.746000 -19.631800
C -4.279300 -9.759400 -18.872400
H -3.869300 -9.016700 -18.467300
N -3.838300 -11.053400 -18.775400
50
Fragment
H -11.480800 -12.915300 -25.493800
O -10.651300 -12.626000 -24.955800
O -10.370900 -14.817200 -24.712900
C -10.045100 -13.683700 -24.459700
H -9.285900 -12.772300 -22.794600
C -8.924400 -13.321500 -23.520800
H -8.763000 -15.143000 -22.505400
H -8.268700 -12.778100 -24.006500
C -8.232900 -14.496300 -22.934300
C -6.932400 -14.699700 -22.970100
H -6.896600 -16.417900 -21.897900
H -6.402300 -14.053000 -23.399000
C -6.240900 -15.874500 -22.383600
H -5.879400 -16.423700 -23.109800
C -5.120200 -15.512300 -21.444700
O -4.794400 -14.378800 -21.191500
O -4.514000 -16.570000 -20.948600
H -3.684500 -16.280700 -20.410600
N -11.327000 -8.410600 -27.129000
H -11.296000 -10.447300 -27.437100
C -10.886000 -9.704600 -27.032000
H -10.498500 -6.718000 -26.272600
C -10.475900 -7.694800 -26.426600
C -9.770300 -9.751800 -26.265700
H -9.581300 -8.556400 -22.851200
N -9.517700 -8.464000 -25.883700
H -9.271100 -10.515400 -26.041600
H -8.953400 -9.940300 -21.100700
C -8.770200 -9.029700 -22.898300
H -8.533800 -7.089800 -24.782300
C -8.393900 -9.859100 -21.851400
C -8.342400 -7.981800 -25.140600
C -7.960700 -8.895400 -24.008200
H -7.584500 -7.901400 -25.757000
H -7.580800 -11.562600 -20.147400
C -7.204600 -10.568600 -21.896200
C -6.822900 -11.482200 -20.763800
C -6.771400 -9.604900 -24.053000
H -6.631400 -12.374200 -21.122100
C -6.395100 -10.434300 -23.006100
H -6.211900 -9.523700 -24.803700
H -5.894200 -8.948600 -19.862800
N -5.647500 -11.000000 -20.020700
H -5.584000 -10.907600 -23.053200
C -5.395000 -9.712200 -19.638700
C -4.689400 -11.769200 -19.477900
H -4.666800 -12.746000 -19.631800
C -4.279300 -9.759400 -18.872400
H -3.869300 -9.016700 -18.467300
N -3.838300 -11.053400 -18.775400
