17
Fragment
H -19.000300 -4.753000 -46.552000
H -18.459700 -5.275500 -48.746100
C -18.141600 -5.110700 -46.743100
C -17.827000 -5.419700 -48.051800
N -17.281200 -5.297200 -45.734500
O -17.157200 -6.717400 -50.511500
C -16.577500 -5.941800 -48.339400
C -16.272200 -6.315200 -49.766900
C -16.077600 -5.803900 -46.009300
C -15.681700 -6.138000 -47.293900
H -15.466900 -5.941000 -45.295700
H -15.163000 -6.067200 -52.035700
N -15.003000 -6.157900 -50.141100
H -14.815600 -6.494200 -47.457000
H -14.619100 -7.314400 -51.604000
N -14.546000 -6.430900 -51.452200
H -14.403600 -5.786300 -49.561800
16
Fragment
O -24.348300 -8.473100 -48.414100
H -24.268300 -8.187000 -47.537400
O -23.638200 -7.417400 -46.196800
H -23.439200 -8.875700 -50.758600
C -23.104700 -8.152600 -48.878300
C -22.790400 -8.469800 -50.195600
C -22.515800 -7.177300 -46.664800
C -22.161700 -7.534200 -48.055400
H -21.903300 -6.370600 -45.126000
O -21.572100 -6.598700 -45.981300
C -21.528300 -8.190400 -50.677600
H -21.306400 -8.426700 -51.571300
C -20.899300 -7.240600 -48.578200
C -20.579600 -7.570200 -49.880600
H -20.253600 -6.809100 -48.031600
H -19.717600 -7.373200 -50.225700
33
Fragment
H -19.000300 -4.753000 -46.552000
H -18.459700 -5.275500 -48.746100
C -18.141600 -5.110700 -46.743100
C -17.827000 -5.419700 -48.051800
N -17.281200 -5.297200 -45.734500
O -17.157200 -6.717400 -50.511500
C -16.577500 -5.941800 -48.339400
C -16.272200 -6.315200 -49.766900
C -16.077600 -5.803900 -46.009300
C -15.681700 -6.138000 -47.293900
H -15.466900 -5.941000 -45.295700
H -15.163000 -6.067200 -52.035700
N -15.003000 -6.157900 -50.141100
H -14.815600 -6.494200 -47.457000
H -14.619100 -7.314400 -51.604000
N -14.546000 -6.430900 -51.452200
H -14.403600 -5.786300 -49.561800
O -24.348300 -8.473100 -48.414100
H -24.268300 -8.187000 -47.537400
O -23.638200 -7.417400 -46.196800
H -23.439200 -8.875700 -50.758600
C -23.104700 -8.152600 -48.878300
C -22.790400 -8.469800 -50.195600
C -22.515800 -7.177300 -46.664800
C -22.161700 -7.534200 -48.055400
H -21.903300 -6.370600 -45.126000
O -21.572100 -6.598700 -45.981300
C -21.528300 -8.190400 -50.677600
H -21.306400 -8.426700 -51.571300
C -20.899300 -7.240600 -48.578200
C -20.579600 -7.570200 -49.880600
H -20.253600 -6.809100 -48.031600
H -19.717600 -7.373200 -50.225700
