18
Fragment
H -11.480800 -12.915300 -25.493800
O -10.651300 -12.626000 -24.955800
O -10.370900 -14.817200 -24.712900
C -10.045100 -13.683700 -24.459700
H -9.285900 -12.772300 -22.794600
C -8.924400 -13.321500 -23.520800
H -8.763000 -15.143000 -22.505400
H -8.268700 -12.778100 -24.006500
C -8.232900 -14.496300 -22.934300
C -6.932400 -14.699700 -22.970100
H -6.896600 -16.417900 -21.897900
H -6.402300 -14.053000 -23.399000
C -6.240900 -15.874500 -22.383600
H -5.879400 -16.423700 -23.109800
C -5.120200 -15.512300 -21.444700
O -4.794400 -14.378800 -21.191500
O -4.514000 -16.570000 -20.948600
H -3.684500 -16.280700 -20.410600
32
Fragment
N -20.214500 -15.919400 -34.779800
H -20.183400 -13.882700 -35.087800
C -19.773400 -14.625400 -34.682800
H -19.386000 -17.612000 -33.923400
C -19.363300 -16.635200 -34.077300
C -18.657700 -14.578200 -33.916500
H -18.468700 -15.773600 -30.501900
N -18.405200 -15.866000 -33.534400
H -18.158500 -13.814600 -33.692300
H -17.840800 -14.389700 -28.751500
C -17.657600 -15.300300 -30.549100
H -17.421300 -17.240200 -32.433000
C -17.281400 -14.470900 -29.502100
C -17.229800 -16.348200 -32.791400
C -16.848100 -15.434600 -31.658900
H -16.472000 -16.428600 -33.407700
H -16.468200 -12.767400 -27.798200
C -16.092000 -13.761400 -29.547000
C -15.710400 -12.847800 -28.414500
C -15.658800 -14.725100 -31.703700
H -15.518900 -11.955800 -28.772900
C -15.282600 -13.895700 -30.656800
H -15.099400 -14.806300 -32.454400
H -14.781700 -15.381400 -27.513600
N -14.535000 -13.330000 -27.671500
H -14.471500 -13.422400 -30.703900
C -14.282500 -14.617800 -27.289400
C -13.576900 -12.560800 -27.128600
H -13.554200 -11.584000 -27.282500
C -13.166800 -14.570600 -26.523100
H -12.756800 -15.313300 -26.118100
N -12.725700 -13.276600 -26.426100
50
Fragment
H -11.480800 -12.915300 -25.493800
O -10.651300 -12.626000 -24.955800
O -10.370900 -14.817200 -24.712900
C -10.045100 -13.683700 -24.459700
H -9.285900 -12.772300 -22.794600
C -8.924400 -13.321500 -23.520800
H -8.763000 -15.143000 -22.505400
H -8.268700 -12.778100 -24.006500
C -8.232900 -14.496300 -22.934300
C -6.932400 -14.699700 -22.970100
H -6.896600 -16.417900 -21.897900
H -6.402300 -14.053000 -23.399000
C -6.240900 -15.874500 -22.383600
H -5.879400 -16.423700 -23.109800
C -5.120200 -15.512300 -21.444700
O -4.794400 -14.378800 -21.191500
O -4.514000 -16.570000 -20.948600
H -3.684500 -16.280700 -20.410600
N -20.214500 -15.919400 -34.779800
H -20.183400 -13.882700 -35.087800
C -19.773400 -14.625400 -34.682800
H -19.386000 -17.612000 -33.923400
C -19.363300 -16.635200 -34.077300
C -18.657700 -14.578200 -33.916500
H -18.468700 -15.773600 -30.501900
N -18.405200 -15.866000 -33.534400
H -18.158500 -13.814600 -33.692300
H -17.840800 -14.389700 -28.751500
C -17.657600 -15.300300 -30.549100
H -17.421300 -17.240200 -32.433000
C -17.281400 -14.470900 -29.502100
C -17.229800 -16.348200 -32.791400
C -16.848100 -15.434600 -31.658900
H -16.472000 -16.428600 -33.407700
H -16.468200 -12.767400 -27.798200
C -16.092000 -13.761400 -29.547000
C -15.710400 -12.847800 -28.414500
C -15.658800 -14.725100 -31.703700
H -15.518900 -11.955800 -28.772900
C -15.282600 -13.895700 -30.656800
H -15.099400 -14.806300 -32.454400
H -14.781700 -15.381400 -27.513600
N -14.535000 -13.330000 -27.671500
H -14.471500 -13.422400 -30.703900
C -14.282500 -14.617800 -27.289400
C -13.576900 -12.560800 -27.128600
H -13.554200 -11.584000 -27.282500
C -13.166800 -14.570600 -26.523100
H -12.756800 -15.313300 -26.118100
N -12.725700 -13.276600 -26.426100
