17
Fragment
H -19.000300 -4.753000 -46.552000
H -18.459700 -5.275500 -48.746100
C -18.141600 -5.110700 -46.743100
C -17.827000 -5.419700 -48.051800
N -17.281200 -5.297200 -45.734500
O -17.157200 -6.717400 -50.511500
C -16.577500 -5.941800 -48.339400
C -16.272200 -6.315200 -49.766900
C -16.077600 -5.803900 -46.009300
C -15.681700 -6.138000 -47.293900
H -15.466900 -5.941000 -45.295700
H -15.163000 -6.067200 -52.035700
N -15.003000 -6.157900 -50.141100
H -14.815600 -6.494200 -47.457000
H -14.619100 -7.314400 -51.604000
N -14.546000 -6.430900 -51.452200
H -14.403600 -5.786300 -49.561800
16
Fragment
O -13.069000 -4.727900 -48.414100
H -12.989000 -4.441800 -47.537400
O -12.358900 -3.672200 -46.196800
H -12.159900 -5.130500 -50.758600
C -11.825400 -4.407400 -48.878300
C -11.511100 -4.724600 -50.195600
C -11.236500 -3.432100 -46.664800
C -10.882400 -3.789000 -48.055400
H -10.624000 -2.625400 -45.126000
O -10.292800 -2.853500 -45.981300
C -10.249000 -4.445200 -50.677600
H -10.027100 -4.681500 -51.571300
C -9.620000 -3.495400 -48.578200
C -9.300300 -3.825000 -49.880600
H -8.974300 -3.063900 -48.031600
H -8.438300 -3.628000 -50.225700
33
Fragment
H -19.000300 -4.753000 -46.552000
H -18.459700 -5.275500 -48.746100
C -18.141600 -5.110700 -46.743100
C -17.827000 -5.419700 -48.051800
N -17.281200 -5.297200 -45.734500
O -17.157200 -6.717400 -50.511500
C -16.577500 -5.941800 -48.339400
C -16.272200 -6.315200 -49.766900
C -16.077600 -5.803900 -46.009300
C -15.681700 -6.138000 -47.293900
H -15.466900 -5.941000 -45.295700
H -15.163000 -6.067200 -52.035700
N -15.003000 -6.157900 -50.141100
H -14.815600 -6.494200 -47.457000
H -14.619100 -7.314400 -51.604000
N -14.546000 -6.430900 -51.452200
H -14.403600 -5.786300 -49.561800
O -13.069000 -4.727900 -48.414100
H -12.989000 -4.441800 -47.537400
O -12.358900 -3.672200 -46.196800
H -12.159900 -5.130500 -50.758600
C -11.825400 -4.407400 -48.878300
C -11.511100 -4.724600 -50.195600
C -11.236500 -3.432100 -46.664800
C -10.882400 -3.789000 -48.055400
H -10.624000 -2.625400 -45.126000
O -10.292800 -2.853500 -45.981300
C -10.249000 -4.445200 -50.677600
H -10.027100 -4.681500 -51.571300
C -9.620000 -3.495400 -48.578200
C -9.300300 -3.825000 -49.880600
H -8.974300 -3.063900 -48.031600
H -8.438300 -3.628000 -50.225700
