32
Fragment
H -9.002600 -20.467500 -19.746500
H -8.997200 -22.732200 -20.206100
N -8.767000 -17.547300 -14.426700
H -8.597600 -15.493500 -14.356300
H -8.457500 -23.658800 -19.039400
C -8.292000 -16.296800 -14.737800
H -8.277000 -18.606200 -18.573600
C -8.276500 -20.545500 -19.153700
C -8.195000 -22.986800 -19.703600
H -8.184800 -19.308400 -15.164700
C -8.077600 -18.374900 -15.173700
C -7.841200 -19.431600 -18.457300
C -7.657200 -21.773800 -18.989700
H -7.629300 -25.573800 -20.476800
C -7.323100 -16.389500 -15.671400
N -7.223400 -23.579000 -20.622800
N -7.197300 -17.722300 -15.953900
C -7.097500 -24.911800 -20.905200
H -6.791300 -15.727500 -16.099800
C -6.763500 -19.527500 -17.586900
C -6.579400 -21.869700 -18.119300
C -6.343100 -22.926400 -21.402900
H -6.235800 -21.992900 -21.412000
C -6.225700 -18.314500 -16.873000
C -6.144200 -20.755800 -17.422900
H -6.143700 -22.695100 -18.003000
C -6.128600 -25.004500 -21.838800
H -5.963100 -17.642500 -17.537300
H -5.823100 -25.807800 -22.220300
N -5.653700 -23.754000 -22.149900
H -5.423500 -18.569100 -16.370500
H -5.418000 -20.833800 -16.830100
14
Fragment
H -4.416700 -23.252600 -23.120100
O -3.853600 -21.034900 -22.734700
O -3.740100 -23.004500 -23.755100
C -3.359900 -21.761200 -23.568500
H -2.553700 -21.446400 -25.418300
H -2.518000 -19.331800 -24.401500
C -2.245700 -21.355900 -24.492400
C -1.764400 -19.945400 -24.276400
H -1.492100 -21.969500 -24.367300
H -1.456400 -19.854900 -23.350500
C -0.650100 -19.540100 -25.200300
O -0.270000 -18.296800 -25.013800
O -0.156500 -20.266400 -26.034100
H 0.406600 -18.048700 -25.648700
46
Fragment
H -9.002600 -20.467500 -19.746500
H -8.997200 -22.732200 -20.206100
N -8.767000 -17.547300 -14.426700
H -8.597600 -15.493500 -14.356300
H -8.457500 -23.658800 -19.039400
C -8.292000 -16.296800 -14.737800
H -8.277000 -18.606200 -18.573600
C -8.276500 -20.545500 -19.153700
C -8.195000 -22.986800 -19.703600
H -8.184800 -19.308400 -15.164700
C -8.077600 -18.374900 -15.173700
C -7.841200 -19.431600 -18.457300
C -7.657200 -21.773800 -18.989700
H -7.629300 -25.573800 -20.476800
C -7.323100 -16.389500 -15.671400
N -7.223400 -23.579000 -20.622800
N -7.197300 -17.722300 -15.953900
C -7.097500 -24.911800 -20.905200
H -6.791300 -15.727500 -16.099800
C -6.763500 -19.527500 -17.586900
C -6.579400 -21.869700 -18.119300
C -6.343100 -22.926400 -21.402900
H -6.235800 -21.992900 -21.412000
C -6.225700 -18.314500 -16.873000
C -6.144200 -20.755800 -17.422900
H -6.143700 -22.695100 -18.003000
C -6.128600 -25.004500 -21.838800
H -5.963100 -17.642500 -17.537300
H -5.823100 -25.807800 -22.220300
N -5.653700 -23.754000 -22.149900
H -5.423500 -18.569100 -16.370500
H -5.418000 -20.833800 -16.830100
H -4.416700 -23.252600 -23.120100
O -3.853600 -21.034900 -22.734700
O -3.740100 -23.004500 -23.755100
C -3.359900 -21.761200 -23.568500
H -2.553700 -21.446400 -25.418300
H -2.518000 -19.331800 -24.401500
C -2.245700 -21.355900 -24.492400
C -1.764400 -19.945400 -24.276400
H -1.492100 -21.969500 -24.367300
H -1.456400 -19.854900 -23.350500
C -0.650100 -19.540100 -25.200300
O -0.270000 -18.296800 -25.013800
O -0.156500 -20.266400 -26.034100
H 0.406600 -18.048700 -25.648700
