18
Fragment
O -38.399500 -8.821300 -16.112100
H -38.337100 -11.117000 -15.857200
O -38.089700 -10.725800 -14.987800
C -38.084400 -9.415300 -15.097200
H -37.806100 -6.836200 -14.645600
C -37.699000 -8.693400 -13.846600
C -37.662800 -7.307000 -13.844700
H -37.415500 -10.346400 -12.673600
C -37.415500 -9.386000 -12.673600
C -37.415500 -6.608800 -12.673600
H -37.415500 -5.648500 -12.673600
C -37.168200 -7.307000 -11.502600
C -37.132000 -8.693400 -11.500600
H -37.024900 -6.836200 -10.701600
C -36.746600 -9.415300 -10.250000
O -36.741300 -10.725800 -10.359400
H -36.493900 -11.117000 -9.490000
O -36.431500 -8.821300 -9.235100
18
Fragment
O -38.399500 -15.795600 -16.112100
H -38.337100 -18.091300 -15.857200
O -38.089700 -17.700100 -14.987800
C -38.084400 -16.389600 -15.097200
H -37.806100 -13.810500 -14.645600
C -37.699000 -15.667700 -13.846600
C -37.662800 -14.281300 -13.844700
H -37.415500 -17.320700 -12.673600
C -37.415500 -16.360300 -12.673600
C -37.415500 -13.583100 -12.673600
H -37.415500 -12.622800 -12.673600
C -37.168200 -14.281300 -11.502600
C -37.132000 -15.667700 -11.500600
H -37.024900 -13.810500 -10.701600
C -36.746600 -16.389600 -10.250000
O -36.741300 -17.700100 -10.359400
H -36.493900 -18.091300 -9.490000
O -36.431500 -15.795600 -9.235100
36
Fragment
O -38.399500 -8.821300 -16.112100
H -38.337100 -11.117000 -15.857200
O -38.089700 -10.725800 -14.987800
C -38.084400 -9.415300 -15.097200
H -37.806100 -6.836200 -14.645600
C -37.699000 -8.693400 -13.846600
C -37.662800 -7.307000 -13.844700
H -37.415500 -10.346400 -12.673600
C -37.415500 -9.386000 -12.673600
C -37.415500 -6.608800 -12.673600
H -37.415500 -5.648500 -12.673600
C -37.168200 -7.307000 -11.502600
C -37.132000 -8.693400 -11.500600
H -37.024900 -6.836200 -10.701600
C -36.746600 -9.415300 -10.250000
O -36.741300 -10.725800 -10.359400
H -36.493900 -11.117000 -9.490000
O -36.431500 -8.821300 -9.235100
O -38.399500 -15.795600 -16.112100
H -38.337100 -18.091300 -15.857200
O -38.089700 -17.700100 -14.987800
C -38.084400 -16.389600 -15.097200
H -37.806100 -13.810500 -14.645600
C -37.699000 -15.667700 -13.846600
C -37.662800 -14.281300 -13.844700
H -37.415500 -17.320700 -12.673600
C -37.415500 -16.360300 -12.673600
C -37.415500 -13.583100 -12.673600
H -37.415500 -12.622800 -12.673600
C -37.168200 -14.281300 -11.502600
C -37.132000 -15.667700 -11.500600
H -37.024900 -13.810500 -10.701600
C -36.746600 -16.389600 -10.250000
O -36.741300 -17.700100 -10.359400
H -36.493900 -18.091300 -9.490000
O -36.431500 -15.795600 -9.235100
