17
Fragment
H -21.719700 -16.214600 -18.384700
N -21.276500 -18.132700 -18.479800
C -21.128500 -16.843600 -18.780400
H -20.553100 -19.934700 -18.850100
C -20.446400 -19.012300 -19.052700
C -20.150000 -16.378800 -19.644200
H -20.078300 -15.450700 -19.838400
C -19.446200 -18.641600 -19.922800
C -19.279800 -17.289400 -20.220400
H -18.879300 -19.296000 -20.313900
H -18.636000 -15.032100 -21.303700
C -18.190200 -16.930200 -21.188400
N -18.109300 -15.651100 -21.557300
O -17.417800 -17.784900 -21.618000
H -17.220300 -15.615600 -23.185600
N -17.143500 -15.180600 -22.482100
H -16.461900 -15.322100 -22.136900
17
Fragment
H -26.735700 -22.170300 -18.745200
N -26.173300 -24.057700 -18.789600
C -26.054600 -22.758000 -19.049500
H -25.297600 -25.813900 -19.062700
C -25.222500 -24.885700 -19.249000
C -24.984400 -22.226300 -19.743200
H -24.915800 -21.289600 -19.883000
C -24.149000 -24.447400 -19.975800
C -24.009800 -23.086900 -20.231900
H -23.504700 -25.066500 -20.301000
H -22.974000 -20.840700 -20.772200
C -22.849300 -22.654900 -21.078600
N -22.570300 -21.350000 -21.085900
O -22.220400 -23.470300 -21.745000
H -21.594400 -21.158700 -22.654000
N -21.588400 -20.805500 -21.948300
H -20.831900 -21.041900 -21.591000
34
Fragment
H -21.719700 -16.214600 -18.384700
N -21.276500 -18.132700 -18.479800
C -21.128500 -16.843600 -18.780400
H -20.553100 -19.934700 -18.850100
C -20.446400 -19.012300 -19.052700
C -20.150000 -16.378800 -19.644200
H -20.078300 -15.450700 -19.838400
C -19.446200 -18.641600 -19.922800
C -19.279800 -17.289400 -20.220400
H -18.879300 -19.296000 -20.313900
H -18.636000 -15.032100 -21.303700
C -18.190200 -16.930200 -21.188400
N -18.109300 -15.651100 -21.557300
O -17.417800 -17.784900 -21.618000
H -17.220300 -15.615600 -23.185600
N -17.143500 -15.180600 -22.482100
H -16.461900 -15.322100 -22.136900
H -26.735700 -22.170300 -18.745200
N -26.173300 -24.057700 -18.789600
C -26.054600 -22.758000 -19.049500
H -25.297600 -25.813900 -19.062700
C -25.222500 -24.885700 -19.249000
C -24.984400 -22.226300 -19.743200
H -24.915800 -21.289600 -19.883000
C -24.149000 -24.447400 -19.975800
C -24.009800 -23.086900 -20.231900
H -23.504700 -25.066500 -20.301000
H -22.974000 -20.840700 -20.772200
C -22.849300 -22.654900 -21.078600
N -22.570300 -21.350000 -21.085900
O -22.220400 -23.470300 -21.745000
H -21.594400 -21.158700 -22.654000
N -21.588400 -20.805500 -21.948300
H -20.831900 -21.041900 -21.591000
