32
Fragment
H -9.002600 -20.467500 -19.746500
H -8.997200 -22.732200 -20.206100
N -8.767000 -17.547300 -14.426700
H -8.597600 -15.493500 -14.356300
H -8.457500 -23.658800 -19.039400
C -8.292000 -16.296800 -14.737800
H -8.277000 -18.606200 -18.573600
C -8.276500 -20.545500 -19.153700
C -8.195000 -22.986800 -19.703600
H -8.184800 -19.308400 -15.164700
C -8.077600 -18.374900 -15.173700
C -7.841200 -19.431600 -18.457300
C -7.657200 -21.773800 -18.989700
H -7.629300 -25.573800 -20.476800
C -7.323100 -16.389500 -15.671400
N -7.223400 -23.579000 -20.622800
N -7.197300 -17.722300 -15.953900
C -7.097500 -24.911800 -20.905200
H -6.791300 -15.727500 -16.099800
C -6.763500 -19.527500 -17.586900
C -6.579400 -21.869700 -18.119300
C -6.343100 -22.926400 -21.402900
H -6.235800 -21.992900 -21.412000
C -6.225700 -18.314500 -16.873000
C -6.144200 -20.755800 -17.422900
H -6.143700 -22.695100 -18.003000
C -6.128600 -25.004500 -21.838800
H -5.963100 -17.642500 -17.537300
H -5.823100 -25.807800 -22.220300
N -5.653700 -23.754000 -22.149900
H -5.423500 -18.569100 -16.370500
H -5.418000 -20.833800 -16.830100
32
Fragment
H -6.333600 -13.950200 -25.842600
H -6.328100 -11.685500 -26.302200
N -6.098000 -16.870500 -20.522800
H -5.928500 -18.924300 -20.452400
H -5.788500 -10.759000 -25.135500
C -5.623000 -18.120900 -20.833900
H -5.607900 -15.811500 -24.669700
C -5.607400 -13.872300 -25.249800
C -5.526000 -11.431000 -25.799700
H -5.515800 -15.109400 -21.260800
C -5.408600 -16.042800 -21.269800
C -5.172200 -14.986200 -24.553400
C -4.988100 -12.644000 -25.085800
H -4.960300 -8.844000 -26.572900
C -4.654100 -18.028300 -21.767500
N -4.554300 -10.838700 -26.718900
N -4.528200 -16.695500 -22.050000
C -4.428500 -9.505900 -27.001300
H -4.122300 -18.690200 -22.195900
C -4.094500 -14.890200 -23.683000
C -3.910400 -12.548000 -24.215400
C -3.674000 -11.491400 -27.499000
H -3.566800 -12.424800 -27.508100
C -3.556600 -16.103200 -22.969100
C -3.475100 -13.661900 -23.519000
H -3.474700 -11.722700 -24.099100
C -3.459600 -9.413300 -27.934900
H -3.294100 -16.775200 -23.633400
H -3.154000 -8.609900 -28.316400
N -2.984600 -10.663700 -28.246100
H -2.754400 -15.848700 -22.466600
H -2.749000 -13.584000 -22.926200
64
Fragment
H -9.002600 -20.467500 -19.746500
H -8.997200 -22.732200 -20.206100
N -8.767000 -17.547300 -14.426700
H -8.597600 -15.493500 -14.356300
H -8.457500 -23.658800 -19.039400
C -8.292000 -16.296800 -14.737800
H -8.277000 -18.606200 -18.573600
C -8.276500 -20.545500 -19.153700
C -8.195000 -22.986800 -19.703600
H -8.184800 -19.308400 -15.164700
C -8.077600 -18.374900 -15.173700
C -7.841200 -19.431600 -18.457300
C -7.657200 -21.773800 -18.989700
H -7.629300 -25.573800 -20.476800
C -7.323100 -16.389500 -15.671400
N -7.223400 -23.579000 -20.622800
N -7.197300 -17.722300 -15.953900
C -7.097500 -24.911800 -20.905200
H -6.791300 -15.727500 -16.099800
C -6.763500 -19.527500 -17.586900
C -6.579400 -21.869700 -18.119300
C -6.343100 -22.926400 -21.402900
H -6.235800 -21.992900 -21.412000
C -6.225700 -18.314500 -16.873000
C -6.144200 -20.755800 -17.422900
H -6.143700 -22.695100 -18.003000
C -6.128600 -25.004500 -21.838800
H -5.963100 -17.642500 -17.537300
H -5.823100 -25.807800 -22.220300
N -5.653700 -23.754000 -22.149900
H -5.423500 -18.569100 -16.370500
H -5.418000 -20.833800 -16.830100
H -6.333600 -13.950200 -25.842600
H -6.328100 -11.685500 -26.302200
N -6.098000 -16.870500 -20.522800
H -5.928500 -18.924300 -20.452400
H -5.788500 -10.759000 -25.135500
C -5.623000 -18.120900 -20.833900
H -5.607900 -15.811500 -24.669700
C -5.607400 -13.872300 -25.249800
C -5.526000 -11.431000 -25.799700
H -5.515800 -15.109400 -21.260800
C -5.408600 -16.042800 -21.269800
C -5.172200 -14.986200 -24.553400
C -4.988100 -12.644000 -25.085800
H -4.960300 -8.844000 -26.572900
C -4.654100 -18.028300 -21.767500
N -4.554300 -10.838700 -26.718900
N -4.528200 -16.695500 -22.050000
C -4.428500 -9.505900 -27.001300
H -4.122300 -18.690200 -22.195900
C -4.094500 -14.890200 -23.683000
C -3.910400 -12.548000 -24.215400
C -3.674000 -11.491400 -27.499000
H -3.566800 -12.424800 -27.508100
C -3.556600 -16.103200 -22.969100
C -3.475100 -13.661900 -23.519000
H -3.474700 -11.722700 -24.099100
C -3.459600 -9.413300 -27.934900
H -3.294100 -16.775200 -23.633400
H -3.154000 -8.609900 -28.316400
N -2.984600 -10.663700 -28.246100
H -2.754400 -15.848700 -22.466600
H -2.749000 -13.584000 -22.926200
