17
Fragment
H -21.719700 -16.214600 -18.384700
N -21.276500 -18.132700 -18.479800
C -21.128500 -16.843600 -18.780400
H -20.553100 -19.934700 -18.850100
C -20.446400 -19.012300 -19.052700
C -20.150000 -16.378800 -19.644200
H -20.078300 -15.450700 -19.838400
C -19.446200 -18.641600 -19.922800
C -19.279800 -17.289400 -20.220400
H -18.879300 -19.296000 -20.313900
H -18.636000 -15.032100 -21.303700
C -18.190200 -16.930200 -21.188400
N -18.109300 -15.651100 -21.557300
O -17.417800 -17.784900 -21.618000
H -17.220300 -15.615600 -23.185600
N -17.143500 -15.180600 -22.482100
H -16.461900 -15.322100 -22.136900
17
Fragment
H -15.366800 -18.554400 -20.958900
N -14.685300 -18.695900 -20.613700
H -14.608500 -18.260900 -19.910300
O -14.410900 -16.091700 -21.477800
N -13.719400 -18.225400 -21.538600
C -13.638500 -16.946300 -21.907500
H -13.192700 -18.844400 -21.792100
H -12.949400 -14.580600 -22.781900
C -12.549000 -16.587100 -22.875400
C -12.382500 -15.235000 -23.173100
H -11.750500 -18.425800 -23.257400
C -11.678700 -17.497800 -23.451600
C -11.382300 -14.864200 -24.043200
H -11.275700 -13.941900 -24.245700
C -10.700200 -17.032900 -24.315400
N -10.552200 -15.743900 -24.616000
H -10.109100 -17.662000 -24.711100
34
Fragment
H -21.719700 -16.214600 -18.384700
N -21.276500 -18.132700 -18.479800
C -21.128500 -16.843600 -18.780400
H -20.553100 -19.934700 -18.850100
C -20.446400 -19.012300 -19.052700
C -20.150000 -16.378800 -19.644200
H -20.078300 -15.450700 -19.838400
C -19.446200 -18.641600 -19.922800
C -19.279800 -17.289400 -20.220400
H -18.879300 -19.296000 -20.313900
H -18.636000 -15.032100 -21.303700
C -18.190200 -16.930200 -21.188400
N -18.109300 -15.651100 -21.557300
O -17.417800 -17.784900 -21.618000
H -17.220300 -15.615600 -23.185600
N -17.143500 -15.180600 -22.482100
H -16.461900 -15.322100 -22.136900
H -15.366800 -18.554400 -20.958900
N -14.685300 -18.695900 -20.613700
H -14.608500 -18.260900 -19.910300
O -14.410900 -16.091700 -21.477800
N -13.719400 -18.225400 -21.538600
C -13.638500 -16.946300 -21.907500
H -13.192700 -18.844400 -21.792100
H -12.949400 -14.580600 -22.781900
C -12.549000 -16.587100 -22.875400
C -12.382500 -15.235000 -23.173100
H -11.750500 -18.425800 -23.257400
C -11.678700 -17.497800 -23.451600
C -11.382300 -14.864200 -24.043200
H -11.275700 -13.941900 -24.245700
C -10.700200 -17.032900 -24.315400
N -10.552200 -15.743900 -24.616000
H -10.109100 -17.662000 -24.711100
