18
Fragment
O -38.399500 -8.821300 -16.112100
H -38.337100 -11.117000 -15.857200
O -38.089700 -10.725800 -14.987800
C -38.084400 -9.415300 -15.097200
H -37.806100 -6.836200 -14.645600
C -37.699000 -8.693400 -13.846600
C -37.662800 -7.307000 -13.844700
H -37.415500 -10.346400 -12.673600
C -37.415500 -9.386000 -12.673600
C -37.415500 -6.608800 -12.673600
H -37.415500 -5.648500 -12.673600
C -37.168200 -7.307000 -11.502600
C -37.132000 -8.693400 -11.500600
H -37.024900 -6.836200 -10.701600
C -36.746600 -9.415300 -10.250000
O -36.741300 -10.725800 -10.359400
H -36.493900 -11.117000 -9.490000
O -36.431500 -8.821300 -9.235100
32
Fragment
H -36.460300 -6.848800 -8.204400
H -36.428000 -8.062300 -6.080300
H -36.295300 -7.201000 -4.759200
C -36.114000 -6.087200 -7.701800
N -35.928900 -4.866200 -8.140700
C -35.860900 -7.415800 -5.610600
N -35.765700 -6.204300 -6.410100
C -35.441000 -4.157400 -7.071800
C -35.331300 -4.972000 -5.997800
H -35.216300 -3.244400 -7.084000
H -35.076100 -8.902000 -3.575000
H -35.020300 -4.740400 -5.141400
C -34.519600 -8.055300 -5.326500
C -34.365600 -8.824600 -4.184100
H -33.549900 -7.436700 -6.984700
C -33.459600 -7.955600 -6.206300
C -33.170500 -9.480200 -3.932600
H -33.080200 -9.999100 -3.154200
C -32.264500 -8.611200 -5.954800
C -32.110500 -9.380400 -4.812400
H -31.609800 -12.695300 -4.997500
H -31.554000 -8.533800 -6.563900
H -31.413800 -14.191300 -3.054800
C -31.298900 -12.463800 -4.141100
C -31.189200 -13.278400 -3.067100
N -30.864400 -11.231500 -3.728800
C -30.769200 -10.020000 -4.528300
N -30.701200 -12.569500 -1.998200
C -30.516100 -11.348600 -2.437100
H -30.334800 -10.234800 -5.379700
H -30.202100 -9.373500 -4.058600
H -30.169800 -10.587000 -1.934500
50
Fragment
O -38.399500 -8.821300 -16.112100
H -38.337100 -11.117000 -15.857200
O -38.089700 -10.725800 -14.987800
C -38.084400 -9.415300 -15.097200
H -37.806100 -6.836200 -14.645600
C -37.699000 -8.693400 -13.846600
C -37.662800 -7.307000 -13.844700
H -37.415500 -10.346400 -12.673600
C -37.415500 -9.386000 -12.673600
C -37.415500 -6.608800 -12.673600
H -37.415500 -5.648500 -12.673600
C -37.168200 -7.307000 -11.502600
C -37.132000 -8.693400 -11.500600
H -37.024900 -6.836200 -10.701600
C -36.746600 -9.415300 -10.250000
O -36.741300 -10.725800 -10.359400
H -36.493900 -11.117000 -9.490000
O -36.431500 -8.821300 -9.235100
H -36.460300 -6.848800 -8.204400
H -36.428000 -8.062300 -6.080300
H -36.295300 -7.201000 -4.759200
C -36.114000 -6.087200 -7.701800
N -35.928900 -4.866200 -8.140700
C -35.860900 -7.415800 -5.610600
N -35.765700 -6.204300 -6.410100
C -35.441000 -4.157400 -7.071800
C -35.331300 -4.972000 -5.997800
H -35.216300 -3.244400 -7.084000
H -35.076100 -8.902000 -3.575000
H -35.020300 -4.740400 -5.141400
C -34.519600 -8.055300 -5.326500
C -34.365600 -8.824600 -4.184100
H -33.549900 -7.436700 -6.984700
C -33.459600 -7.955600 -6.206300
C -33.170500 -9.480200 -3.932600
H -33.080200 -9.999100 -3.154200
C -32.264500 -8.611200 -5.954800
C -32.110500 -9.380400 -4.812400
H -31.609800 -12.695300 -4.997500
H -31.554000 -8.533800 -6.563900
H -31.413800 -14.191300 -3.054800
C -31.298900 -12.463800 -4.141100
C -31.189200 -13.278400 -3.067100
N -30.864400 -11.231500 -3.728800
C -30.769200 -10.020000 -4.528300
N -30.701200 -12.569500 -1.998200
C -30.516100 -11.348600 -2.437100
H -30.334800 -10.234800 -5.379700
H -30.202100 -9.373500 -4.058600
H -30.169800 -10.587000 -1.934500
