32
Fragment
H -9.002600 -20.467500 -19.746500
H -8.997200 -22.732200 -20.206100
N -8.767000 -17.547300 -14.426700
H -8.597600 -15.493500 -14.356300
H -8.457500 -23.658800 -19.039400
C -8.292000 -16.296800 -14.737800
H -8.277000 -18.606200 -18.573600
C -8.276500 -20.545500 -19.153700
C -8.195000 -22.986800 -19.703600
H -8.184800 -19.308400 -15.164700
C -8.077600 -18.374900 -15.173700
C -7.841200 -19.431600 -18.457300
C -7.657200 -21.773800 -18.989700
H -7.629300 -25.573800 -20.476800
C -7.323100 -16.389500 -15.671400
N -7.223400 -23.579000 -20.622800
N -7.197300 -17.722300 -15.953900
C -7.097500 -24.911800 -20.905200
H -6.791300 -15.727500 -16.099800
C -6.763500 -19.527500 -17.586900
C -6.579400 -21.869700 -18.119300
C -6.343100 -22.926400 -21.402900
H -6.235800 -21.992900 -21.412000
C -6.225700 -18.314500 -16.873000
C -6.144200 -20.755800 -17.422900
H -6.143700 -22.695100 -18.003000
C -6.128600 -25.004500 -21.838800
H -5.963100 -17.642500 -17.537300
H -5.823100 -25.807800 -22.220300
N -5.653700 -23.754000 -22.149900
H -5.423500 -18.569100 -16.370500
H -5.418000 -20.833800 -16.830100
32
Fragment
H -6.599200 -27.717300 -13.650400
H -6.593700 -25.452600 -14.110000
N -6.363600 -30.637600 -8.330600
H -6.194200 -32.691400 -8.260200
H -6.054100 -24.526100 -12.943200
C -5.888600 -31.888000 -8.641700
H -5.873500 -29.578600 -12.477500
C -5.873000 -27.639400 -13.057600
C -5.791600 -25.198100 -13.607500
H -5.781400 -28.876500 -9.068600
C -5.674200 -29.809900 -9.077600
C -5.437800 -28.753300 -12.361200
C -5.253700 -26.411100 -12.893600
H -5.225900 -22.611100 -14.380700
C -4.919700 -31.795400 -9.575300
N -4.819900 -24.605800 -14.526600
N -4.793800 -30.462600 -9.857800
C -4.694100 -23.273000 -14.809100
H -4.387900 -32.457300 -10.003700
C -4.360100 -28.657300 -11.490800
C -4.176000 -26.315100 -12.023200
C -3.939600 -25.258500 -15.306800
H -3.832400 -26.191900 -15.315900
C -3.822200 -29.870300 -10.776900
C -3.740700 -27.429000 -11.326800
H -3.740300 -25.489800 -11.906900
C -3.725200 -23.180400 -15.742700
H -3.559700 -30.542300 -11.441200
H -3.419600 -22.377000 -16.124200
N -3.250200 -24.430800 -16.053800
H -3.020000 -29.615800 -10.274400
H -3.014600 -27.351100 -10.734000
64
Fragment
H -9.002600 -20.467500 -19.746500
H -8.997200 -22.732200 -20.206100
N -8.767000 -17.547300 -14.426700
H -8.597600 -15.493500 -14.356300
H -8.457500 -23.658800 -19.039400
C -8.292000 -16.296800 -14.737800
H -8.277000 -18.606200 -18.573600
C -8.276500 -20.545500 -19.153700
C -8.195000 -22.986800 -19.703600
H -8.184800 -19.308400 -15.164700
C -8.077600 -18.374900 -15.173700
C -7.841200 -19.431600 -18.457300
C -7.657200 -21.773800 -18.989700
H -7.629300 -25.573800 -20.476800
C -7.323100 -16.389500 -15.671400
N -7.223400 -23.579000 -20.622800
N -7.197300 -17.722300 -15.953900
C -7.097500 -24.911800 -20.905200
H -6.791300 -15.727500 -16.099800
C -6.763500 -19.527500 -17.586900
C -6.579400 -21.869700 -18.119300
C -6.343100 -22.926400 -21.402900
H -6.235800 -21.992900 -21.412000
C -6.225700 -18.314500 -16.873000
C -6.144200 -20.755800 -17.422900
H -6.143700 -22.695100 -18.003000
C -6.128600 -25.004500 -21.838800
H -5.963100 -17.642500 -17.537300
H -5.823100 -25.807800 -22.220300
N -5.653700 -23.754000 -22.149900
H -5.423500 -18.569100 -16.370500
H -5.418000 -20.833800 -16.830100
H -6.599200 -27.717300 -13.650400
H -6.593700 -25.452600 -14.110000
N -6.363600 -30.637600 -8.330600
H -6.194200 -32.691400 -8.260200
H -6.054100 -24.526100 -12.943200
C -5.888600 -31.888000 -8.641700
H -5.873500 -29.578600 -12.477500
C -5.873000 -27.639400 -13.057600
C -5.791600 -25.198100 -13.607500
H -5.781400 -28.876500 -9.068600
C -5.674200 -29.809900 -9.077600
C -5.437800 -28.753300 -12.361200
C -5.253700 -26.411100 -12.893600
H -5.225900 -22.611100 -14.380700
C -4.919700 -31.795400 -9.575300
N -4.819900 -24.605800 -14.526600
N -4.793800 -30.462600 -9.857800
C -4.694100 -23.273000 -14.809100
H -4.387900 -32.457300 -10.003700
C -4.360100 -28.657300 -11.490800
C -4.176000 -26.315100 -12.023200
C -3.939600 -25.258500 -15.306800
H -3.832400 -26.191900 -15.315900
C -3.822200 -29.870300 -10.776900
C -3.740700 -27.429000 -11.326800
H -3.740300 -25.489800 -11.906900
C -3.725200 -23.180400 -15.742700
H -3.559700 -30.542300 -11.441200
H -3.419600 -22.377000 -16.124200
N -3.250200 -24.430800 -16.053800
H -3.020000 -29.615800 -10.274400
H -3.014600 -27.351100 -10.734000
