17
Fragment
H -21.719700 -16.214600 -18.384700
N -21.276500 -18.132700 -18.479800
C -21.128500 -16.843600 -18.780400
H -20.553100 -19.934700 -18.850100
C -20.446400 -19.012300 -19.052700
C -20.150000 -16.378800 -19.644200
H -20.078300 -15.450700 -19.838400
C -19.446200 -18.641600 -19.922800
C -19.279800 -17.289400 -20.220400
H -18.879300 -19.296000 -20.313900
H -18.636000 -15.032100 -21.303700
C -18.190200 -16.930200 -21.188400
N -18.109300 -15.651100 -21.557300
O -17.417800 -17.784900 -21.618000
H -17.220300 -15.615600 -23.185600
N -17.143500 -15.180600 -22.482100
H -16.461900 -15.322100 -22.136900
17
Fragment
H -20.150700 -12.834600 -21.504800
N -19.394100 -13.071000 -21.147600
H -19.388100 -12.717900 -20.441800
O -18.762100 -10.406300 -21.350800
N -18.412300 -12.526500 -22.009900
C -18.133200 -11.221700 -22.017200
H -18.008600 -13.035900 -22.323600
H -17.477900 -8.810100 -22.794800
C -16.972700 -10.789700 -22.863900
C -16.833600 -9.429200 -23.120000
H -16.066800 -12.587000 -23.212800
C -15.998200 -11.650300 -23.352600
C -15.760100 -8.990800 -23.846800
H -15.685000 -8.062700 -24.033100
C -14.927900 -11.118500 -24.046300
N -14.809300 -9.818900 -24.306200
H -14.246800 -11.706300 -24.350600
34
Fragment
H -21.719700 -16.214600 -18.384700
N -21.276500 -18.132700 -18.479800
C -21.128500 -16.843600 -18.780400
H -20.553100 -19.934700 -18.850100
C -20.446400 -19.012300 -19.052700
C -20.150000 -16.378800 -19.644200
H -20.078300 -15.450700 -19.838400
C -19.446200 -18.641600 -19.922800
C -19.279800 -17.289400 -20.220400
H -18.879300 -19.296000 -20.313900
H -18.636000 -15.032100 -21.303700
C -18.190200 -16.930200 -21.188400
N -18.109300 -15.651100 -21.557300
O -17.417800 -17.784900 -21.618000
H -17.220300 -15.615600 -23.185600
N -17.143500 -15.180600 -22.482100
H -16.461900 -15.322100 -22.136900
H -20.150700 -12.834600 -21.504800
N -19.394100 -13.071000 -21.147600
H -19.388100 -12.717900 -20.441800
O -18.762100 -10.406300 -21.350800
N -18.412300 -12.526500 -22.009900
C -18.133200 -11.221700 -22.017200
H -18.008600 -13.035900 -22.323600
H -17.477900 -8.810100 -22.794800
C -16.972700 -10.789700 -22.863900
C -16.833600 -9.429200 -23.120000
H -16.066800 -12.587000 -23.212800
C -15.998200 -11.650300 -23.352600
C -15.760100 -8.990800 -23.846800
H -15.685000 -8.062700 -24.033100
C -14.927900 -11.118500 -24.046300
N -14.809300 -9.818900 -24.306200
H -14.246800 -11.706300 -24.350600
