17
Fragment
H -21.719700 -16.214600 -18.384700
N -21.276500 -18.132700 -18.479800
C -21.128500 -16.843600 -18.780400
H -20.553100 -19.934700 -18.850100
C -20.446400 -19.012300 -19.052700
C -20.150000 -16.378800 -19.644200
H -20.078300 -15.450700 -19.838400
C -19.446200 -18.641600 -19.922800
C -19.279800 -17.289400 -20.220400
H -18.879300 -19.296000 -20.313900
H -18.636000 -15.032100 -21.303700
C -18.190200 -16.930200 -21.188400
N -18.109300 -15.651100 -21.557300
O -17.417800 -17.784900 -21.618000
H -17.220300 -15.615600 -23.185600
N -17.143500 -15.180600 -22.482100
H -16.461900 -15.322100 -22.136900
17
Fragment
H -17.563800 -11.111100 -18.745200
N -17.001300 -12.998500 -18.789600
C -16.882700 -11.698800 -19.049500
H -16.125600 -14.754700 -19.062700
C -16.050500 -13.826500 -19.249000
C -15.812400 -11.167100 -19.743200
H -15.743800 -10.230400 -19.883000
C -14.977000 -13.388200 -19.975800
C -14.837900 -12.027700 -20.231900
H -14.332700 -14.007300 -20.301000
H -13.802000 -9.781500 -20.772200
C -13.677400 -11.595700 -21.078600
N -13.398400 -10.290900 -21.085900
O -13.048500 -12.411100 -21.745000
H -12.422500 -10.099500 -22.654000
N -12.416500 -9.746400 -21.948300
H -11.659900 -9.982800 -21.591000
34
Fragment
H -21.719700 -16.214600 -18.384700
N -21.276500 -18.132700 -18.479800
C -21.128500 -16.843600 -18.780400
H -20.553100 -19.934700 -18.850100
C -20.446400 -19.012300 -19.052700
C -20.150000 -16.378800 -19.644200
H -20.078300 -15.450700 -19.838400
C -19.446200 -18.641600 -19.922800
C -19.279800 -17.289400 -20.220400
H -18.879300 -19.296000 -20.313900
H -18.636000 -15.032100 -21.303700
C -18.190200 -16.930200 -21.188400
N -18.109300 -15.651100 -21.557300
O -17.417800 -17.784900 -21.618000
H -17.220300 -15.615600 -23.185600
N -17.143500 -15.180600 -22.482100
H -16.461900 -15.322100 -22.136900
H -17.563800 -11.111100 -18.745200
N -17.001300 -12.998500 -18.789600
C -16.882700 -11.698800 -19.049500
H -16.125600 -14.754700 -19.062700
C -16.050500 -13.826500 -19.249000
C -15.812400 -11.167100 -19.743200
H -15.743800 -10.230400 -19.883000
C -14.977000 -13.388200 -19.975800
C -14.837900 -12.027700 -20.231900
H -14.332700 -14.007300 -20.301000
H -13.802000 -9.781500 -20.772200
C -13.677400 -11.595700 -21.078600
N -13.398400 -10.290900 -21.085900
O -13.048500 -12.411100 -21.745000
H -12.422500 -10.099500 -22.654000
N -12.416500 -9.746400 -21.948300
H -11.659900 -9.982800 -21.591000
