17
Fragment
H -21.719700 -16.214600 -18.384700
N -21.276500 -18.132700 -18.479800
C -21.128500 -16.843600 -18.780400
H -20.553100 -19.934700 -18.850100
C -20.446400 -19.012300 -19.052700
C -20.150000 -16.378800 -19.644200
H -20.078300 -15.450700 -19.838400
C -19.446200 -18.641600 -19.922800
C -19.279800 -17.289400 -20.220400
H -18.879300 -19.296000 -20.313900
H -18.636000 -15.032100 -21.303700
C -18.190200 -16.930200 -21.188400
N -18.109300 -15.651100 -21.557300
O -17.417800 -17.784900 -21.618000
H -17.220300 -15.615600 -23.185600
N -17.143500 -15.180600 -22.482100
H -16.461900 -15.322100 -22.136900
17
Fragment
H -25.846900 -22.168400 -13.313700
O -25.651200 -22.336100 -10.902200
Cl -25.594100 -21.917600 -16.049900
C -25.054200 -21.665400 -13.457100
N -24.790200 -21.480300 -11.045600
C -24.614300 -21.367700 -14.743100
O -24.337700 -20.802900 -10.128400
C -24.302900 -21.207000 -12.402700
C -23.456300 -20.616900 -14.952000
C -23.137600 -20.488500 -12.558600
C -22.967500 -20.233300 -16.327900
O -22.927100 -20.979600 -17.269900
C -22.724300 -20.197400 -13.844700
H -22.633600 -20.200900 -11.805400
O -22.573500 -18.977900 -16.339200
H -22.284500 -18.810800 -16.994100
H -21.924200 -19.701900 -13.976000
34
Fragment
H -21.719700 -16.214600 -18.384700
N -21.276500 -18.132700 -18.479800
C -21.128500 -16.843600 -18.780400
H -20.553100 -19.934700 -18.850100
C -20.446400 -19.012300 -19.052700
C -20.150000 -16.378800 -19.644200
H -20.078300 -15.450700 -19.838400
C -19.446200 -18.641600 -19.922800
C -19.279800 -17.289400 -20.220400
H -18.879300 -19.296000 -20.313900
H -18.636000 -15.032100 -21.303700
C -18.190200 -16.930200 -21.188400
N -18.109300 -15.651100 -21.557300
O -17.417800 -17.784900 -21.618000
H -17.220300 -15.615600 -23.185600
N -17.143500 -15.180600 -22.482100
H -16.461900 -15.322100 -22.136900
H -25.846900 -22.168400 -13.313700
O -25.651200 -22.336100 -10.902200
Cl -25.594100 -21.917600 -16.049900
C -25.054200 -21.665400 -13.457100
N -24.790200 -21.480300 -11.045600
C -24.614300 -21.367700 -14.743100
O -24.337700 -20.802900 -10.128400
C -24.302900 -21.207000 -12.402700
C -23.456300 -20.616900 -14.952000
C -23.137600 -20.488500 -12.558600
C -22.967500 -20.233300 -16.327900
O -22.927100 -20.979600 -17.269900
C -22.724300 -20.197400 -13.844700
H -22.633600 -20.200900 -11.805400
O -22.573500 -18.977900 -16.339200
H -22.284500 -18.810800 -16.994100
H -21.924200 -19.701900 -13.976000
