18
Fragment
O -38.399500 -8.821300 -16.112100
H -38.337100 -11.117000 -15.857200
O -38.089700 -10.725800 -14.987800
C -38.084400 -9.415300 -15.097200
H -37.806100 -6.836200 -14.645600
C -37.699000 -8.693400 -13.846600
C -37.662800 -7.307000 -13.844700
H -37.415500 -10.346400 -12.673600
C -37.415500 -9.386000 -12.673600
C -37.415500 -6.608800 -12.673600
H -37.415500 -5.648500 -12.673600
C -37.168200 -7.307000 -11.502600
C -37.132000 -8.693400 -11.500600
H -37.024900 -6.836200 -10.701600
C -36.746600 -9.415300 -10.250000
O -36.741300 -10.725800 -10.359400
H -36.493900 -11.117000 -9.490000
O -36.431500 -8.821300 -9.235100
18
Fragment
O -40.370700 -5.127300 -11.042700
H -40.308300 -2.831600 -10.787800
O -40.060900 -3.222800 -9.918400
C -40.055600 -4.533300 -10.027800
H -39.777300 -7.112400 -9.576200
C -39.670200 -5.255200 -8.777100
C -39.634000 -6.641600 -8.775200
H -39.386700 -8.300100 -7.604200
C -39.386700 -7.339800 -7.604200
C -39.386700 -4.562600 -7.604200
H -39.386700 -3.602200 -7.604200
C -39.139400 -6.641600 -6.433100
C -39.103200 -5.255200 -6.431200
H -38.996100 -7.112400 -5.632200
C -38.717800 -4.533300 -5.180600
O -38.712500 -3.222800 -5.290000
H -38.465100 -2.831600 -4.420600
O -38.402700 -5.127300 -4.165700
36
Fragment
O -38.399500 -8.821300 -16.112100
H -38.337100 -11.117000 -15.857200
O -38.089700 -10.725800 -14.987800
C -38.084400 -9.415300 -15.097200
H -37.806100 -6.836200 -14.645600
C -37.699000 -8.693400 -13.846600
C -37.662800 -7.307000 -13.844700
H -37.415500 -10.346400 -12.673600
C -37.415500 -9.386000 -12.673600
C -37.415500 -6.608800 -12.673600
H -37.415500 -5.648500 -12.673600
C -37.168200 -7.307000 -11.502600
C -37.132000 -8.693400 -11.500600
H -37.024900 -6.836200 -10.701600
C -36.746600 -9.415300 -10.250000
O -36.741300 -10.725800 -10.359400
H -36.493900 -11.117000 -9.490000
O -36.431500 -8.821300 -9.235100
O -40.370700 -5.127300 -11.042700
H -40.308300 -2.831600 -10.787800
O -40.060900 -3.222800 -9.918400
C -40.055600 -4.533300 -10.027800
H -39.777300 -7.112400 -9.576200
C -39.670200 -5.255200 -8.777100
C -39.634000 -6.641600 -8.775200
H -39.386700 -8.300100 -7.604200
C -39.386700 -7.339800 -7.604200
C -39.386700 -4.562600 -7.604200
H -39.386700 -3.602200 -7.604200
C -39.139400 -6.641600 -6.433100
C -39.103200 -5.255200 -6.431200
H -38.996100 -7.112400 -5.632200
C -38.717800 -4.533300 -5.180600
O -38.712500 -3.222800 -5.290000
H -38.465100 -2.831600 -4.420600
O -38.402700 -5.127300 -4.165700
