32
Fragment
H -9.002600 -20.467500 -19.746500
H -8.997200 -22.732200 -20.206100
N -8.767000 -17.547300 -14.426700
H -8.597600 -15.493500 -14.356300
H -8.457500 -23.658800 -19.039400
C -8.292000 -16.296800 -14.737800
H -8.277000 -18.606200 -18.573600
C -8.276500 -20.545500 -19.153700
C -8.195000 -22.986800 -19.703600
H -8.184800 -19.308400 -15.164700
C -8.077600 -18.374900 -15.173700
C -7.841200 -19.431600 -18.457300
C -7.657200 -21.773800 -18.989700
H -7.629300 -25.573800 -20.476800
C -7.323100 -16.389500 -15.671400
N -7.223400 -23.579000 -20.622800
N -7.197300 -17.722300 -15.953900
C -7.097500 -24.911800 -20.905200
H -6.791300 -15.727500 -16.099800
C -6.763500 -19.527500 -17.586900
C -6.579400 -21.869700 -18.119300
C -6.343100 -22.926400 -21.402900
H -6.235800 -21.992900 -21.412000
C -6.225700 -18.314500 -16.873000
C -6.144200 -20.755800 -17.422900
H -6.143700 -22.695100 -18.003000
C -6.128600 -25.004500 -21.838800
H -5.963100 -17.642500 -17.537300
H -5.823100 -25.807800 -22.220300
N -5.653700 -23.754000 -22.149900
H -5.423500 -18.569100 -16.370500
H -5.418000 -20.833800 -16.830100
14
Fragment
H -14.827300 -23.252600 -10.927900
O -14.264200 -21.034900 -10.542500
O -14.150700 -23.004500 -11.562800
C -13.770500 -21.761200 -11.376300
H -12.964300 -21.446400 -13.226100
H -12.928600 -19.331800 -12.209300
C -12.656300 -21.355900 -12.300200
C -12.175000 -19.945400 -12.084200
H -11.902700 -21.969500 -12.175100
H -11.867000 -19.854900 -11.158300
C -11.060800 -19.540100 -13.008100
O -10.680600 -18.296800 -12.821600
O -10.567100 -20.266400 -13.841900
H -10.004000 -18.048700 -13.456500
46
Fragment
H -9.002600 -20.467500 -19.746500
H -8.997200 -22.732200 -20.206100
N -8.767000 -17.547300 -14.426700
H -8.597600 -15.493500 -14.356300
H -8.457500 -23.658800 -19.039400
C -8.292000 -16.296800 -14.737800
H -8.277000 -18.606200 -18.573600
C -8.276500 -20.545500 -19.153700
C -8.195000 -22.986800 -19.703600
H -8.184800 -19.308400 -15.164700
C -8.077600 -18.374900 -15.173700
C -7.841200 -19.431600 -18.457300
C -7.657200 -21.773800 -18.989700
H -7.629300 -25.573800 -20.476800
C -7.323100 -16.389500 -15.671400
N -7.223400 -23.579000 -20.622800
N -7.197300 -17.722300 -15.953900
C -7.097500 -24.911800 -20.905200
H -6.791300 -15.727500 -16.099800
C -6.763500 -19.527500 -17.586900
C -6.579400 -21.869700 -18.119300
C -6.343100 -22.926400 -21.402900
H -6.235800 -21.992900 -21.412000
C -6.225700 -18.314500 -16.873000
C -6.144200 -20.755800 -17.422900
H -6.143700 -22.695100 -18.003000
C -6.128600 -25.004500 -21.838800
H -5.963100 -17.642500 -17.537300
H -5.823100 -25.807800 -22.220300
N -5.653700 -23.754000 -22.149900
H -5.423500 -18.569100 -16.370500
H -5.418000 -20.833800 -16.830100
H -14.827300 -23.252600 -10.927900
O -14.264200 -21.034900 -10.542500
O -14.150700 -23.004500 -11.562800
C -13.770500 -21.761200 -11.376300
H -12.964300 -21.446400 -13.226100
H -12.928600 -19.331800 -12.209300
C -12.656300 -21.355900 -12.300200
C -12.175000 -19.945400 -12.084200
H -11.902700 -21.969500 -12.175100
H -11.867000 -19.854900 -11.158300
C -11.060800 -19.540100 -13.008100
O -10.680600 -18.296800 -12.821600
O -10.567100 -20.266400 -13.841900
H -10.004000 -18.048700 -13.456500
