18
Fragment
H -15.982000 -22.969500 -14.241200
H -15.875300 -21.356100 -14.501700
N -15.506300 -22.159600 -14.526600
O -15.403200 -24.795600 -14.423900
C -14.262200 -22.313700 -15.008200
N -14.211400 -24.791800 -14.727400
H -13.927600 -20.336300 -15.345100
C -13.595200 -23.560500 -15.135000
O -13.543400 -25.822300 -14.707400
C -13.535100 -21.175800 -15.428900
C -12.311300 -23.650700 -15.657000
C -12.284500 -21.264400 -15.950100
H -11.890700 -24.477000 -15.723800
H -11.835900 -20.497700 -16.226400
C -11.673500 -22.522000 -16.068900
N -10.343300 -22.636400 -16.633500
O -9.822000 -21.638000 -17.095300
O -9.788300 -23.733400 -16.627600
22
Fragment
H -18.175500 -22.947400 -17.321100
C -17.274000 -22.934700 -17.651100
H -17.247500 -23.330400 -18.525900
O -16.812300 -21.584200 -17.725300
H -16.708300 -23.433800 -17.057100
H -16.385100 -17.272100 -17.139800
O -16.084000 -19.136000 -17.692300
C -15.672300 -17.779500 -17.536100
C -15.570500 -21.356100 -18.212400
H -15.455300 -17.410000 -18.395100
C -15.168600 -19.998900 -18.201400
H -14.971300 -23.213400 -18.704900
H -14.899100 -17.742600 -16.967600
C -14.715100 -22.318900 -18.702300
C -13.929100 -19.648900 -18.679300
H -13.658600 -18.758700 -18.665900
C -13.473800 -21.948900 -19.190100
C -13.074500 -20.632700 -19.186300
H -12.900900 -22.600000 -19.525300
C -11.742700 -20.280200 -19.687300
H -11.247200 -20.963200 -20.078400
O -11.229000 -19.196600 -19.641500
40
Fragment
H -15.982000 -22.969500 -14.241200
H -15.875300 -21.356100 -14.501700
N -15.506300 -22.159600 -14.526600
O -15.403200 -24.795600 -14.423900
C -14.262200 -22.313700 -15.008200
N -14.211400 -24.791800 -14.727400
H -13.927600 -20.336300 -15.345100
C -13.595200 -23.560500 -15.135000
O -13.543400 -25.822300 -14.707400
C -13.535100 -21.175800 -15.428900
C -12.311300 -23.650700 -15.657000
C -12.284500 -21.264400 -15.950100
H -11.890700 -24.477000 -15.723800
H -11.835900 -20.497700 -16.226400
C -11.673500 -22.522000 -16.068900
N -10.343300 -22.636400 -16.633500
O -9.822000 -21.638000 -17.095300
O -9.788300 -23.733400 -16.627600
H -18.175500 -22.947400 -17.321100
C -17.274000 -22.934700 -17.651100
H -17.247500 -23.330400 -18.525900
O -16.812300 -21.584200 -17.725300
H -16.708300 -23.433800 -17.057100
H -16.385100 -17.272100 -17.139800
O -16.084000 -19.136000 -17.692300
C -15.672300 -17.779500 -17.536100
C -15.570500 -21.356100 -18.212400
H -15.455300 -17.410000 -18.395100
C -15.168600 -19.998900 -18.201400
H -14.971300 -23.213400 -18.704900
H -14.899100 -17.742600 -16.967600
C -14.715100 -22.318900 -18.702300
C -13.929100 -19.648900 -18.679300
H -13.658600 -18.758700 -18.665900
C -13.473800 -21.948900 -19.190100
C -13.074500 -20.632700 -19.186300
H -12.900900 -22.600000 -19.525300
C -11.742700 -20.280200 -19.687300
H -11.247200 -20.963200 -20.078400
O -11.229000 -19.196600 -19.641500
