18
Fragment
H -15.982000 -22.969500 -14.241200
H -15.875300 -21.356100 -14.501700
N -15.506300 -22.159600 -14.526600
O -15.403200 -24.795600 -14.423900
C -14.262200 -22.313700 -15.008200
N -14.211400 -24.791800 -14.727400
H -13.927600 -20.336300 -15.345100
C -13.595200 -23.560500 -15.135000
O -13.543400 -25.822300 -14.707400
C -13.535100 -21.175800 -15.428900
C -12.311300 -23.650700 -15.657000
C -12.284500 -21.264400 -15.950100
H -11.890700 -24.477000 -15.723800
H -11.835900 -20.497700 -16.226400
C -11.673500 -22.522000 -16.068900
N -10.343300 -22.636400 -16.633500
O -9.822000 -21.638000 -17.095300
O -9.788300 -23.733400 -16.627600
18
Fragment
H -8.830200 -20.136800 -19.978600
H -8.723500 -21.750200 -20.239100
N -8.354500 -20.946700 -20.264000
O -8.251400 -18.310700 -20.161300
C -7.110400 -20.792700 -20.745600
N -7.059600 -18.314500 -20.464800
H -6.775800 -22.770000 -21.082500
C -6.443400 -19.545900 -20.872400
O -6.391600 -17.284000 -20.444700
C -6.383300 -21.930500 -21.166200
C -5.159500 -19.455600 -21.394300
C -5.132700 -21.842000 -21.687400
H -4.738900 -18.629300 -21.461100
H -4.684100 -22.608700 -21.963700
C -4.521800 -20.584400 -21.806300
N -3.191500 -20.470000 -22.370800
O -2.670200 -21.468300 -22.832700
O -2.636500 -19.373000 -22.365000
36
Fragment
H -15.982000 -22.969500 -14.241200
H -15.875300 -21.356100 -14.501700
N -15.506300 -22.159600 -14.526600
O -15.403200 -24.795600 -14.423900
C -14.262200 -22.313700 -15.008200
N -14.211400 -24.791800 -14.727400
H -13.927600 -20.336300 -15.345100
C -13.595200 -23.560500 -15.135000
O -13.543400 -25.822300 -14.707400
C -13.535100 -21.175800 -15.428900
C -12.311300 -23.650700 -15.657000
C -12.284500 -21.264400 -15.950100
H -11.890700 -24.477000 -15.723800
H -11.835900 -20.497700 -16.226400
C -11.673500 -22.522000 -16.068900
N -10.343300 -22.636400 -16.633500
O -9.822000 -21.638000 -17.095300
O -9.788300 -23.733400 -16.627600
H -8.830200 -20.136800 -19.978600
H -8.723500 -21.750200 -20.239100
N -8.354500 -20.946700 -20.264000
O -8.251400 -18.310700 -20.161300
C -7.110400 -20.792700 -20.745600
N -7.059600 -18.314500 -20.464800
H -6.775800 -22.770000 -21.082500
C -6.443400 -19.545900 -20.872400
O -6.391600 -17.284000 -20.444700
C -6.383300 -21.930500 -21.166200
C -5.159500 -19.455600 -21.394300
C -5.132700 -21.842000 -21.687400
H -4.738900 -18.629300 -21.461100
H -4.684100 -22.608700 -21.963700
C -4.521800 -20.584400 -21.806300
N -3.191500 -20.470000 -22.370800
O -2.670200 -21.468300 -22.832700
O -2.636500 -19.373000 -22.365000
