18
Fragment
H -15.982000 -22.969500 -14.241200
H -15.875300 -21.356100 -14.501700
N -15.506300 -22.159600 -14.526600
O -15.403200 -24.795600 -14.423900
C -14.262200 -22.313700 -15.008200
N -14.211400 -24.791800 -14.727400
H -13.927600 -20.336300 -15.345100
C -13.595200 -23.560500 -15.135000
O -13.543400 -25.822300 -14.707400
C -13.535100 -21.175800 -15.428900
C -12.311300 -23.650700 -15.657000
C -12.284500 -21.264400 -15.950100
H -11.890700 -24.477000 -15.723800
H -11.835900 -20.497700 -16.226400
C -11.673500 -22.522000 -16.068900
N -10.343300 -22.636400 -16.633500
O -9.822000 -21.638000 -17.095300
O -9.788300 -23.733400 -16.627600
18
Fragment
O -14.033100 -25.531000 -17.796500
O -13.999400 -27.626400 -17.328700
N -13.478100 -26.628000 -17.790600
C -12.147800 -26.742400 -18.355200
H -11.985500 -28.766700 -18.197700
H -11.930700 -24.787400 -18.700300
C -11.536900 -28.000000 -18.474000
C -11.510100 -25.613700 -18.767100
C -10.286300 -28.088600 -18.995200
O -10.278000 -23.442100 -19.716700
C -10.226100 -25.703900 -19.289100
H -9.893800 -28.928100 -19.079000
N -9.610000 -24.472600 -19.696700
C -9.559200 -26.950700 -19.415900
O -8.418200 -24.468800 -20.000200
N -8.315100 -27.104800 -19.897500
H -7.946100 -27.908300 -19.922400
H -7.839400 -26.294900 -20.182800
36
Fragment
H -15.982000 -22.969500 -14.241200
H -15.875300 -21.356100 -14.501700
N -15.506300 -22.159600 -14.526600
O -15.403200 -24.795600 -14.423900
C -14.262200 -22.313700 -15.008200
N -14.211400 -24.791800 -14.727400
H -13.927600 -20.336300 -15.345100
C -13.595200 -23.560500 -15.135000
O -13.543400 -25.822300 -14.707400
C -13.535100 -21.175800 -15.428900
C -12.311300 -23.650700 -15.657000
C -12.284500 -21.264400 -15.950100
H -11.890700 -24.477000 -15.723800
H -11.835900 -20.497700 -16.226400
C -11.673500 -22.522000 -16.068900
N -10.343300 -22.636400 -16.633500
O -9.822000 -21.638000 -17.095300
O -9.788300 -23.733400 -16.627600
O -14.033100 -25.531000 -17.796500
O -13.999400 -27.626400 -17.328700
N -13.478100 -26.628000 -17.790600
C -12.147800 -26.742400 -18.355200
H -11.985500 -28.766700 -18.197700
H -11.930700 -24.787400 -18.700300
C -11.536900 -28.000000 -18.474000
C -11.510100 -25.613700 -18.767100
C -10.286300 -28.088600 -18.995200
O -10.278000 -23.442100 -19.716700
C -10.226100 -25.703900 -19.289100
H -9.893800 -28.928100 -19.079000
N -9.610000 -24.472600 -19.696700
C -9.559200 -26.950700 -19.415900
O -8.418200 -24.468800 -20.000200
N -8.315100 -27.104800 -19.897500
H -7.946100 -27.908300 -19.922400
H -7.839400 -26.294900 -20.182800
