18
Fragment
H -15.982000 -22.969500 -14.241200
H -15.875300 -21.356100 -14.501700
N -15.506300 -22.159600 -14.526600
O -15.403200 -24.795600 -14.423900
C -14.262200 -22.313700 -15.008200
N -14.211400 -24.791800 -14.727400
H -13.927600 -20.336300 -15.345100
C -13.595200 -23.560500 -15.135000
O -13.543400 -25.822300 -14.707400
C -13.535100 -21.175800 -15.428900
C -12.311300 -23.650700 -15.657000
C -12.284500 -21.264400 -15.950100
H -11.890700 -24.477000 -15.723800
H -11.835900 -20.497700 -16.226400
C -11.673500 -22.522000 -16.068900
N -10.343300 -22.636400 -16.633500
O -9.822000 -21.638000 -17.095300
O -9.788300 -23.733400 -16.627600
18
Fragment
O -21.184900 -17.575300 -12.059100
O -21.151200 -15.480000 -11.591400
N -20.629800 -16.478300 -12.053300
C -19.299600 -16.363900 -12.617800
H -19.137300 -14.339600 -12.460400
H -19.082500 -18.319000 -12.963000
C -18.688600 -15.106300 -12.736700
C -18.661900 -17.492700 -13.029700
C -17.438000 -15.017800 -13.257900
O -17.429700 -19.664300 -13.979400
C -17.377900 -17.402400 -13.551700
H -17.045600 -14.178300 -13.341600
N -16.761800 -18.633800 -13.959300
C -16.710900 -16.155600 -13.678500
O -15.570000 -18.637600 -14.262800
N -15.466900 -16.001600 -14.160100
H -15.097800 -15.198100 -14.185000
H -14.991100 -16.811500 -14.445500
36
Fragment
H -15.982000 -22.969500 -14.241200
H -15.875300 -21.356100 -14.501700
N -15.506300 -22.159600 -14.526600
O -15.403200 -24.795600 -14.423900
C -14.262200 -22.313700 -15.008200
N -14.211400 -24.791800 -14.727400
H -13.927600 -20.336300 -15.345100
C -13.595200 -23.560500 -15.135000
O -13.543400 -25.822300 -14.707400
C -13.535100 -21.175800 -15.428900
C -12.311300 -23.650700 -15.657000
C -12.284500 -21.264400 -15.950100
H -11.890700 -24.477000 -15.723800
H -11.835900 -20.497700 -16.226400
C -11.673500 -22.522000 -16.068900
N -10.343300 -22.636400 -16.633500
O -9.822000 -21.638000 -17.095300
O -9.788300 -23.733400 -16.627600
O -21.184900 -17.575300 -12.059100
O -21.151200 -15.480000 -11.591400
N -20.629800 -16.478300 -12.053300
C -19.299600 -16.363900 -12.617800
H -19.137300 -14.339600 -12.460400
H -19.082500 -18.319000 -12.963000
C -18.688600 -15.106300 -12.736700
C -18.661900 -17.492700 -13.029700
C -17.438000 -15.017800 -13.257900
O -17.429700 -19.664300 -13.979400
C -17.377900 -17.402400 -13.551700
H -17.045600 -14.178300 -13.341600
N -16.761800 -18.633800 -13.959300
C -16.710900 -16.155600 -13.678500
O -15.570000 -18.637600 -14.262800
N -15.466900 -16.001600 -14.160100
H -15.097800 -15.198100 -14.185000
H -14.991100 -16.811500 -14.445500
