36
Fragment
H -13.292700 -25.820800 -13.085900
H -13.133300 -26.200000 -10.727200
H -12.610500 -24.733100 -11.103100
C -12.427900 -26.077500 -12.678600
C -12.421800 -25.699800 -11.198900
H -12.318400 -27.056300 -12.774400
H -11.457400 -24.382800 -13.386600
C -11.285400 -25.357800 -13.399000
H -11.260900 -25.650500 -14.344200
H -11.248300 -24.725000 -9.154100
C -11.077000 -26.018900 -10.571800
N -11.062700 -25.574500 -9.176000
H -10.923200 -27.006500 -10.605700
H -10.115400 -27.605800 -12.781000
N -9.993600 -25.328300 -11.317300
C -9.935000 -25.634900 -12.755300
N -9.770300 -25.759400 -8.543500
H -9.648600 -26.704500 -8.460100
N -9.491000 -27.005400 -13.070800
H -9.274800 -25.006200 -13.166900
H -8.926700 -27.633100 -10.501600
H -8.826200 -24.188400 -9.372200
C -8.686100 -25.178400 -9.363800
N -8.673900 -25.617500 -10.759500
C -8.277200 -27.032500 -10.967400
N -8.255800 -27.350000 -12.391900
H -7.637500 -26.857100 -12.789300
H -7.444300 -27.480500 -8.391500
H -7.398400 -25.229500 -7.744600
C -7.334000 -25.427300 -8.712900
C -6.890000 -27.236900 -10.383400
C -6.858200 -26.867100 -8.900500
H -6.666400 -24.810200 -9.105400
H -6.623400 -28.184200 -10.492500
H -6.239400 -26.677100 -10.876700
H -5.936000 -26.961500 -8.553500
36
Fragment
H -11.096700 -21.238600 -16.232000
H -10.793300 -21.523000 -13.908800
H -10.409300 -20.015900 -14.293000
H -10.366300 -23.389900 -15.680100
C -10.174600 -21.333000 -15.885000
C -10.142700 -20.963200 -14.402100
C -9.698700 -22.772800 -16.072600
H -9.634300 -22.970600 -17.040800
H -9.588500 -20.719600 -16.393900
H -9.395200 -21.343000 -11.996200
N -8.776900 -20.850100 -12.393600
C -8.755600 -21.167600 -13.818100
N -8.358800 -22.582600 -14.025900
C -8.346600 -23.021700 -15.421700
H -8.206600 -24.011700 -15.413300
H -8.106100 -20.567000 -14.283900
H -7.757900 -23.193900 -11.618600
N -7.541700 -21.194700 -11.714700
H -7.384200 -21.495600 -16.325400
N -7.262500 -22.440700 -16.242000
C -7.097700 -22.565200 -12.030200
N -7.039200 -22.871800 -13.468200
H -6.917400 -20.594300 -12.004400
H -6.109600 -21.193600 -14.179800
N -5.970000 -22.625600 -15.609500
C -5.955700 -22.181200 -14.213600
H -5.784500 -23.475100 -15.631400
H -5.771800 -22.549600 -10.441300
C -5.747300 -22.842300 -11.386500
H -5.575400 -23.817300 -11.398800
H -4.714300 -21.143800 -12.011000
C -4.611000 -22.500300 -13.586600
C -4.604800 -22.122600 -12.106900
H -4.422300 -23.467000 -13.682400
H -3.899400 -22.000100 -14.058300
H -3.740000 -22.379300 -11.699600
72
Fragment
H -13.292700 -25.820800 -13.085900
H -13.133300 -26.200000 -10.727200
H -12.610500 -24.733100 -11.103100
C -12.427900 -26.077500 -12.678600
C -12.421800 -25.699800 -11.198900
H -12.318400 -27.056300 -12.774400
H -11.457400 -24.382800 -13.386600
C -11.285400 -25.357800 -13.399000
H -11.260900 -25.650500 -14.344200
H -11.248300 -24.725000 -9.154100
C -11.077000 -26.018900 -10.571800
N -11.062700 -25.574500 -9.176000
H -10.923200 -27.006500 -10.605700
H -10.115400 -27.605800 -12.781000
N -9.993600 -25.328300 -11.317300
C -9.935000 -25.634900 -12.755300
N -9.770300 -25.759400 -8.543500
H -9.648600 -26.704500 -8.460100
N -9.491000 -27.005400 -13.070800
H -9.274800 -25.006200 -13.166900
H -8.926700 -27.633100 -10.501600
H -8.826200 -24.188400 -9.372200
C -8.686100 -25.178400 -9.363800
N -8.673900 -25.617500 -10.759500
C -8.277200 -27.032500 -10.967400
N -8.255800 -27.350000 -12.391900
H -7.637500 -26.857100 -12.789300
H -7.444300 -27.480500 -8.391500
H -7.398400 -25.229500 -7.744600
C -7.334000 -25.427300 -8.712900
C -6.890000 -27.236900 -10.383400
C -6.858200 -26.867100 -8.900500
H -6.666400 -24.810200 -9.105400
H -6.623400 -28.184200 -10.492500
H -6.239400 -26.677100 -10.876700
H -5.936000 -26.961500 -8.553500
H -11.096700 -21.238600 -16.232000
H -10.793300 -21.523000 -13.908800
H -10.409300 -20.015900 -14.293000
H -10.366300 -23.389900 -15.680100
C -10.174600 -21.333000 -15.885000
C -10.142700 -20.963200 -14.402100
C -9.698700 -22.772800 -16.072600
H -9.634300 -22.970600 -17.040800
H -9.588500 -20.719600 -16.393900
H -9.395200 -21.343000 -11.996200
N -8.776900 -20.850100 -12.393600
C -8.755600 -21.167600 -13.818100
N -8.358800 -22.582600 -14.025900
C -8.346600 -23.021700 -15.421700
H -8.206600 -24.011700 -15.413300
H -8.106100 -20.567000 -14.283900
H -7.757900 -23.193900 -11.618600
N -7.541700 -21.194700 -11.714700
H -7.384200 -21.495600 -16.325400
N -7.262500 -22.440700 -16.242000
C -7.097700 -22.565200 -12.030200
N -7.039200 -22.871800 -13.468200
H -6.917400 -20.594300 -12.004400
H -6.109600 -21.193600 -14.179800
N -5.970000 -22.625600 -15.609500
C -5.955700 -22.181200 -14.213600
H -5.784500 -23.475100 -15.631400
H -5.771800 -22.549600 -10.441300
C -5.747300 -22.842300 -11.386500
H -5.575400 -23.817300 -11.398800
H -4.714300 -21.143800 -12.011000
C -4.611000 -22.500300 -13.586600
C -4.604800 -22.122600 -12.106900
H -4.422300 -23.467000 -13.682400
H -3.899400 -22.000100 -14.058300
H -3.740000 -22.379300 -11.699600
