36
Fragment
H -13.292700 -25.820800 -13.085900
H -13.133300 -26.200000 -10.727200
H -12.610500 -24.733100 -11.103100
C -12.427900 -26.077500 -12.678600
C -12.421800 -25.699800 -11.198900
H -12.318400 -27.056300 -12.774400
H -11.457400 -24.382800 -13.386600
C -11.285400 -25.357800 -13.399000
H -11.260900 -25.650500 -14.344200
H -11.248300 -24.725000 -9.154100
C -11.077000 -26.018900 -10.571800
N -11.062700 -25.574500 -9.176000
H -10.923200 -27.006500 -10.605700
H -10.115400 -27.605800 -12.781000
N -9.993600 -25.328300 -11.317300
C -9.935000 -25.634900 -12.755300
N -9.770300 -25.759400 -8.543500
H -9.648600 -26.704500 -8.460100
N -9.491000 -27.005400 -13.070800
H -9.274800 -25.006200 -13.166900
H -8.926700 -27.633100 -10.501600
H -8.826200 -24.188400 -9.372200
C -8.686100 -25.178400 -9.363800
N -8.673900 -25.617500 -10.759500
C -8.277200 -27.032500 -10.967400
N -8.255800 -27.350000 -12.391900
H -7.637500 -26.857100 -12.789300
H -7.444300 -27.480500 -8.391500
H -7.398400 -25.229500 -7.744600
C -7.334000 -25.427300 -8.712900
C -6.890000 -27.236900 -10.383400
C -6.858200 -26.867100 -8.900500
H -6.666400 -24.810200 -9.105400
H -6.623400 -28.184200 -10.492500
H -6.239400 -26.677100 -10.876700
H -5.936000 -26.961500 -8.553500
36
Fragment
H -20.889200 -30.412700 -17.216800
H -20.729800 -30.033500 -14.858100
H -20.207000 -31.500400 -15.234000
C -20.024400 -30.155900 -16.809500
C -20.018300 -30.533600 -15.329800
H -19.914900 -29.177100 -16.905400
H -19.053900 -31.850600 -17.517600
C -18.881900 -30.875700 -17.529900
H -18.857400 -30.583000 -18.475100
H -18.844800 -31.508400 -13.285000
C -18.673500 -30.214600 -14.702700
N -18.659200 -30.659000 -13.306900
H -18.519700 -29.226900 -14.736600
H -17.711900 -28.627600 -16.912000
N -17.590000 -30.905100 -15.448200
C -17.531500 -30.598500 -16.886200
N -17.366700 -30.474000 -12.674400
H -17.245000 -29.529000 -12.591000
N -17.087500 -29.228100 -17.201700
H -16.871300 -31.227200 -17.297800
H -16.523200 -28.600300 -14.632500
H -16.422700 -32.045000 -13.503100
C -16.282600 -31.055000 -13.494700
N -16.270400 -30.615900 -14.890500
C -15.873700 -29.200900 -15.098300
N -15.852300 -28.883400 -16.522800
H -15.234000 -29.376400 -16.920200
H -15.040800 -28.753000 -12.522500
H -14.994900 -31.003900 -11.875600
C -14.930500 -30.806100 -12.843800
C -14.486500 -28.996500 -14.514300
C -14.454700 -29.366400 -13.031400
H -14.262900 -31.423300 -13.236300
H -14.219900 -28.049200 -14.623400
H -13.835900 -29.556300 -15.007600
H -13.532500 -29.271900 -12.684400
72
Fragment
H -13.292700 -25.820800 -13.085900
H -13.133300 -26.200000 -10.727200
H -12.610500 -24.733100 -11.103100
C -12.427900 -26.077500 -12.678600
C -12.421800 -25.699800 -11.198900
H -12.318400 -27.056300 -12.774400
H -11.457400 -24.382800 -13.386600
C -11.285400 -25.357800 -13.399000
H -11.260900 -25.650500 -14.344200
H -11.248300 -24.725000 -9.154100
C -11.077000 -26.018900 -10.571800
N -11.062700 -25.574500 -9.176000
H -10.923200 -27.006500 -10.605700
H -10.115400 -27.605800 -12.781000
N -9.993600 -25.328300 -11.317300
C -9.935000 -25.634900 -12.755300
N -9.770300 -25.759400 -8.543500
H -9.648600 -26.704500 -8.460100
N -9.491000 -27.005400 -13.070800
H -9.274800 -25.006200 -13.166900
H -8.926700 -27.633100 -10.501600
H -8.826200 -24.188400 -9.372200
C -8.686100 -25.178400 -9.363800
N -8.673900 -25.617500 -10.759500
C -8.277200 -27.032500 -10.967400
N -8.255800 -27.350000 -12.391900
H -7.637500 -26.857100 -12.789300
H -7.444300 -27.480500 -8.391500
H -7.398400 -25.229500 -7.744600
C -7.334000 -25.427300 -8.712900
C -6.890000 -27.236900 -10.383400
C -6.858200 -26.867100 -8.900500
H -6.666400 -24.810200 -9.105400
H -6.623400 -28.184200 -10.492500
H -6.239400 -26.677100 -10.876700
H -5.936000 -26.961500 -8.553500
H -20.889200 -30.412700 -17.216800
H -20.729800 -30.033500 -14.858100
H -20.207000 -31.500400 -15.234000
C -20.024400 -30.155900 -16.809500
C -20.018300 -30.533600 -15.329800
H -19.914900 -29.177100 -16.905400
H -19.053900 -31.850600 -17.517600
C -18.881900 -30.875700 -17.529900
H -18.857400 -30.583000 -18.475100
H -18.844800 -31.508400 -13.285000
C -18.673500 -30.214600 -14.702700
N -18.659200 -30.659000 -13.306900
H -18.519700 -29.226900 -14.736600
H -17.711900 -28.627600 -16.912000
N -17.590000 -30.905100 -15.448200
C -17.531500 -30.598500 -16.886200
N -17.366700 -30.474000 -12.674400
H -17.245000 -29.529000 -12.591000
N -17.087500 -29.228100 -17.201700
H -16.871300 -31.227200 -17.297800
H -16.523200 -28.600300 -14.632500
H -16.422700 -32.045000 -13.503100
C -16.282600 -31.055000 -13.494700
N -16.270400 -30.615900 -14.890500
C -15.873700 -29.200900 -15.098300
N -15.852300 -28.883400 -16.522800
H -15.234000 -29.376400 -16.920200
H -15.040800 -28.753000 -12.522500
H -14.994900 -31.003900 -11.875600
C -14.930500 -30.806100 -12.843800
C -14.486500 -28.996500 -14.514300
C -14.454700 -29.366400 -13.031400
H -14.262900 -31.423300 -13.236300
H -14.219900 -28.049200 -14.623400
H -13.835900 -29.556300 -15.007600
H -13.532500 -29.271900 -12.684400
