36
Fragment
H -13.292700 -25.820800 -13.085900
H -13.133300 -26.200000 -10.727200
H -12.610500 -24.733100 -11.103100
C -12.427900 -26.077500 -12.678600
C -12.421800 -25.699800 -11.198900
H -12.318400 -27.056300 -12.774400
H -11.457400 -24.382800 -13.386600
C -11.285400 -25.357800 -13.399000
H -11.260900 -25.650500 -14.344200
H -11.248300 -24.725000 -9.154100
C -11.077000 -26.018900 -10.571800
N -11.062700 -25.574500 -9.176000
H -10.923200 -27.006500 -10.605700
H -10.115400 -27.605800 -12.781000
N -9.993600 -25.328300 -11.317300
C -9.935000 -25.634900 -12.755300
N -9.770300 -25.759400 -8.543500
H -9.648600 -26.704500 -8.460100
N -9.491000 -27.005400 -13.070800
H -9.274800 -25.006200 -13.166900
H -8.926700 -27.633100 -10.501600
H -8.826200 -24.188400 -9.372200
C -8.686100 -25.178400 -9.363800
N -8.673900 -25.617500 -10.759500
C -8.277200 -27.032500 -10.967400
N -8.255800 -27.350000 -12.391900
H -7.637500 -26.857100 -12.789300
H -7.444300 -27.480500 -8.391500
H -7.398400 -25.229500 -7.744600
C -7.334000 -25.427300 -8.712900
C -6.890000 -27.236900 -10.383400
C -6.858200 -26.867100 -8.900500
H -6.666400 -24.810200 -9.105400
H -6.623400 -28.184200 -10.492500
H -6.239400 -26.677100 -10.876700
H -5.936000 -26.961500 -8.553500
36
Fragment
H -3.777300 -25.820800 -13.085900
H -3.617900 -26.200000 -10.727200
H -3.095100 -24.733100 -11.103100
C -2.912500 -26.077500 -12.678600
C -2.906400 -25.699800 -11.198900
H -2.803000 -27.056300 -12.774400
H -1.942000 -24.382800 -13.386600
C -1.770000 -25.357800 -13.399000
H -1.745500 -25.650500 -14.344200
H -1.732900 -24.725000 -9.154100
C -1.561600 -26.018900 -10.571800
N -1.547300 -25.574500 -9.176000
H -1.407800 -27.006500 -10.605700
H -0.600000 -27.605800 -12.781000
N -0.478200 -25.328300 -11.317300
C -0.419600 -25.634900 -12.755300
N -0.254900 -25.759400 -8.543500
H -0.133200 -26.704500 -8.460100
N 0.024400 -27.005400 -13.070800
H 0.240600 -25.006200 -13.166900
H 0.588700 -27.633100 -10.501600
H 0.689200 -24.188400 -9.372200
C 0.829300 -25.178400 -9.363800
N 0.841500 -25.617500 -10.759500
C 1.238200 -27.032500 -10.967400
N 1.259600 -27.350000 -12.391900
H 1.877900 -26.857100 -12.789300
H 2.071100 -27.480500 -8.391500
H 2.117000 -25.229500 -7.744600
C 2.181400 -25.427300 -8.712900
C 2.625400 -27.236900 -10.383400
C 2.657200 -26.867100 -8.900500
H 2.849000 -24.810200 -9.105400
H 2.892000 -28.184200 -10.492500
H 3.276000 -26.677100 -10.876700
H 3.579400 -26.961500 -8.553500
72
Fragment
H -13.292700 -25.820800 -13.085900
H -13.133300 -26.200000 -10.727200
H -12.610500 -24.733100 -11.103100
C -12.427900 -26.077500 -12.678600
C -12.421800 -25.699800 -11.198900
H -12.318400 -27.056300 -12.774400
H -11.457400 -24.382800 -13.386600
C -11.285400 -25.357800 -13.399000
H -11.260900 -25.650500 -14.344200
H -11.248300 -24.725000 -9.154100
C -11.077000 -26.018900 -10.571800
N -11.062700 -25.574500 -9.176000
H -10.923200 -27.006500 -10.605700
H -10.115400 -27.605800 -12.781000
N -9.993600 -25.328300 -11.317300
C -9.935000 -25.634900 -12.755300
N -9.770300 -25.759400 -8.543500
H -9.648600 -26.704500 -8.460100
N -9.491000 -27.005400 -13.070800
H -9.274800 -25.006200 -13.166900
H -8.926700 -27.633100 -10.501600
H -8.826200 -24.188400 -9.372200
C -8.686100 -25.178400 -9.363800
N -8.673900 -25.617500 -10.759500
C -8.277200 -27.032500 -10.967400
N -8.255800 -27.350000 -12.391900
H -7.637500 -26.857100 -12.789300
H -7.444300 -27.480500 -8.391500
H -7.398400 -25.229500 -7.744600
C -7.334000 -25.427300 -8.712900
C -6.890000 -27.236900 -10.383400
C -6.858200 -26.867100 -8.900500
H -6.666400 -24.810200 -9.105400
H -6.623400 -28.184200 -10.492500
H -6.239400 -26.677100 -10.876700
H -5.936000 -26.961500 -8.553500
H -3.777300 -25.820800 -13.085900
H -3.617900 -26.200000 -10.727200
H -3.095100 -24.733100 -11.103100
C -2.912500 -26.077500 -12.678600
C -2.906400 -25.699800 -11.198900
H -2.803000 -27.056300 -12.774400
H -1.942000 -24.382800 -13.386600
C -1.770000 -25.357800 -13.399000
H -1.745500 -25.650500 -14.344200
H -1.732900 -24.725000 -9.154100
C -1.561600 -26.018900 -10.571800
N -1.547300 -25.574500 -9.176000
H -1.407800 -27.006500 -10.605700
H -0.600000 -27.605800 -12.781000
N -0.478200 -25.328300 -11.317300
C -0.419600 -25.634900 -12.755300
N -0.254900 -25.759400 -8.543500
H -0.133200 -26.704500 -8.460100
N 0.024400 -27.005400 -13.070800
H 0.240600 -25.006200 -13.166900
H 0.588700 -27.633100 -10.501600
H 0.689200 -24.188400 -9.372200
C 0.829300 -25.178400 -9.363800
N 0.841500 -25.617500 -10.759500
C 1.238200 -27.032500 -10.967400
N 1.259600 -27.350000 -12.391900
H 1.877900 -26.857100 -12.789300
H 2.071100 -27.480500 -8.391500
H 2.117000 -25.229500 -7.744600
C 2.181400 -25.427300 -8.712900
C 2.625400 -27.236900 -10.383400
C 2.657200 -26.867100 -8.900500
H 2.849000 -24.810200 -9.105400
H 2.892000 -28.184200 -10.492500
H 3.276000 -26.677100 -10.876700
H 3.579400 -26.961500 -8.553500
