36
Fragment
H -13.292700 -25.820800 -13.085900
H -13.133300 -26.200000 -10.727200
H -12.610500 -24.733100 -11.103100
C -12.427900 -26.077500 -12.678600
C -12.421800 -25.699800 -11.198900
H -12.318400 -27.056300 -12.774400
H -11.457400 -24.382800 -13.386600
C -11.285400 -25.357800 -13.399000
H -11.260900 -25.650500 -14.344200
H -11.248300 -24.725000 -9.154100
C -11.077000 -26.018900 -10.571800
N -11.062700 -25.574500 -9.176000
H -10.923200 -27.006500 -10.605700
H -10.115400 -27.605800 -12.781000
N -9.993600 -25.328300 -11.317300
C -9.935000 -25.634900 -12.755300
N -9.770300 -25.759400 -8.543500
H -9.648600 -26.704500 -8.460100
N -9.491000 -27.005400 -13.070800
H -9.274800 -25.006200 -13.166900
H -8.926700 -27.633100 -10.501600
H -8.826200 -24.188400 -9.372200
C -8.686100 -25.178400 -9.363800
N -8.673900 -25.617500 -10.759500
C -8.277200 -27.032500 -10.967400
N -8.255800 -27.350000 -12.391900
H -7.637500 -26.857100 -12.789300
H -7.444300 -27.480500 -8.391500
H -7.398400 -25.229500 -7.744600
C -7.334000 -25.427300 -8.712900
C -6.890000 -27.236900 -10.383400
C -6.858200 -26.867100 -8.900500
H -6.666400 -24.810200 -9.105400
H -6.623400 -28.184200 -10.492500
H -6.239400 -26.677100 -10.876700
H -5.936000 -26.961500 -8.553500
36
Fragment
H -7.615100 -25.820800 -4.824100
H -7.455800 -26.200000 -2.465300
H -6.932900 -24.733100 -2.841200
C -6.750300 -26.077500 -4.416800
C -6.744200 -25.699800 -2.937100
H -6.640800 -27.056300 -4.512600
H -5.779800 -24.382800 -5.124800
C -5.607800 -25.357800 -5.137200
H -5.583400 -25.650500 -6.082400
H -5.570700 -24.725000 -0.892300
C -5.399400 -26.018900 -2.310000
N -5.385200 -25.574500 -0.914200
H -5.245600 -27.006500 -2.343900
H -4.437800 -27.605800 -4.519200
N -4.316000 -25.328300 -3.055500
C -4.257500 -25.634900 -4.493400
N -4.092700 -25.759400 -0.281600
H -3.971000 -26.704500 -0.198300
N -3.813400 -27.005400 -4.809000
H -3.597200 -25.006200 -4.905000
H -3.249100 -27.633100 -2.239800
H -3.148600 -24.188400 -1.110400
C -3.008500 -25.178400 -1.102000
N -2.996400 -25.617500 -2.497700
C -2.599600 -27.032500 -2.705600
N -2.578300 -27.350000 -4.130100
H -1.960000 -26.857100 -4.527500
H -1.766700 -27.480500 -0.129700
H -1.720800 -25.229500 0.517200
C -1.656400 -25.427300 -0.451100
C -1.212400 -27.236900 -2.121600
C -1.180600 -26.867100 -0.638600
H -0.988800 -24.810200 -0.843500
H -0.945800 -28.184200 -2.230700
H -0.561900 -26.677100 -2.614900
H -0.258500 -26.961500 -0.291600
72
Fragment
H -13.292700 -25.820800 -13.085900
H -13.133300 -26.200000 -10.727200
H -12.610500 -24.733100 -11.103100
C -12.427900 -26.077500 -12.678600
C -12.421800 -25.699800 -11.198900
H -12.318400 -27.056300 -12.774400
H -11.457400 -24.382800 -13.386600
C -11.285400 -25.357800 -13.399000
H -11.260900 -25.650500 -14.344200
H -11.248300 -24.725000 -9.154100
C -11.077000 -26.018900 -10.571800
N -11.062700 -25.574500 -9.176000
H -10.923200 -27.006500 -10.605700
H -10.115400 -27.605800 -12.781000
N -9.993600 -25.328300 -11.317300
C -9.935000 -25.634900 -12.755300
N -9.770300 -25.759400 -8.543500
H -9.648600 -26.704500 -8.460100
N -9.491000 -27.005400 -13.070800
H -9.274800 -25.006200 -13.166900
H -8.926700 -27.633100 -10.501600
H -8.826200 -24.188400 -9.372200
C -8.686100 -25.178400 -9.363800
N -8.673900 -25.617500 -10.759500
C -8.277200 -27.032500 -10.967400
N -8.255800 -27.350000 -12.391900
H -7.637500 -26.857100 -12.789300
H -7.444300 -27.480500 -8.391500
H -7.398400 -25.229500 -7.744600
C -7.334000 -25.427300 -8.712900
C -6.890000 -27.236900 -10.383400
C -6.858200 -26.867100 -8.900500
H -6.666400 -24.810200 -9.105400
H -6.623400 -28.184200 -10.492500
H -6.239400 -26.677100 -10.876700
H -5.936000 -26.961500 -8.553500
H -7.615100 -25.820800 -4.824100
H -7.455800 -26.200000 -2.465300
H -6.932900 -24.733100 -2.841200
C -6.750300 -26.077500 -4.416800
C -6.744200 -25.699800 -2.937100
H -6.640800 -27.056300 -4.512600
H -5.779800 -24.382800 -5.124800
C -5.607800 -25.357800 -5.137200
H -5.583400 -25.650500 -6.082400
H -5.570700 -24.725000 -0.892300
C -5.399400 -26.018900 -2.310000
N -5.385200 -25.574500 -0.914200
H -5.245600 -27.006500 -2.343900
H -4.437800 -27.605800 -4.519200
N -4.316000 -25.328300 -3.055500
C -4.257500 -25.634900 -4.493400
N -4.092700 -25.759400 -0.281600
H -3.971000 -26.704500 -0.198300
N -3.813400 -27.005400 -4.809000
H -3.597200 -25.006200 -4.905000
H -3.249100 -27.633100 -2.239800
H -3.148600 -24.188400 -1.110400
C -3.008500 -25.178400 -1.102000
N -2.996400 -25.617500 -2.497700
C -2.599600 -27.032500 -2.705600
N -2.578300 -27.350000 -4.130100
H -1.960000 -26.857100 -4.527500
H -1.766700 -27.480500 -0.129700
H -1.720800 -25.229500 0.517200
C -1.656400 -25.427300 -0.451100
C -1.212400 -27.236900 -2.121600
C -1.180600 -26.867100 -0.638600
H -0.988800 -24.810200 -0.843500
H -0.945800 -28.184200 -2.230700
H -0.561900 -26.677100 -2.614900
H -0.258500 -26.961500 -0.291600
