36
Fragment
H -13.292700 -25.820800 -13.085900
H -13.133300 -26.200000 -10.727200
H -12.610500 -24.733100 -11.103100
C -12.427900 -26.077500 -12.678600
C -12.421800 -25.699800 -11.198900
H -12.318400 -27.056300 -12.774400
H -11.457400 -24.382800 -13.386600
C -11.285400 -25.357800 -13.399000
H -11.260900 -25.650500 -14.344200
H -11.248300 -24.725000 -9.154100
C -11.077000 -26.018900 -10.571800
N -11.062700 -25.574500 -9.176000
H -10.923200 -27.006500 -10.605700
H -10.115400 -27.605800 -12.781000
N -9.993600 -25.328300 -11.317300
C -9.935000 -25.634900 -12.755300
N -9.770300 -25.759400 -8.543500
H -9.648600 -26.704500 -8.460100
N -9.491000 -27.005400 -13.070800
H -9.274800 -25.006200 -13.166900
H -8.926700 -27.633100 -10.501600
H -8.826200 -24.188400 -9.372200
C -8.686100 -25.178400 -9.363800
N -8.673900 -25.617500 -10.759500
C -8.277200 -27.032500 -10.967400
N -8.255800 -27.350000 -12.391900
H -7.637500 -26.857100 -12.789300
H -7.444300 -27.480500 -8.391500
H -7.398400 -25.229500 -7.744600
C -7.334000 -25.427300 -8.712900
C -6.890000 -27.236900 -10.383400
C -6.858200 -26.867100 -8.900500
H -6.666400 -24.810200 -9.105400
H -6.623400 -28.184200 -10.492500
H -6.239400 -26.677100 -10.876700
H -5.936000 -26.961500 -8.553500
36
Fragment
H -5.696200 -30.412700 -8.955000
H -5.536900 -30.033500 -6.596200
H -5.014000 -31.500400 -6.972200
C -4.831400 -30.155900 -8.547700
C -4.825300 -30.533600 -7.068000
H -4.721900 -29.177100 -8.643500
H -3.860900 -31.850600 -9.255700
C -3.688900 -30.875700 -9.268100
H -3.664400 -30.583000 -10.213300
H -3.651800 -31.508400 -5.023200
C -3.480500 -30.214600 -6.440900
N -3.466300 -30.659000 -5.045100
H -3.326700 -29.226900 -6.474800
H -2.518900 -28.627600 -8.650100
N -2.397100 -30.905100 -7.186400
C -2.338600 -30.598500 -8.624400
N -2.173800 -30.474000 -4.412600
H -2.052100 -29.529000 -4.329200
N -1.894500 -29.228100 -8.939900
H -1.678300 -31.227200 -9.036000
H -1.330200 -28.600300 -6.370700
H -1.229700 -32.045000 -5.241300
C -1.089600 -31.055000 -5.232900
N -1.077500 -30.615900 -6.628600
C -0.680700 -29.200900 -6.836500
N -0.659400 -28.883400 -8.261000
H -0.041000 -29.376400 -8.658400
H 0.152200 -28.753000 -4.260600
H 0.198100 -31.003900 -3.613700
C 0.262500 -30.806100 -4.582000
C 0.706500 -28.996500 -6.252500
C 0.738300 -29.366400 -4.769600
H 0.930100 -31.423300 -4.974400
H 0.973100 -28.049200 -6.361600
H 1.357100 -29.556300 -6.745800
H 1.660400 -29.271900 -4.422600
72
Fragment
H -13.292700 -25.820800 -13.085900
H -13.133300 -26.200000 -10.727200
H -12.610500 -24.733100 -11.103100
C -12.427900 -26.077500 -12.678600
C -12.421800 -25.699800 -11.198900
H -12.318400 -27.056300 -12.774400
H -11.457400 -24.382800 -13.386600
C -11.285400 -25.357800 -13.399000
H -11.260900 -25.650500 -14.344200
H -11.248300 -24.725000 -9.154100
C -11.077000 -26.018900 -10.571800
N -11.062700 -25.574500 -9.176000
H -10.923200 -27.006500 -10.605700
H -10.115400 -27.605800 -12.781000
N -9.993600 -25.328300 -11.317300
C -9.935000 -25.634900 -12.755300
N -9.770300 -25.759400 -8.543500
H -9.648600 -26.704500 -8.460100
N -9.491000 -27.005400 -13.070800
H -9.274800 -25.006200 -13.166900
H -8.926700 -27.633100 -10.501600
H -8.826200 -24.188400 -9.372200
C -8.686100 -25.178400 -9.363800
N -8.673900 -25.617500 -10.759500
C -8.277200 -27.032500 -10.967400
N -8.255800 -27.350000 -12.391900
H -7.637500 -26.857100 -12.789300
H -7.444300 -27.480500 -8.391500
H -7.398400 -25.229500 -7.744600
C -7.334000 -25.427300 -8.712900
C -6.890000 -27.236900 -10.383400
C -6.858200 -26.867100 -8.900500
H -6.666400 -24.810200 -9.105400
H -6.623400 -28.184200 -10.492500
H -6.239400 -26.677100 -10.876700
H -5.936000 -26.961500 -8.553500
H -5.696200 -30.412700 -8.955000
H -5.536900 -30.033500 -6.596200
H -5.014000 -31.500400 -6.972200
C -4.831400 -30.155900 -8.547700
C -4.825300 -30.533600 -7.068000
H -4.721900 -29.177100 -8.643500
H -3.860900 -31.850600 -9.255700
C -3.688900 -30.875700 -9.268100
H -3.664400 -30.583000 -10.213300
H -3.651800 -31.508400 -5.023200
C -3.480500 -30.214600 -6.440900
N -3.466300 -30.659000 -5.045100
H -3.326700 -29.226900 -6.474800
H -2.518900 -28.627600 -8.650100
N -2.397100 -30.905100 -7.186400
C -2.338600 -30.598500 -8.624400
N -2.173800 -30.474000 -4.412600
H -2.052100 -29.529000 -4.329200
N -1.894500 -29.228100 -8.939900
H -1.678300 -31.227200 -9.036000
H -1.330200 -28.600300 -6.370700
H -1.229700 -32.045000 -5.241300
C -1.089600 -31.055000 -5.232900
N -1.077500 -30.615900 -6.628600
C -0.680700 -29.200900 -6.836500
N -0.659400 -28.883400 -8.261000
H -0.041000 -29.376400 -8.658400
H 0.152200 -28.753000 -4.260600
H 0.198100 -31.003900 -3.613700
C 0.262500 -30.806100 -4.582000
C 0.706500 -28.996500 -6.252500
C 0.738300 -29.366400 -4.769600
H 0.930100 -31.423300 -4.974400
H 0.973100 -28.049200 -6.361600
H 1.357100 -29.556300 -6.745800
H 1.660400 -29.271900 -4.422600
