13
Fragment
H -19.166700 -8.439400 -16.487600
N -18.602800 -10.099800 -18.318200
C -18.264700 -8.241300 -16.782800
N -18.204200 -10.428700 -19.499200
H -18.200200 -7.283700 -16.924000
N -18.011900 -8.924400 -18.032200
O -17.477600 -7.969500 -14.618200
N -17.367400 -9.492900 -20.001800
C -17.289800 -8.651600 -15.712500
C -17.269000 -8.579500 -19.078500
H -16.958600 -8.273400 -13.961800
H -16.758000 -7.805000 -19.141700
O -16.456500 -9.505900 -15.852700
13
Fragment
H -19.166700 -3.252300 -16.487600
N -18.602800 -4.912700 -18.318200
C -18.264700 -3.054200 -16.782800
N -18.204200 -5.241600 -19.499200
H -18.200200 -2.096600 -16.924000
N -18.011900 -3.737300 -18.032200
O -17.477600 -2.782400 -14.618200
N -17.367400 -4.305800 -20.001800
C -17.289800 -3.464500 -15.712500
C -17.269000 -3.392400 -19.078500
H -16.958600 -3.086300 -13.961800
H -16.758000 -2.617900 -19.141700
O -16.456500 -4.318800 -15.852700
26
Fragment
H -19.166700 -8.439400 -16.487600
N -18.602800 -10.099800 -18.318200
C -18.264700 -8.241300 -16.782800
N -18.204200 -10.428700 -19.499200
H -18.200200 -7.283700 -16.924000
N -18.011900 -8.924400 -18.032200
O -17.477600 -7.969500 -14.618200
N -17.367400 -9.492900 -20.001800
C -17.289800 -8.651600 -15.712500
C -17.269000 -8.579500 -19.078500
H -16.958600 -8.273400 -13.961800
H -16.758000 -7.805000 -19.141700
O -16.456500 -9.505900 -15.852700
H -19.166700 -3.252300 -16.487600
N -18.602800 -4.912700 -18.318200
C -18.264700 -3.054200 -16.782800
N -18.204200 -5.241600 -19.499200
H -18.200200 -2.096600 -16.924000
N -18.011900 -3.737300 -18.032200
O -17.477600 -2.782400 -14.618200
N -17.367400 -4.305800 -20.001800
C -17.289800 -3.464500 -15.712500
C -17.269000 -3.392400 -19.078500
H -16.958600 -3.086300 -13.961800
H -16.758000 -2.617900 -19.141700
O -16.456500 -4.318800 -15.852700
