3
Fragment
H -20.168100 -31.882700 -18.719500
O -20.006200 -31.155100 -19.221400
H -19.238100 -31.271400 -19.762400
19
Fragment
H -18.813300 -36.049200 -20.114600
O -18.326000 -38.315500 -20.622700
N -18.233700 -36.067500 -20.795700
N -18.165500 -33.777900 -20.903100
O -18.034200 -31.528100 -21.201600
C -17.920000 -37.341000 -21.249800
C -17.869200 -34.933400 -21.401400
C -17.761000 -32.659900 -21.577900
N -17.153500 -35.106500 -22.577300
N -17.142200 -37.468500 -22.363100
N -17.004300 -32.818900 -22.733700
C -16.792500 -36.391900 -22.985100
H -16.710000 -32.009300 -23.067500
C -16.649000 -34.004400 -23.254200
N -16.037800 -36.432300 -24.094500
N -15.888600 -34.073700 -24.297400
H -15.743600 -37.348300 -24.381300
C -15.545100 -35.314200 -24.749100
O -14.791800 -35.474900 -25.711200
22
Fragment
H -20.168100 -31.882700 -18.719500
O -20.006200 -31.155100 -19.221400
H -19.238100 -31.271400 -19.762400
H -18.813300 -36.049200 -20.114600
O -18.326000 -38.315500 -20.622700
N -18.233700 -36.067500 -20.795700
N -18.165500 -33.777900 -20.903100
O -18.034200 -31.528100 -21.201600
C -17.920000 -37.341000 -21.249800
C -17.869200 -34.933400 -21.401400
C -17.761000 -32.659900 -21.577900
N -17.153500 -35.106500 -22.577300
N -17.142200 -37.468500 -22.363100
N -17.004300 -32.818900 -22.733700
C -16.792500 -36.391900 -22.985100
H -16.710000 -32.009300 -23.067500
C -16.649000 -34.004400 -23.254200
N -16.037800 -36.432300 -24.094500
N -15.888600 -34.073700 -24.297400
H -15.743600 -37.348300 -24.381300
C -15.545100 -35.314200 -24.749100
O -14.791800 -35.474900 -25.711200
