20
Fragment
N -16.733900 -22.124400 -20.636300
C -16.058600 -22.073000 -21.543300
N -15.728900 -24.412000 -26.766500
N -15.375100 -22.632000 -23.765500
C -15.130500 -21.967300 -22.622800
C -14.988900 -23.684700 -26.320600
N -14.274300 -22.303800 -24.509000
C -14.023300 -22.775200 -25.758500
C -13.925500 -21.251100 -22.611200
C -13.384300 -20.555800 -21.511800
C -13.367100 -21.480600 -23.868100
N -12.975800 -20.026000 -20.576600
C -12.886300 -22.404000 -26.368700
C -12.584500 -22.853100 -27.691900
N -12.334900 -23.206300 -28.736900
N -12.212900 -21.082300 -24.428600
C -11.968400 -21.509800 -25.670600
N -10.835800 -21.136000 -26.260400
H -10.659200 -21.399900 -27.060200
H -10.280600 -20.629600 -25.841400
10
Fragment
H -22.213400 -23.352300 -17.248600
H -22.098400 -24.029600 -18.656400
C -21.660100 -23.896100 -17.814000
H -21.511400 -24.745700 -17.392900
C -20.351500 -23.214700 -18.036200
O -20.054200 -22.217600 -17.431800
H -19.880800 -23.808500 -19.905000
C -19.442500 -23.798700 -19.051100
H -19.215100 -24.695700 -18.797400
H -18.643400 -23.270300 -19.107400
30
Fragment
N -16.733900 -22.124400 -20.636300
C -16.058600 -22.073000 -21.543300
N -15.728900 -24.412000 -26.766500
N -15.375100 -22.632000 -23.765500
C -15.130500 -21.967300 -22.622800
C -14.988900 -23.684700 -26.320600
N -14.274300 -22.303800 -24.509000
C -14.023300 -22.775200 -25.758500
C -13.925500 -21.251100 -22.611200
C -13.384300 -20.555800 -21.511800
C -13.367100 -21.480600 -23.868100
N -12.975800 -20.026000 -20.576600
C -12.886300 -22.404000 -26.368700
C -12.584500 -22.853100 -27.691900
N -12.334900 -23.206300 -28.736900
N -12.212900 -21.082300 -24.428600
C -11.968400 -21.509800 -25.670600
N -10.835800 -21.136000 -26.260400
H -10.659200 -21.399900 -27.060200
H -10.280600 -20.629600 -25.841400
H -22.213400 -23.352300 -17.248600
H -22.098400 -24.029600 -18.656400
C -21.660100 -23.896100 -17.814000
H -21.511400 -24.745700 -17.392900
C -20.351500 -23.214700 -18.036200
O -20.054200 -22.217600 -17.431800
H -19.880800 -23.808500 -19.905000
C -19.442500 -23.798700 -19.051100
H -19.215100 -24.695700 -18.797400
H -18.643400 -23.270300 -19.107400
