20
Fragment
N -16.733900 -22.124400 -20.636300
C -16.058600 -22.073000 -21.543300
N -15.728900 -24.412000 -26.766500
N -15.375100 -22.632000 -23.765500
C -15.130500 -21.967300 -22.622800
C -14.988900 -23.684700 -26.320600
N -14.274300 -22.303800 -24.509000
C -14.023300 -22.775200 -25.758500
C -13.925500 -21.251100 -22.611200
C -13.384300 -20.555800 -21.511800
C -13.367100 -21.480600 -23.868100
N -12.975800 -20.026000 -20.576600
C -12.886300 -22.404000 -26.368700
C -12.584500 -22.853100 -27.691900
N -12.334900 -23.206300 -28.736900
N -12.212900 -21.082300 -24.428600
C -11.968400 -21.509800 -25.670600
N -10.835800 -21.136000 -26.260400
H -10.659200 -21.399900 -27.060200
H -10.280600 -20.629600 -25.841400
20
Fragment
H -18.304800 -21.088400 -17.550400
H -17.926200 -20.318100 -18.769200
N -17.749600 -20.582000 -17.969400
C -16.617000 -20.208200 -17.379600
N -16.372400 -20.635700 -16.137600
N -16.250500 -18.511700 -20.445900
C -16.000800 -18.864900 -19.400900
C -15.699100 -19.314000 -18.077700
N -15.609500 -21.692000 -12.285600
C -15.218200 -20.237400 -15.577100
C -15.201100 -21.162200 -13.220800
C -14.659800 -20.466900 -14.320200
C -14.562000 -18.942800 -17.467500
N -14.311100 -19.414200 -16.218000
C -13.596500 -18.033300 -18.029600
C -13.454800 -19.750700 -14.331800
N -13.210200 -19.086000 -15.474500
N -12.856400 -17.306000 -18.475500
C -12.526700 -19.645000 -13.252300
N -11.851500 -19.593600 -12.345300
40
Fragment
N -16.733900 -22.124400 -20.636300
C -16.058600 -22.073000 -21.543300
N -15.728900 -24.412000 -26.766500
N -15.375100 -22.632000 -23.765500
C -15.130500 -21.967300 -22.622800
C -14.988900 -23.684700 -26.320600
N -14.274300 -22.303800 -24.509000
C -14.023300 -22.775200 -25.758500
C -13.925500 -21.251100 -22.611200
C -13.384300 -20.555800 -21.511800
C -13.367100 -21.480600 -23.868100
N -12.975800 -20.026000 -20.576600
C -12.886300 -22.404000 -26.368700
C -12.584500 -22.853100 -27.691900
N -12.334900 -23.206300 -28.736900
N -12.212900 -21.082300 -24.428600
C -11.968400 -21.509800 -25.670600
N -10.835800 -21.136000 -26.260400
H -10.659200 -21.399900 -27.060200
H -10.280600 -20.629600 -25.841400
H -18.304800 -21.088400 -17.550400
H -17.926200 -20.318100 -18.769200
N -17.749600 -20.582000 -17.969400
C -16.617000 -20.208200 -17.379600
N -16.372400 -20.635700 -16.137600
N -16.250500 -18.511700 -20.445900
C -16.000800 -18.864900 -19.400900
C -15.699100 -19.314000 -18.077700
N -15.609500 -21.692000 -12.285600
C -15.218200 -20.237400 -15.577100
C -15.201100 -21.162200 -13.220800
C -14.659800 -20.466900 -14.320200
C -14.562000 -18.942800 -17.467500
N -14.311100 -19.414200 -16.218000
C -13.596500 -18.033300 -18.029600
C -13.454800 -19.750700 -14.331800
N -13.210200 -19.086000 -15.474500
N -12.856400 -17.306000 -18.475500
C -12.526700 -19.645000 -13.252300
N -11.851500 -19.593600 -12.345300
