20
Fragment
N -16.733900 -22.124400 -20.636300
C -16.058600 -22.073000 -21.543300
N -15.728900 -24.412000 -26.766500
N -15.375100 -22.632000 -23.765500
C -15.130500 -21.967300 -22.622800
C -14.988900 -23.684700 -26.320600
N -14.274300 -22.303800 -24.509000
C -14.023300 -22.775200 -25.758500
C -13.925500 -21.251100 -22.611200
C -13.384300 -20.555800 -21.511800
C -13.367100 -21.480600 -23.868100
N -12.975800 -20.026000 -20.576600
C -12.886300 -22.404000 -26.368700
C -12.584500 -22.853100 -27.691900
N -12.334900 -23.206300 -28.736900
N -12.212900 -21.082300 -24.428600
C -11.968400 -21.509800 -25.670600
N -10.835800 -21.136000 -26.260400
H -10.659200 -21.399900 -27.060200
H -10.280600 -20.629600 -25.841400
20
Fragment
N -23.086200 -22.124400 -20.636300
C -22.410900 -22.073000 -21.543300
N -22.081200 -24.412000 -26.766500
N -21.727400 -22.632000 -23.765500
C -21.482800 -21.967300 -22.622800
C -21.341200 -23.684700 -26.320600
N -20.626600 -22.303800 -24.509000
C -20.375600 -22.775200 -25.758500
C -20.277800 -21.251100 -22.611200
C -19.736600 -20.555800 -21.511800
C -19.719400 -21.480600 -23.868100
N -19.328100 -20.026000 -20.576600
C -19.238600 -22.404000 -26.368700
C -18.936800 -22.853100 -27.691900
N -18.687200 -23.206300 -28.736900
N -18.565200 -21.082300 -24.428600
C -18.320700 -21.509800 -25.670600
N -17.188100 -21.136000 -26.260400
H -17.011500 -21.399900 -27.060200
H -16.632900 -20.629600 -25.841400
40
Fragment
N -16.733900 -22.124400 -20.636300
C -16.058600 -22.073000 -21.543300
N -15.728900 -24.412000 -26.766500
N -15.375100 -22.632000 -23.765500
C -15.130500 -21.967300 -22.622800
C -14.988900 -23.684700 -26.320600
N -14.274300 -22.303800 -24.509000
C -14.023300 -22.775200 -25.758500
C -13.925500 -21.251100 -22.611200
C -13.384300 -20.555800 -21.511800
C -13.367100 -21.480600 -23.868100
N -12.975800 -20.026000 -20.576600
C -12.886300 -22.404000 -26.368700
C -12.584500 -22.853100 -27.691900
N -12.334900 -23.206300 -28.736900
N -12.212900 -21.082300 -24.428600
C -11.968400 -21.509800 -25.670600
N -10.835800 -21.136000 -26.260400
H -10.659200 -21.399900 -27.060200
H -10.280600 -20.629600 -25.841400
N -23.086200 -22.124400 -20.636300
C -22.410900 -22.073000 -21.543300
N -22.081200 -24.412000 -26.766500
N -21.727400 -22.632000 -23.765500
C -21.482800 -21.967300 -22.622800
C -21.341200 -23.684700 -26.320600
N -20.626600 -22.303800 -24.509000
C -20.375600 -22.775200 -25.758500
C -20.277800 -21.251100 -22.611200
C -19.736600 -20.555800 -21.511800
C -19.719400 -21.480600 -23.868100
N -19.328100 -20.026000 -20.576600
C -19.238600 -22.404000 -26.368700
C -18.936800 -22.853100 -27.691900
N -18.687200 -23.206300 -28.736900
N -18.565200 -21.082300 -24.428600
C -18.320700 -21.509800 -25.670600
N -17.188100 -21.136000 -26.260400
H -17.011500 -21.399900 -27.060200
H -16.632900 -20.629600 -25.841400
