20
Fragment
N -16.733900 -22.124400 -20.636300
C -16.058600 -22.073000 -21.543300
N -15.728900 -24.412000 -26.766500
N -15.375100 -22.632000 -23.765500
C -15.130500 -21.967300 -22.622800
C -14.988900 -23.684700 -26.320600
N -14.274300 -22.303800 -24.509000
C -14.023300 -22.775200 -25.758500
C -13.925500 -21.251100 -22.611200
C -13.384300 -20.555800 -21.511800
C -13.367100 -21.480600 -23.868100
N -12.975800 -20.026000 -20.576600
C -12.886300 -22.404000 -26.368700
C -12.584500 -22.853100 -27.691900
N -12.334900 -23.206300 -28.736900
N -12.212900 -21.082300 -24.428600
C -11.968400 -21.509800 -25.670600
N -10.835800 -21.136000 -26.260400
H -10.659200 -21.399900 -27.060200
H -10.280600 -20.629600 -25.841400
20
Fragment
H -18.304800 -21.088400 -34.132400
H -17.926200 -20.318100 -35.351200
N -17.749600 -20.582000 -34.551400
C -16.617000 -20.208200 -33.961600
N -16.372400 -20.635700 -32.719600
N -16.250500 -18.511700 -37.027900
C -16.000800 -18.864900 -35.982900
C -15.699100 -19.314000 -34.659700
N -15.609500 -21.692000 -28.867600
C -15.218200 -20.237400 -32.159100
C -15.201100 -21.162200 -29.802800
C -14.659800 -20.466900 -30.902200
C -14.562000 -18.942800 -34.049500
N -14.311100 -19.414200 -32.800000
C -13.596500 -18.033300 -34.611600
C -13.454800 -19.750700 -30.913800
N -13.210200 -19.086000 -32.056500
N -12.856400 -17.306000 -35.057500
C -12.526700 -19.645000 -29.834300
N -11.851500 -19.593600 -28.927300
40
Fragment
N -16.733900 -22.124400 -20.636300
C -16.058600 -22.073000 -21.543300
N -15.728900 -24.412000 -26.766500
N -15.375100 -22.632000 -23.765500
C -15.130500 -21.967300 -22.622800
C -14.988900 -23.684700 -26.320600
N -14.274300 -22.303800 -24.509000
C -14.023300 -22.775200 -25.758500
C -13.925500 -21.251100 -22.611200
C -13.384300 -20.555800 -21.511800
C -13.367100 -21.480600 -23.868100
N -12.975800 -20.026000 -20.576600
C -12.886300 -22.404000 -26.368700
C -12.584500 -22.853100 -27.691900
N -12.334900 -23.206300 -28.736900
N -12.212900 -21.082300 -24.428600
C -11.968400 -21.509800 -25.670600
N -10.835800 -21.136000 -26.260400
H -10.659200 -21.399900 -27.060200
H -10.280600 -20.629600 -25.841400
H -18.304800 -21.088400 -34.132400
H -17.926200 -20.318100 -35.351200
N -17.749600 -20.582000 -34.551400
C -16.617000 -20.208200 -33.961600
N -16.372400 -20.635700 -32.719600
N -16.250500 -18.511700 -37.027900
C -16.000800 -18.864900 -35.982900
C -15.699100 -19.314000 -34.659700
N -15.609500 -21.692000 -28.867600
C -15.218200 -20.237400 -32.159100
C -15.201100 -21.162200 -29.802800
C -14.659800 -20.466900 -30.902200
C -14.562000 -18.942800 -34.049500
N -14.311100 -19.414200 -32.800000
C -13.596500 -18.033300 -34.611600
C -13.454800 -19.750700 -30.913800
N -13.210200 -19.086000 -32.056500
N -12.856400 -17.306000 -35.057500
C -12.526700 -19.645000 -29.834300
N -11.851500 -19.593600 -28.927300
