20
Fragment
N -16.733900 -22.124400 -20.636300
C -16.058600 -22.073000 -21.543300
N -15.728900 -24.412000 -26.766500
N -15.375100 -22.632000 -23.765500
C -15.130500 -21.967300 -22.622800
C -14.988900 -23.684700 -26.320600
N -14.274300 -22.303800 -24.509000
C -14.023300 -22.775200 -25.758500
C -13.925500 -21.251100 -22.611200
C -13.384300 -20.555800 -21.511800
C -13.367100 -21.480600 -23.868100
N -12.975800 -20.026000 -20.576600
C -12.886300 -22.404000 -26.368700
C -12.584500 -22.853100 -27.691900
N -12.334900 -23.206300 -28.736900
N -12.212900 -21.082300 -24.428600
C -11.968400 -21.509800 -25.670600
N -10.835800 -21.136000 -26.260400
H -10.659200 -21.399900 -27.060200
H -10.280600 -20.629600 -25.841400
10
Fragment
H -9.942000 -18.447700 -27.398400
H -9.370300 -17.022300 -27.088400
C -9.142900 -17.919300 -27.342100
H -8.704600 -17.909500 -28.196000
O -8.531100 -19.500400 -25.722800
C -8.233900 -18.503300 -26.327200
H -7.073900 -16.972300 -25.683900
C -6.925300 -17.821900 -26.105000
H -6.487000 -17.688400 -26.947400
H -6.372000 -18.365700 -25.539600
30
Fragment
N -16.733900 -22.124400 -20.636300
C -16.058600 -22.073000 -21.543300
N -15.728900 -24.412000 -26.766500
N -15.375100 -22.632000 -23.765500
C -15.130500 -21.967300 -22.622800
C -14.988900 -23.684700 -26.320600
N -14.274300 -22.303800 -24.509000
C -14.023300 -22.775200 -25.758500
C -13.925500 -21.251100 -22.611200
C -13.384300 -20.555800 -21.511800
C -13.367100 -21.480600 -23.868100
N -12.975800 -20.026000 -20.576600
C -12.886300 -22.404000 -26.368700
C -12.584500 -22.853100 -27.691900
N -12.334900 -23.206300 -28.736900
N -12.212900 -21.082300 -24.428600
C -11.968400 -21.509800 -25.670600
N -10.835800 -21.136000 -26.260400
H -10.659200 -21.399900 -27.060200
H -10.280600 -20.629600 -25.841400
H -9.942000 -18.447700 -27.398400
H -9.370300 -17.022300 -27.088400
C -9.142900 -17.919300 -27.342100
H -8.704600 -17.909500 -28.196000
O -8.531100 -19.500400 -25.722800
C -8.233900 -18.503300 -26.327200
H -7.073900 -16.972300 -25.683900
C -6.925300 -17.821900 -26.105000
H -6.487000 -17.688400 -26.947400
H -6.372000 -18.365700 -25.539600
