20
Fragment
N -16.733900 -22.124400 -20.636300
C -16.058600 -22.073000 -21.543300
N -15.728900 -24.412000 -26.766500
N -15.375100 -22.632000 -23.765500
C -15.130500 -21.967300 -22.622800
C -14.988900 -23.684700 -26.320600
N -14.274300 -22.303800 -24.509000
C -14.023300 -22.775200 -25.758500
C -13.925500 -21.251100 -22.611200
C -13.384300 -20.555800 -21.511800
C -13.367100 -21.480600 -23.868100
N -12.975800 -20.026000 -20.576600
C -12.886300 -22.404000 -26.368700
C -12.584500 -22.853100 -27.691900
N -12.334900 -23.206300 -28.736900
N -12.212900 -21.082300 -24.428600
C -11.968400 -21.509800 -25.670600
N -10.835800 -21.136000 -26.260400
H -10.659200 -21.399900 -27.060200
H -10.280600 -20.629600 -25.841400
10
Fragment
H -19.037200 -25.318700 -32.497400
H -18.922200 -24.641400 -31.089600
C -18.483900 -24.774900 -31.932000
H -18.335300 -23.925300 -32.353100
C -17.175300 -25.456300 -31.709800
O -16.878100 -26.453400 -32.314200
H -16.704600 -24.862500 -29.841000
C -16.266300 -24.872300 -30.694900
H -16.038900 -23.975300 -30.948600
H -15.467200 -25.400700 -30.638600
30
Fragment
N -16.733900 -22.124400 -20.636300
C -16.058600 -22.073000 -21.543300
N -15.728900 -24.412000 -26.766500
N -15.375100 -22.632000 -23.765500
C -15.130500 -21.967300 -22.622800
C -14.988900 -23.684700 -26.320600
N -14.274300 -22.303800 -24.509000
C -14.023300 -22.775200 -25.758500
C -13.925500 -21.251100 -22.611200
C -13.384300 -20.555800 -21.511800
C -13.367100 -21.480600 -23.868100
N -12.975800 -20.026000 -20.576600
C -12.886300 -22.404000 -26.368700
C -12.584500 -22.853100 -27.691900
N -12.334900 -23.206300 -28.736900
N -12.212900 -21.082300 -24.428600
C -11.968400 -21.509800 -25.670600
N -10.835800 -21.136000 -26.260400
H -10.659200 -21.399900 -27.060200
H -10.280600 -20.629600 -25.841400
H -19.037200 -25.318700 -32.497400
H -18.922200 -24.641400 -31.089600
C -18.483900 -24.774900 -31.932000
H -18.335300 -23.925300 -32.353100
C -17.175300 -25.456300 -31.709800
O -16.878100 -26.453400 -32.314200
H -16.704600 -24.862500 -29.841000
C -16.266300 -24.872300 -30.694900
H -16.038900 -23.975300 -30.948600
H -15.467200 -25.400700 -30.638600
