26
Fragment
H -9.849900 -12.997400 -47.746800
H -9.779500 -14.525400 -45.884000
O -9.500400 -10.997200 -48.987900
C -9.434700 -12.784300 -46.882700
C -9.394800 -13.645400 -45.792900
H -9.072200 -8.670900 -49.770000
C -9.011400 -10.608300 -47.937600
C -8.926800 -11.508100 -46.758600
C -8.857500 -13.252100 -44.600700
H -8.793000 -13.884100 -43.823500
C -8.622700 -8.340800 -48.875600
C -8.526300 -9.216100 -47.795800
C -8.365700 -11.061000 -45.535500
C -8.314700 -11.956100 -44.438200
H -8.276200 -6.395000 -49.497800
C -8.193100 -7.035400 -48.733500
C -7.989800 -8.778500 -46.582100
C -7.856100 -9.694300 -45.420900
H -7.799800 -12.308900 -42.482300
N -7.759100 -11.637300 -43.248900
C -7.657800 -6.595900 -47.536400
C -7.559800 -7.461700 -46.465500
H -7.441600 -10.771500 -43.124300
H -7.334900 -5.659300 -47.434400
O -7.312400 -9.284700 -44.392400
H -7.222600 -7.168400 -45.614600
26
Fragment
H -9.849900 -3.565300 -47.746800
H -9.779500 -5.093300 -45.884000
O -9.500400 -1.565100 -48.987900
C -9.434700 -3.352200 -46.882700
C -9.394800 -4.213300 -45.792900
H -9.072200 0.761200 -49.770000
C -9.011400 -1.176200 -47.937600
C -8.926800 -2.076000 -46.758600
C -8.857500 -3.820000 -44.600700
H -8.793000 -4.452000 -43.823500
C -8.622700 1.091300 -48.875600
C -8.526300 0.216000 -47.795800
C -8.365700 -1.628900 -45.535500
C -8.314700 -2.524000 -44.438200
H -8.276200 3.037100 -49.497800
C -8.193100 2.396700 -48.733500
C -7.989800 0.653600 -46.582100
C -7.856100 -0.262200 -45.420900
H -7.799800 -2.876800 -42.482300
N -7.759100 -2.205200 -43.248900
C -7.657800 2.836200 -47.536400
C -7.559800 1.970400 -46.465500
H -7.441600 -1.339400 -43.124300
H -7.334900 3.772800 -47.434400
O -7.312400 0.147400 -44.392400
H -7.222600 2.263700 -45.614600
52
Fragment
H -9.849900 -12.997400 -47.746800
H -9.779500 -14.525400 -45.884000
O -9.500400 -10.997200 -48.987900
C -9.434700 -12.784300 -46.882700
C -9.394800 -13.645400 -45.792900
H -9.072200 -8.670900 -49.770000
C -9.011400 -10.608300 -47.937600
C -8.926800 -11.508100 -46.758600
C -8.857500 -13.252100 -44.600700
H -8.793000 -13.884100 -43.823500
C -8.622700 -8.340800 -48.875600
C -8.526300 -9.216100 -47.795800
C -8.365700 -11.061000 -45.535500
C -8.314700 -11.956100 -44.438200
H -8.276200 -6.395000 -49.497800
C -8.193100 -7.035400 -48.733500
C -7.989800 -8.778500 -46.582100
C -7.856100 -9.694300 -45.420900
H -7.799800 -12.308900 -42.482300
N -7.759100 -11.637300 -43.248900
C -7.657800 -6.595900 -47.536400
C -7.559800 -7.461700 -46.465500
H -7.441600 -10.771500 -43.124300
H -7.334900 -5.659300 -47.434400
O -7.312400 -9.284700 -44.392400
H -7.222600 -7.168400 -45.614600
H -9.849900 -3.565300 -47.746800
H -9.779500 -5.093300 -45.884000
O -9.500400 -1.565100 -48.987900
C -9.434700 -3.352200 -46.882700
C -9.394800 -4.213300 -45.792900
H -9.072200 0.761200 -49.770000
C -9.011400 -1.176200 -47.937600
C -8.926800 -2.076000 -46.758600
C -8.857500 -3.820000 -44.600700
H -8.793000 -4.452000 -43.823500
C -8.622700 1.091300 -48.875600
C -8.526300 0.216000 -47.795800
C -8.365700 -1.628900 -45.535500
C -8.314700 -2.524000 -44.438200
H -8.276200 3.037100 -49.497800
C -8.193100 2.396700 -48.733500
C -7.989800 0.653600 -46.582100
C -7.856100 -0.262200 -45.420900
H -7.799800 -2.876800 -42.482300
N -7.759100 -2.205200 -43.248900
C -7.657800 2.836200 -47.536400
C -7.559800 1.970400 -46.465500
H -7.441600 -1.339400 -43.124300
H -7.334900 3.772800 -47.434400
O -7.312400 0.147400 -44.392400
H -7.222600 2.263700 -45.614600
