26
Fragment
H -9.849900 -12.997400 -47.746800
H -9.779500 -14.525400 -45.884000
O -9.500400 -10.997200 -48.987900
C -9.434700 -12.784300 -46.882700
C -9.394800 -13.645400 -45.792900
H -9.072200 -8.670900 -49.770000
C -9.011400 -10.608300 -47.937600
C -8.926800 -11.508100 -46.758600
C -8.857500 -13.252100 -44.600700
H -8.793000 -13.884100 -43.823500
C -8.622700 -8.340800 -48.875600
C -8.526300 -9.216100 -47.795800
C -8.365700 -11.061000 -45.535500
C -8.314700 -11.956100 -44.438200
H -8.276200 -6.395000 -49.497800
C -8.193100 -7.035400 -48.733500
C -7.989800 -8.778500 -46.582100
C -7.856100 -9.694300 -45.420900
H -7.799800 -12.308900 -42.482300
N -7.759100 -11.637300 -43.248900
C -7.657800 -6.595900 -47.536400
C -7.559800 -7.461700 -46.465500
H -7.441600 -10.771500 -43.124300
H -7.334900 -5.659300 -47.434400
O -7.312400 -9.284700 -44.392400
H -7.222600 -7.168400 -45.614600
20
Fragment
N -9.902600 -16.747600 -43.706300
H -9.747900 -18.826500 -41.533800
H -9.734800 -20.448800 -39.914600
N -9.622500 -22.681400 -37.847500
C -9.478000 -16.589200 -42.656300
C -9.420300 -18.631200 -40.626400
C -9.409800 -19.572600 -39.673600
C -9.334800 -21.599500 -37.636600
C -8.964300 -16.343000 -41.344900
C -8.955400 -17.297500 -40.353900
C -8.946800 -19.283000 -38.341800
C -8.942000 -20.252600 -37.369800
C -8.517500 -19.990400 -36.028300
C -8.493000 -17.942700 -38.071300
C -8.491000 -16.994800 -39.028800
C -8.481700 -15.006500 -41.127400
N -8.189900 -19.814000 -34.946200
H -8.177200 -16.110000 -38.817000
H -8.157500 -17.732300 -37.189200
N -8.103000 -13.936900 -41.007900
46
Fragment
H -9.849900 -12.997400 -47.746800
H -9.779500 -14.525400 -45.884000
O -9.500400 -10.997200 -48.987900
C -9.434700 -12.784300 -46.882700
C -9.394800 -13.645400 -45.792900
H -9.072200 -8.670900 -49.770000
C -9.011400 -10.608300 -47.937600
C -8.926800 -11.508100 -46.758600
C -8.857500 -13.252100 -44.600700
H -8.793000 -13.884100 -43.823500
C -8.622700 -8.340800 -48.875600
C -8.526300 -9.216100 -47.795800
C -8.365700 -11.061000 -45.535500
C -8.314700 -11.956100 -44.438200
H -8.276200 -6.395000 -49.497800
C -8.193100 -7.035400 -48.733500
C -7.989800 -8.778500 -46.582100
C -7.856100 -9.694300 -45.420900
H -7.799800 -12.308900 -42.482300
N -7.759100 -11.637300 -43.248900
C -7.657800 -6.595900 -47.536400
C -7.559800 -7.461700 -46.465500
H -7.441600 -10.771500 -43.124300
H -7.334900 -5.659300 -47.434400
O -7.312400 -9.284700 -44.392400
H -7.222600 -7.168400 -45.614600
N -9.902600 -16.747600 -43.706300
H -9.747900 -18.826500 -41.533800
H -9.734800 -20.448800 -39.914600
N -9.622500 -22.681400 -37.847500
C -9.478000 -16.589200 -42.656300
C -9.420300 -18.631200 -40.626400
C -9.409800 -19.572600 -39.673600
C -9.334800 -21.599500 -37.636600
C -8.964300 -16.343000 -41.344900
C -8.955400 -17.297500 -40.353900
C -8.946800 -19.283000 -38.341800
C -8.942000 -20.252600 -37.369800
C -8.517500 -19.990400 -36.028300
C -8.493000 -17.942700 -38.071300
C -8.491000 -16.994800 -39.028800
C -8.481700 -15.006500 -41.127400
N -8.189900 -19.814000 -34.946200
H -8.177200 -16.110000 -38.817000
H -8.157500 -17.732300 -37.189200
N -8.103000 -13.936900 -41.007900
