26
Fragment
H -9.849900 -12.997400 -47.746800
H -9.779500 -14.525400 -45.884000
O -9.500400 -10.997200 -48.987900
C -9.434700 -12.784300 -46.882700
C -9.394800 -13.645400 -45.792900
H -9.072200 -8.670900 -49.770000
C -9.011400 -10.608300 -47.937600
C -8.926800 -11.508100 -46.758600
C -8.857500 -13.252100 -44.600700
H -8.793000 -13.884100 -43.823500
C -8.622700 -8.340800 -48.875600
C -8.526300 -9.216100 -47.795800
C -8.365700 -11.061000 -45.535500
C -8.314700 -11.956100 -44.438200
H -8.276200 -6.395000 -49.497800
C -8.193100 -7.035400 -48.733500
C -7.989800 -8.778500 -46.582100
C -7.856100 -9.694300 -45.420900
H -7.799800 -12.308900 -42.482300
N -7.759100 -11.637300 -43.248900
C -7.657800 -6.595900 -47.536400
C -7.559800 -7.461700 -46.465500
H -7.441600 -10.771500 -43.124300
H -7.334900 -5.659300 -47.434400
O -7.312400 -9.284700 -44.392400
H -7.222600 -7.168400 -45.614600
26
Fragment
H -12.416600 -2.452300 -54.687700
O -12.326800 -4.568600 -55.909900
H -12.304300 -0.943200 -52.867900
H -12.197600 -6.055400 -57.178000
C -12.079400 -2.745700 -53.836800
C -11.981400 -1.879800 -52.765900
N -11.880100 -6.921300 -57.053400
H -11.839400 -7.592800 -57.820000
C -11.783100 -4.978300 -54.881400
C -11.649400 -4.062400 -53.720200
C -11.446100 -2.319400 -51.568900
H -11.363000 -1.678900 -50.804500
C -11.324500 -7.240100 -55.864100
C -11.273500 -6.345000 -54.766800
C -11.112900 -4.500100 -52.506500
C -11.016500 -3.624800 -51.426700
H -10.846200 -9.168000 -56.478800
C -10.781700 -8.536100 -55.701600
C -10.712400 -6.792100 -53.543700
C -10.627800 -5.892200 -52.364700
H -10.567000 -3.954900 -50.532300
C -10.244400 -8.929400 -54.509400
C -10.204500 -8.068200 -53.419600
O -10.138800 -6.281100 -51.314400
H -9.859700 -9.809400 -54.418300
H -9.789300 -8.281400 -52.555500
52
Fragment
H -9.849900 -12.997400 -47.746800
H -9.779500 -14.525400 -45.884000
O -9.500400 -10.997200 -48.987900
C -9.434700 -12.784300 -46.882700
C -9.394800 -13.645400 -45.792900
H -9.072200 -8.670900 -49.770000
C -9.011400 -10.608300 -47.937600
C -8.926800 -11.508100 -46.758600
C -8.857500 -13.252100 -44.600700
H -8.793000 -13.884100 -43.823500
C -8.622700 -8.340800 -48.875600
C -8.526300 -9.216100 -47.795800
C -8.365700 -11.061000 -45.535500
C -8.314700 -11.956100 -44.438200
H -8.276200 -6.395000 -49.497800
C -8.193100 -7.035400 -48.733500
C -7.989800 -8.778500 -46.582100
C -7.856100 -9.694300 -45.420900
H -7.799800 -12.308900 -42.482300
N -7.759100 -11.637300 -43.248900
C -7.657800 -6.595900 -47.536400
C -7.559800 -7.461700 -46.465500
H -7.441600 -10.771500 -43.124300
H -7.334900 -5.659300 -47.434400
O -7.312400 -9.284700 -44.392400
H -7.222600 -7.168400 -45.614600
H -12.416600 -2.452300 -54.687700
O -12.326800 -4.568600 -55.909900
H -12.304300 -0.943200 -52.867900
H -12.197600 -6.055400 -57.178000
C -12.079400 -2.745700 -53.836800
C -11.981400 -1.879800 -52.765900
N -11.880100 -6.921300 -57.053400
H -11.839400 -7.592800 -57.820000
C -11.783100 -4.978300 -54.881400
C -11.649400 -4.062400 -53.720200
C -11.446100 -2.319400 -51.568900
H -11.363000 -1.678900 -50.804500
C -11.324500 -7.240100 -55.864100
C -11.273500 -6.345000 -54.766800
C -11.112900 -4.500100 -52.506500
C -11.016500 -3.624800 -51.426700
H -10.846200 -9.168000 -56.478800
C -10.781700 -8.536100 -55.701600
C -10.712400 -6.792100 -53.543700
C -10.627800 -5.892200 -52.364700
H -10.567000 -3.954900 -50.532300
C -10.244400 -8.929400 -54.509400
C -10.204500 -8.068200 -53.419600
O -10.138800 -6.281100 -51.314400
H -9.859700 -9.809400 -54.418300
H -9.789300 -8.281400 -52.555500
