26
Fragment
H -9.849900 -12.997400 -47.746800
H -9.779500 -14.525400 -45.884000
O -9.500400 -10.997200 -48.987900
C -9.434700 -12.784300 -46.882700
C -9.394800 -13.645400 -45.792900
H -9.072200 -8.670900 -49.770000
C -9.011400 -10.608300 -47.937600
C -8.926800 -11.508100 -46.758600
C -8.857500 -13.252100 -44.600700
H -8.793000 -13.884100 -43.823500
C -8.622700 -8.340800 -48.875600
C -8.526300 -9.216100 -47.795800
C -8.365700 -11.061000 -45.535500
C -8.314700 -11.956100 -44.438200
H -8.276200 -6.395000 -49.497800
C -8.193100 -7.035400 -48.733500
C -7.989800 -8.778500 -46.582100
C -7.856100 -9.694300 -45.420900
H -7.799800 -12.308900 -42.482300
N -7.759100 -11.637300 -43.248900
C -7.657800 -6.595900 -47.536400
C -7.559800 -7.461700 -46.465500
H -7.441600 -10.771500 -43.124300
H -7.334900 -5.659300 -47.434400
O -7.312400 -9.284700 -44.392400
H -7.222600 -7.168400 -45.614600
26
Fragment
H -6.400300 -11.695800 -40.358800
O -6.310500 -9.579500 -41.581000
H -6.288000 -13.204900 -38.539000
H -6.181300 -8.092700 -42.849100
C -6.063100 -11.402500 -39.507900
C -5.965100 -12.268300 -38.437000
N -5.863800 -7.226900 -42.724500
H -5.823100 -6.555300 -43.491100
C -5.766800 -9.169900 -40.552500
C -5.633100 -10.085700 -39.391300
C -5.429900 -11.828800 -37.240000
H -5.346700 -12.469200 -36.475600
C -5.308300 -6.908100 -41.535200
C -5.257200 -7.803200 -40.437900
C -5.096600 -9.648100 -38.177600
C -5.000200 -10.523400 -37.097800
H -4.829900 -4.980100 -42.149900
C -4.765400 -5.612100 -41.372700
C -4.696100 -7.356100 -39.214800
C -4.611500 -8.255900 -38.035800
H -4.550700 -10.193300 -36.203400
C -4.228100 -5.218800 -40.180500
C -4.188200 -6.079900 -39.090700
O -4.122600 -7.867000 -36.985500
H -3.843400 -4.338800 -40.089400
H -3.773000 -5.866800 -38.226600
52
Fragment
H -9.849900 -12.997400 -47.746800
H -9.779500 -14.525400 -45.884000
O -9.500400 -10.997200 -48.987900
C -9.434700 -12.784300 -46.882700
C -9.394800 -13.645400 -45.792900
H -9.072200 -8.670900 -49.770000
C -9.011400 -10.608300 -47.937600
C -8.926800 -11.508100 -46.758600
C -8.857500 -13.252100 -44.600700
H -8.793000 -13.884100 -43.823500
C -8.622700 -8.340800 -48.875600
C -8.526300 -9.216100 -47.795800
C -8.365700 -11.061000 -45.535500
C -8.314700 -11.956100 -44.438200
H -8.276200 -6.395000 -49.497800
C -8.193100 -7.035400 -48.733500
C -7.989800 -8.778500 -46.582100
C -7.856100 -9.694300 -45.420900
H -7.799800 -12.308900 -42.482300
N -7.759100 -11.637300 -43.248900
C -7.657800 -6.595900 -47.536400
C -7.559800 -7.461700 -46.465500
H -7.441600 -10.771500 -43.124300
H -7.334900 -5.659300 -47.434400
O -7.312400 -9.284700 -44.392400
H -7.222600 -7.168400 -45.614600
H -6.400300 -11.695800 -40.358800
O -6.310500 -9.579500 -41.581000
H -6.288000 -13.204900 -38.539000
H -6.181300 -8.092700 -42.849100
C -6.063100 -11.402500 -39.507900
C -5.965100 -12.268300 -38.437000
N -5.863800 -7.226900 -42.724500
H -5.823100 -6.555300 -43.491100
C -5.766800 -9.169900 -40.552500
C -5.633100 -10.085700 -39.391300
C -5.429900 -11.828800 -37.240000
H -5.346700 -12.469200 -36.475600
C -5.308300 -6.908100 -41.535200
C -5.257200 -7.803200 -40.437900
C -5.096600 -9.648100 -38.177600
C -5.000200 -10.523400 -37.097800
H -4.829900 -4.980100 -42.149900
C -4.765400 -5.612100 -41.372700
C -4.696100 -7.356100 -39.214800
C -4.611500 -8.255900 -38.035800
H -4.550700 -10.193300 -36.203400
C -4.228100 -5.218800 -40.180500
C -4.188200 -6.079900 -39.090700
O -4.122600 -7.867000 -36.985500
H -3.843400 -4.338800 -40.089400
H -3.773000 -5.866800 -38.226600
