17
Fragment
H -11.778400 -8.047400 -17.112600
H -11.508500 -8.132400 -15.614400
N -11.451900 -8.512800 -16.412300
H -10.359000 -9.095900 -18.701500
C -10.274100 -9.184100 -16.658100
C -9.847100 -9.426400 -17.972700
H -9.776500 -9.531600 -14.699300
C -9.497100 -9.676400 -15.595800
C -8.690500 -10.140700 -18.218300
H -8.420800 -10.307700 -19.113900
C -8.334100 -10.366600 -15.846700
C -7.912900 -10.620200 -17.158400
H -7.808100 -10.676500 -15.118800
C -6.660300 -11.336300 -17.426200
O -6.305700 -11.664800 -18.568500
O -5.922800 -11.595600 -16.367500
H -5.084700 -12.015900 -16.633200
17
Fragment
H -9.075900 -13.197100 -11.750500
H -8.806000 -13.112100 -10.252300
N -8.749400 -12.731700 -11.050200
H -7.656600 -12.148600 -13.339400
C -7.571600 -12.060400 -11.296000
C -7.144600 -11.818100 -12.610600
H -7.074100 -11.712900 -9.337200
C -6.794600 -11.568100 -10.233700
C -5.988000 -11.103800 -12.856200
H -5.718300 -10.936800 -13.751800
C -5.631600 -10.877900 -10.484600
C -5.210400 -10.624300 -11.796300
H -5.105600 -10.568000 -9.756700
C -3.957800 -9.908200 -12.064100
O -3.603200 -9.579700 -13.206400
O -3.220400 -9.648900 -11.005400
H -2.382200 -9.228600 -11.271100
34
Fragment
H -11.778400 -8.047400 -17.112600
H -11.508500 -8.132400 -15.614400
N -11.451900 -8.512800 -16.412300
H -10.359000 -9.095900 -18.701500
C -10.274100 -9.184100 -16.658100
C -9.847100 -9.426400 -17.972700
H -9.776500 -9.531600 -14.699300
C -9.497100 -9.676400 -15.595800
C -8.690500 -10.140700 -18.218300
H -8.420800 -10.307700 -19.113900
C -8.334100 -10.366600 -15.846700
C -7.912900 -10.620200 -17.158400
H -7.808100 -10.676500 -15.118800
C -6.660300 -11.336300 -17.426200
O -6.305700 -11.664800 -18.568500
O -5.922800 -11.595600 -16.367500
H -5.084700 -12.015900 -16.633200
H -9.075900 -13.197100 -11.750500
H -8.806000 -13.112100 -10.252300
N -8.749400 -12.731700 -11.050200
H -7.656600 -12.148600 -13.339400
C -7.571600 -12.060400 -11.296000
C -7.144600 -11.818100 -12.610600
H -7.074100 -11.712900 -9.337200
C -6.794600 -11.568100 -10.233700
C -5.988000 -11.103800 -12.856200
H -5.718300 -10.936800 -13.751800
C -5.631600 -10.877900 -10.484600
C -5.210400 -10.624300 -11.796300
H -5.105600 -10.568000 -9.756700
C -3.957800 -9.908200 -12.064100
O -3.603200 -9.579700 -13.206400
O -3.220400 -9.648900 -11.005400
H -2.382200 -9.228600 -11.271100
