17
Fragment
H -11.778400 -8.047400 -17.112600
H -11.508500 -8.132400 -15.614400
N -11.451900 -8.512800 -16.412300
H -10.359000 -9.095900 -18.701500
C -10.274100 -9.184100 -16.658100
C -9.847100 -9.426400 -17.972700
H -9.776500 -9.531600 -14.699300
C -9.497100 -9.676400 -15.595800
C -8.690500 -10.140700 -18.218300
H -8.420800 -10.307700 -19.113900
C -8.334100 -10.366600 -15.846700
C -7.912900 -10.620200 -17.158400
H -7.808100 -10.676500 -15.118800
C -6.660300 -11.336300 -17.426200
O -6.305700 -11.664800 -18.568500
O -5.922800 -11.595600 -16.367500
H -5.084700 -12.015900 -16.633200
18
Fragment
H -12.645100 -8.803700 -13.373100
H -12.052400 -6.696900 -11.410900
O -11.804800 -8.455400 -13.250100
H -11.802100 -7.840300 -9.328900
N -11.592700 -8.630400 -11.836500
C -11.286300 -7.308500 -11.273000
C -11.007500 -7.464300 -9.783900
H -10.955000 -10.072200 -9.722100
H -10.807900 -6.581200 -9.383400
H -10.642000 -10.414400 -12.065100
H -10.494800 -6.923400 -11.726300
C -10.442300 -9.531300 -11.664500
C -10.163500 -9.687100 -10.175400
N -9.857100 -8.365200 -9.611900
H -9.647700 -9.155300 -12.119500
O -9.645000 -8.540200 -8.198300
H -9.397400 -10.298700 -10.037500
H -8.804700 -8.191900 -8.075300
35
Fragment
H -11.778400 -8.047400 -17.112600
H -11.508500 -8.132400 -15.614400
N -11.451900 -8.512800 -16.412300
H -10.359000 -9.095900 -18.701500
C -10.274100 -9.184100 -16.658100
C -9.847100 -9.426400 -17.972700
H -9.776500 -9.531600 -14.699300
C -9.497100 -9.676400 -15.595800
C -8.690500 -10.140700 -18.218300
H -8.420800 -10.307700 -19.113900
C -8.334100 -10.366600 -15.846700
C -7.912900 -10.620200 -17.158400
H -7.808100 -10.676500 -15.118800
C -6.660300 -11.336300 -17.426200
O -6.305700 -11.664800 -18.568500
O -5.922800 -11.595600 -16.367500
H -5.084700 -12.015900 -16.633200
H -12.645100 -8.803700 -13.373100
H -12.052400 -6.696900 -11.410900
O -11.804800 -8.455400 -13.250100
H -11.802100 -7.840300 -9.328900
N -11.592700 -8.630400 -11.836500
C -11.286300 -7.308500 -11.273000
C -11.007500 -7.464300 -9.783900
H -10.955000 -10.072200 -9.722100
H -10.807900 -6.581200 -9.383400
H -10.642000 -10.414400 -12.065100
H -10.494800 -6.923400 -11.726300
C -10.442300 -9.531300 -11.664500
C -10.163500 -9.687100 -10.175400
N -9.857100 -8.365200 -9.611900
H -9.647700 -9.155300 -12.119500
O -9.645000 -8.540200 -8.198300
H -9.397400 -10.298700 -10.037500
H -8.804700 -8.191900 -8.075300
