17
Fragment
H -11.778400 -8.047400 -17.112600
H -11.508500 -8.132400 -15.614400
N -11.451900 -8.512800 -16.412300
H -10.359000 -9.095900 -18.701500
C -10.274100 -9.184100 -16.658100
C -9.847100 -9.426400 -17.972700
H -9.776500 -9.531600 -14.699300
C -9.497100 -9.676400 -15.595800
C -8.690500 -10.140700 -18.218300
H -8.420800 -10.307700 -19.113900
C -8.334100 -10.366600 -15.846700
C -7.912900 -10.620200 -17.158400
H -7.808100 -10.676500 -15.118800
C -6.660300 -11.336300 -17.426200
O -6.305700 -11.664800 -18.568500
O -5.922800 -11.595600 -16.367500
H -5.084700 -12.015900 -16.633200
17
Fragment
H -11.130100 -4.979700 -15.539400
O -10.292000 -5.400000 -15.805100
O -9.909200 -5.330800 -13.604100
C -9.554600 -5.659300 -14.746400
H -8.406700 -6.319100 -17.053800
C -8.302000 -6.375400 -15.014200
C -7.880800 -6.629000 -16.325900
H -7.794100 -6.687900 -13.058800
C -7.524400 -6.854900 -13.954300
C -6.717800 -7.319200 -16.576800
H -6.438300 -7.464000 -17.473300
C -6.367800 -7.569200 -14.199900
C -5.940800 -7.811500 -15.514500
H -5.855800 -7.899700 -13.471100
N -4.763000 -8.482800 -15.760300
H -4.706400 -8.863200 -16.558200
H -4.436500 -8.948200 -15.060000
34
Fragment
H -11.778400 -8.047400 -17.112600
H -11.508500 -8.132400 -15.614400
N -11.451900 -8.512800 -16.412300
H -10.359000 -9.095900 -18.701500
C -10.274100 -9.184100 -16.658100
C -9.847100 -9.426400 -17.972700
H -9.776500 -9.531600 -14.699300
C -9.497100 -9.676400 -15.595800
C -8.690500 -10.140700 -18.218300
H -8.420800 -10.307700 -19.113900
C -8.334100 -10.366600 -15.846700
C -7.912900 -10.620200 -17.158400
H -7.808100 -10.676500 -15.118800
C -6.660300 -11.336300 -17.426200
O -6.305700 -11.664800 -18.568500
O -5.922800 -11.595600 -16.367500
H -5.084700 -12.015900 -16.633200
H -11.130100 -4.979700 -15.539400
O -10.292000 -5.400000 -15.805100
O -9.909200 -5.330800 -13.604100
C -9.554600 -5.659300 -14.746400
H -8.406700 -6.319100 -17.053800
C -8.302000 -6.375400 -15.014200
C -7.880800 -6.629000 -16.325900
H -7.794100 -6.687900 -13.058800
C -7.524400 -6.854900 -13.954300
C -6.717800 -7.319200 -16.576800
H -6.438300 -7.464000 -17.473300
C -6.367800 -7.569200 -14.199900
C -5.940800 -7.811500 -15.514500
H -5.855800 -7.899700 -13.471100
N -4.763000 -8.482800 -15.760300
H -4.706400 -8.863200 -16.558200
H -4.436500 -8.948200 -15.060000
