17
Fragment
H -11.778400 -8.047400 -17.112600
H -11.508500 -8.132400 -15.614400
N -11.451900 -8.512800 -16.412300
H -10.359000 -9.095900 -18.701500
C -10.274100 -9.184100 -16.658100
C -9.847100 -9.426400 -17.972700
H -9.776500 -9.531600 -14.699300
C -9.497100 -9.676400 -15.595800
C -8.690500 -10.140700 -18.218300
H -8.420800 -10.307700 -19.113900
C -8.334100 -10.366600 -15.846700
C -7.912900 -10.620200 -17.158400
H -7.808100 -10.676500 -15.118800
C -6.660300 -11.336300 -17.426200
O -6.305700 -11.664800 -18.568500
O -5.922800 -11.595600 -16.367500
H -5.084700 -12.015900 -16.633200
17
Fragment
H -14.480800 -13.197100 -22.474700
H -14.210900 -13.112100 -20.976500
N -14.154400 -12.731700 -21.774400
H -13.061500 -12.148600 -24.063600
C -12.976600 -12.060400 -22.020200
C -12.549600 -11.818100 -23.334800
H -12.479000 -11.712900 -20.061400
C -12.199500 -11.568100 -20.957900
C -11.393000 -11.103800 -23.580400
H -11.123300 -10.936800 -24.476000
C -11.036600 -10.877900 -21.208800
C -10.615300 -10.624300 -22.520500
H -10.510600 -10.568000 -20.480900
C -9.362800 -9.908200 -22.788300
O -9.008100 -9.579700 -23.930600
O -8.625300 -9.648900 -21.729600
H -7.787200 -9.228600 -21.995300
34
Fragment
H -11.778400 -8.047400 -17.112600
H -11.508500 -8.132400 -15.614400
N -11.451900 -8.512800 -16.412300
H -10.359000 -9.095900 -18.701500
C -10.274100 -9.184100 -16.658100
C -9.847100 -9.426400 -17.972700
H -9.776500 -9.531600 -14.699300
C -9.497100 -9.676400 -15.595800
C -8.690500 -10.140700 -18.218300
H -8.420800 -10.307700 -19.113900
C -8.334100 -10.366600 -15.846700
C -7.912900 -10.620200 -17.158400
H -7.808100 -10.676500 -15.118800
C -6.660300 -11.336300 -17.426200
O -6.305700 -11.664800 -18.568500
O -5.922800 -11.595600 -16.367500
H -5.084700 -12.015900 -16.633200
H -14.480800 -13.197100 -22.474700
H -14.210900 -13.112100 -20.976500
N -14.154400 -12.731700 -21.774400
H -13.061500 -12.148600 -24.063600
C -12.976600 -12.060400 -22.020200
C -12.549600 -11.818100 -23.334800
H -12.479000 -11.712900 -20.061400
C -12.199500 -11.568100 -20.957900
C -11.393000 -11.103800 -23.580400
H -11.123300 -10.936800 -24.476000
C -11.036600 -10.877900 -21.208800
C -10.615300 -10.624300 -22.520500
H -10.510600 -10.568000 -20.480900
C -9.362800 -9.908200 -22.788300
O -9.008100 -9.579700 -23.930600
O -8.625300 -9.648900 -21.729600
H -7.787200 -9.228600 -21.995300
