17
Fragment
H -11.778400 -8.047400 -17.112600
H -11.508500 -8.132400 -15.614400
N -11.451900 -8.512800 -16.412300
H -10.359000 -9.095900 -18.701500
C -10.274100 -9.184100 -16.658100
C -9.847100 -9.426400 -17.972700
H -9.776500 -9.531600 -14.699300
C -9.497100 -9.676400 -15.595800
C -8.690500 -10.140700 -18.218300
H -8.420800 -10.307700 -19.113900
C -8.334100 -10.366600 -15.846700
C -7.912900 -10.620200 -17.158400
H -7.808100 -10.676500 -15.118800
C -6.660300 -11.336300 -17.426200
O -6.305700 -11.664800 -18.568500
O -5.922800 -11.595600 -16.367500
H -5.084700 -12.015900 -16.633200
18
Fragment
H -4.707700 -12.440800 -18.735200
H -4.115000 -14.547600 -16.773000
O -3.867400 -12.789100 -18.612200
H -3.864700 -13.404200 -14.691000
N -3.655300 -12.614100 -17.198600
C -3.348900 -13.936000 -16.635100
C -3.070100 -13.780200 -15.146000
H -3.017600 -11.172300 -15.084200
H -2.870400 -14.663300 -14.745500
H -2.704500 -10.830100 -17.427200
H -2.557400 -14.321100 -17.088400
C -2.504900 -11.713200 -17.026600
C -2.226100 -11.557400 -15.537500
N -1.919700 -12.879300 -14.974000
H -1.710200 -12.089200 -17.481600
O -1.707600 -12.704300 -13.560400
H -1.460000 -10.945800 -15.399600
H -0.867300 -13.052600 -13.437400
35
Fragment
H -11.778400 -8.047400 -17.112600
H -11.508500 -8.132400 -15.614400
N -11.451900 -8.512800 -16.412300
H -10.359000 -9.095900 -18.701500
C -10.274100 -9.184100 -16.658100
C -9.847100 -9.426400 -17.972700
H -9.776500 -9.531600 -14.699300
C -9.497100 -9.676400 -15.595800
C -8.690500 -10.140700 -18.218300
H -8.420800 -10.307700 -19.113900
C -8.334100 -10.366600 -15.846700
C -7.912900 -10.620200 -17.158400
H -7.808100 -10.676500 -15.118800
C -6.660300 -11.336300 -17.426200
O -6.305700 -11.664800 -18.568500
O -5.922800 -11.595600 -16.367500
H -5.084700 -12.015900 -16.633200
H -4.707700 -12.440800 -18.735200
H -4.115000 -14.547600 -16.773000
O -3.867400 -12.789100 -18.612200
H -3.864700 -13.404200 -14.691000
N -3.655300 -12.614100 -17.198600
C -3.348900 -13.936000 -16.635100
C -3.070100 -13.780200 -15.146000
H -3.017600 -11.172300 -15.084200
H -2.870400 -14.663300 -14.745500
H -2.704500 -10.830100 -17.427200
H -2.557400 -14.321100 -17.088400
C -2.504900 -11.713200 -17.026600
C -2.226100 -11.557400 -15.537500
N -1.919700 -12.879300 -14.974000
H -1.710200 -12.089200 -17.481600
O -1.707600 -12.704300 -13.560400
H -1.460000 -10.945800 -15.399600
H -0.867300 -13.052600 -13.437400
