23
Fragment
O -14.025000 -47.737800 -23.025600
N -13.673300 -46.662600 -22.533700
O -13.637600 -45.584700 -23.100500
H -13.466300 -48.646600 -20.457500
C -13.296200 -46.735500 -21.146300
C -13.233500 -47.741600 -20.288300
O -12.884700 -45.570000 -20.606100
C -12.752300 -47.203800 -19.072600
H -12.605400 -47.668500 -18.255600
C -12.542600 -45.877100 -19.320300
C -12.029300 -44.792800 -18.529900
H -11.931700 -43.924900 -18.905800
H -11.731000 -42.165400 -17.389100
N -11.707900 -45.013900 -17.319000
N -11.191300 -43.980600 -16.612100
C -10.903900 -42.631500 -17.108700
O -10.774700 -45.212000 -14.709900
C -10.734400 -44.184300 -15.352800
C -10.294100 -41.985000 -15.895400
H -10.267200 -42.653100 -17.865300
N -10.204600 -42.973100 -14.928600
O -9.937700 -40.842500 -15.762500
H -9.850800 -42.847000 -14.133400
19
Fragment
O -9.176400 -42.585500 -12.382300
H -8.685100 -40.813200 -12.662700
C -8.650900 -41.539200 -12.051200
H -8.180900 -43.223900 -10.080100
C -7.978400 -41.326900 -10.791900
C -7.849300 -42.358000 -9.867400
H -7.534900 -39.341800 -11.090400
C -7.465000 -40.053700 -10.464400
H -7.319200 -37.352300 -9.936300
C -7.251800 -42.143500 -8.654100
H -7.170900 -42.860900 -8.036500
C -6.870200 -39.833400 -9.257100
C -6.763900 -40.885800 -8.319300
C -6.383200 -37.551800 -9.724800
O -6.324900 -38.650700 -8.820800
O -6.200800 -40.699800 -7.115700
H -5.984200 -39.893200 -7.029800
H -5.967000 -36.767600 -9.311500
H -5.903800 -37.781800 -10.549000
42
Fragment
O -14.025000 -47.737800 -23.025600
N -13.673300 -46.662600 -22.533700
O -13.637600 -45.584700 -23.100500
H -13.466300 -48.646600 -20.457500
C -13.296200 -46.735500 -21.146300
C -13.233500 -47.741600 -20.288300
O -12.884700 -45.570000 -20.606100
C -12.752300 -47.203800 -19.072600
H -12.605400 -47.668500 -18.255600
C -12.542600 -45.877100 -19.320300
C -12.029300 -44.792800 -18.529900
H -11.931700 -43.924900 -18.905800
H -11.731000 -42.165400 -17.389100
N -11.707900 -45.013900 -17.319000
N -11.191300 -43.980600 -16.612100
C -10.903900 -42.631500 -17.108700
O -10.774700 -45.212000 -14.709900
C -10.734400 -44.184300 -15.352800
C -10.294100 -41.985000 -15.895400
H -10.267200 -42.653100 -17.865300
N -10.204600 -42.973100 -14.928600
O -9.937700 -40.842500 -15.762500
H -9.850800 -42.847000 -14.133400
O -9.176400 -42.585500 -12.382300
H -8.685100 -40.813200 -12.662700
C -8.650900 -41.539200 -12.051200
H -8.180900 -43.223900 -10.080100
C -7.978400 -41.326900 -10.791900
C -7.849300 -42.358000 -9.867400
H -7.534900 -39.341800 -11.090400
C -7.465000 -40.053700 -10.464400
H -7.319200 -37.352300 -9.936300
C -7.251800 -42.143500 -8.654100
H -7.170900 -42.860900 -8.036500
C -6.870200 -39.833400 -9.257100
C -6.763900 -40.885800 -8.319300
C -6.383200 -37.551800 -9.724800
O -6.324900 -38.650700 -8.820800
O -6.200800 -40.699800 -7.115700
H -5.984200 -39.893200 -7.029800
H -5.967000 -36.767600 -9.311500
H -5.903800 -37.781800 -10.549000
