23
Fragment
O -14.025000 -47.737800 -23.025600
N -13.673300 -46.662600 -22.533700
O -13.637600 -45.584700 -23.100500
H -13.466300 -48.646600 -20.457500
C -13.296200 -46.735500 -21.146300
C -13.233500 -47.741600 -20.288300
O -12.884700 -45.570000 -20.606100
C -12.752300 -47.203800 -19.072600
H -12.605400 -47.668500 -18.255600
C -12.542600 -45.877100 -19.320300
C -12.029300 -44.792800 -18.529900
H -11.931700 -43.924900 -18.905800
H -11.731000 -42.165400 -17.389100
N -11.707900 -45.013900 -17.319000
N -11.191300 -43.980600 -16.612100
C -10.903900 -42.631500 -17.108700
O -10.774700 -45.212000 -14.709900
C -10.734400 -44.184300 -15.352800
C -10.294100 -41.985000 -15.895400
H -10.267200 -42.653100 -17.865300
N -10.204600 -42.973100 -14.928600
O -9.937700 -40.842500 -15.762500
H -9.850800 -42.847000 -14.133400
19
Fragment
H -12.147300 -37.083500 -18.838100
O -12.109200 -38.644400 -17.841100
C -11.925600 -37.450900 -17.990900
H -11.485800 -34.902800 -18.196400
C -11.400000 -36.539600 -16.993900
H -11.253400 -37.986800 -13.146100
C -11.238800 -35.205100 -17.329900
H -11.148700 -37.900900 -15.480900
C -11.031800 -36.986800 -15.714100
C -10.723600 -34.312000 -16.415100
H -10.624500 -33.398100 -16.654300
C -10.507700 -36.118900 -14.805300
C -10.351100 -34.732600 -15.157000
C -10.294800 -37.782900 -13.124300
O -10.083300 -36.421000 -13.546100
H -9.957000 -37.898100 -12.211900
H -9.818000 -38.388600 -13.728600
O -9.808200 -33.931000 -14.228900
H -9.710200 -33.159800 -14.547900
42
Fragment
O -14.025000 -47.737800 -23.025600
N -13.673300 -46.662600 -22.533700
O -13.637600 -45.584700 -23.100500
H -13.466300 -48.646600 -20.457500
C -13.296200 -46.735500 -21.146300
C -13.233500 -47.741600 -20.288300
O -12.884700 -45.570000 -20.606100
C -12.752300 -47.203800 -19.072600
H -12.605400 -47.668500 -18.255600
C -12.542600 -45.877100 -19.320300
C -12.029300 -44.792800 -18.529900
H -11.931700 -43.924900 -18.905800
H -11.731000 -42.165400 -17.389100
N -11.707900 -45.013900 -17.319000
N -11.191300 -43.980600 -16.612100
C -10.903900 -42.631500 -17.108700
O -10.774700 -45.212000 -14.709900
C -10.734400 -44.184300 -15.352800
C -10.294100 -41.985000 -15.895400
H -10.267200 -42.653100 -17.865300
N -10.204600 -42.973100 -14.928600
O -9.937700 -40.842500 -15.762500
H -9.850800 -42.847000 -14.133400
H -12.147300 -37.083500 -18.838100
O -12.109200 -38.644400 -17.841100
C -11.925600 -37.450900 -17.990900
H -11.485800 -34.902800 -18.196400
C -11.400000 -36.539600 -16.993900
H -11.253400 -37.986800 -13.146100
C -11.238800 -35.205100 -17.329900
H -11.148700 -37.900900 -15.480900
C -11.031800 -36.986800 -15.714100
C -10.723600 -34.312000 -16.415100
H -10.624500 -33.398100 -16.654300
C -10.507700 -36.118900 -14.805300
C -10.351100 -34.732600 -15.157000
C -10.294800 -37.782900 -13.124300
O -10.083300 -36.421000 -13.546100
H -9.957000 -37.898100 -12.211900
H -9.818000 -38.388600 -13.728600
O -9.808200 -33.931000 -14.228900
H -9.710200 -33.159800 -14.547900
