23
Fragment
O -14.025000 -47.737800 -23.025600
N -13.673300 -46.662600 -22.533700
O -13.637600 -45.584700 -23.100500
H -13.466300 -48.646600 -20.457500
C -13.296200 -46.735500 -21.146300
C -13.233500 -47.741600 -20.288300
O -12.884700 -45.570000 -20.606100
C -12.752300 -47.203800 -19.072600
H -12.605400 -47.668500 -18.255600
C -12.542600 -45.877100 -19.320300
C -12.029300 -44.792800 -18.529900
H -11.931700 -43.924900 -18.905800
H -11.731000 -42.165400 -17.389100
N -11.707900 -45.013900 -17.319000
N -11.191300 -43.980600 -16.612100
C -10.903900 -42.631500 -17.108700
O -10.774700 -45.212000 -14.709900
C -10.734400 -44.184300 -15.352800
C -10.294100 -41.985000 -15.895400
H -10.267200 -42.653100 -17.865300
N -10.204600 -42.973100 -14.928600
O -9.937700 -40.842500 -15.762500
H -9.850800 -42.847000 -14.133400
23
Fragment
O -13.836300 -49.245100 -29.068100
N -13.484600 -50.320300 -28.576200
O -13.448800 -51.398200 -29.143000
H -13.277500 -48.336300 -26.500000
C -13.107400 -50.247400 -27.188800
C -13.044800 -49.241300 -26.330800
O -12.695900 -51.412900 -26.648600
C -12.563500 -49.779100 -25.115100
H -12.416700 -49.314400 -24.298100
C -12.353800 -51.105800 -25.362800
C -11.840500 -52.190100 -24.572400
H -11.743000 -53.058000 -24.948300
H -11.542200 -54.817500 -23.431600
N -11.519200 -51.969000 -23.361500
N -11.002500 -53.002300 -22.654600
C -10.715100 -54.351400 -23.151200
O -10.586000 -51.770900 -20.752400
C -10.545700 -52.798600 -21.395300
C -10.105400 -54.997900 -21.937900
H -10.078500 -54.329800 -23.907800
N -10.015900 -54.009800 -20.971100
O -9.748900 -56.140400 -21.805000
H -9.662100 -54.135900 -20.175900
46
Fragment
O -14.025000 -47.737800 -23.025600
N -13.673300 -46.662600 -22.533700
O -13.637600 -45.584700 -23.100500
H -13.466300 -48.646600 -20.457500
C -13.296200 -46.735500 -21.146300
C -13.233500 -47.741600 -20.288300
O -12.884700 -45.570000 -20.606100
C -12.752300 -47.203800 -19.072600
H -12.605400 -47.668500 -18.255600
C -12.542600 -45.877100 -19.320300
C -12.029300 -44.792800 -18.529900
H -11.931700 -43.924900 -18.905800
H -11.731000 -42.165400 -17.389100
N -11.707900 -45.013900 -17.319000
N -11.191300 -43.980600 -16.612100
C -10.903900 -42.631500 -17.108700
O -10.774700 -45.212000 -14.709900
C -10.734400 -44.184300 -15.352800
C -10.294100 -41.985000 -15.895400
H -10.267200 -42.653100 -17.865300
N -10.204600 -42.973100 -14.928600
O -9.937700 -40.842500 -15.762500
H -9.850800 -42.847000 -14.133400
O -13.836300 -49.245100 -29.068100
N -13.484600 -50.320300 -28.576200
O -13.448800 -51.398200 -29.143000
H -13.277500 -48.336300 -26.500000
C -13.107400 -50.247400 -27.188800
C -13.044800 -49.241300 -26.330800
O -12.695900 -51.412900 -26.648600
C -12.563500 -49.779100 -25.115100
H -12.416700 -49.314400 -24.298100
C -12.353800 -51.105800 -25.362800
C -11.840500 -52.190100 -24.572400
H -11.743000 -53.058000 -24.948300
H -11.542200 -54.817500 -23.431600
N -11.519200 -51.969000 -23.361500
N -11.002500 -53.002300 -22.654600
C -10.715100 -54.351400 -23.151200
O -10.586000 -51.770900 -20.752400
C -10.545700 -52.798600 -21.395300
C -10.105400 -54.997900 -21.937900
H -10.078500 -54.329800 -23.907800
N -10.015900 -54.009800 -20.971100
O -9.748900 -56.140400 -21.805000
H -9.662100 -54.135900 -20.175900
