23
Fragment
O -14.025000 -47.737800 -23.025600
N -13.673300 -46.662600 -22.533700
O -13.637600 -45.584700 -23.100500
H -13.466300 -48.646600 -20.457500
C -13.296200 -46.735500 -21.146300
C -13.233500 -47.741600 -20.288300
O -12.884700 -45.570000 -20.606100
C -12.752300 -47.203800 -19.072600
H -12.605400 -47.668500 -18.255600
C -12.542600 -45.877100 -19.320300
C -12.029300 -44.792800 -18.529900
H -11.931700 -43.924900 -18.905800
H -11.731000 -42.165400 -17.389100
N -11.707900 -45.013900 -17.319000
N -11.191300 -43.980600 -16.612100
C -10.903900 -42.631500 -17.108700
O -10.774700 -45.212000 -14.709900
C -10.734400 -44.184300 -15.352800
C -10.294100 -41.985000 -15.895400
H -10.267200 -42.653100 -17.865300
N -10.204600 -42.973100 -14.928600
O -9.937700 -40.842500 -15.762500
H -9.850800 -42.847000 -14.133400
19
Fragment
H -10.982100 -47.014500 -15.664600
O -10.884200 -47.785700 -15.983600
H -10.874300 -52.243300 -16.483900
H -10.735400 -51.752800 -18.000600
O -10.609000 -50.275700 -16.666400
C -10.397500 -51.637600 -17.088200
C -10.341300 -48.587300 -15.055500
C -10.184600 -49.973600 -15.407200
H -10.067800 -47.252800 -13.558200
C -9.968800 -48.166700 -13.797500
C -9.660500 -50.841500 -14.498400
H -9.543600 -51.755600 -14.731600
C -9.453500 -49.059800 -12.882600
H -9.439000 -51.841500 -17.066400
C -9.292300 -50.394300 -13.218600
H -9.206600 -48.757500 -12.016100
C -8.766700 -51.305600 -12.221600
O -8.583200 -52.499100 -12.371400
H -8.545100 -50.938200 -11.374400
42
Fragment
O -14.025000 -47.737800 -23.025600
N -13.673300 -46.662600 -22.533700
O -13.637600 -45.584700 -23.100500
H -13.466300 -48.646600 -20.457500
C -13.296200 -46.735500 -21.146300
C -13.233500 -47.741600 -20.288300
O -12.884700 -45.570000 -20.606100
C -12.752300 -47.203800 -19.072600
H -12.605400 -47.668500 -18.255600
C -12.542600 -45.877100 -19.320300
C -12.029300 -44.792800 -18.529900
H -11.931700 -43.924900 -18.905800
H -11.731000 -42.165400 -17.389100
N -11.707900 -45.013900 -17.319000
N -11.191300 -43.980600 -16.612100
C -10.903900 -42.631500 -17.108700
O -10.774700 -45.212000 -14.709900
C -10.734400 -44.184300 -15.352800
C -10.294100 -41.985000 -15.895400
H -10.267200 -42.653100 -17.865300
N -10.204600 -42.973100 -14.928600
O -9.937700 -40.842500 -15.762500
H -9.850800 -42.847000 -14.133400
H -10.982100 -47.014500 -15.664600
O -10.884200 -47.785700 -15.983600
H -10.874300 -52.243300 -16.483900
H -10.735400 -51.752800 -18.000600
O -10.609000 -50.275700 -16.666400
C -10.397500 -51.637600 -17.088200
C -10.341300 -48.587300 -15.055500
C -10.184600 -49.973600 -15.407200
H -10.067800 -47.252800 -13.558200
C -9.968800 -48.166700 -13.797500
C -9.660500 -50.841500 -14.498400
H -9.543600 -51.755600 -14.731600
C -9.453500 -49.059800 -12.882600
H -9.439000 -51.841500 -17.066400
C -9.292300 -50.394300 -13.218600
H -9.206600 -48.757500 -12.016100
C -8.766700 -51.305600 -12.221600
O -8.583200 -52.499100 -12.371400
H -8.545100 -50.938200 -11.374400
