23
Fragment
O -14.025000 -47.737800 -23.025600
N -13.673300 -46.662600 -22.533700
O -13.637600 -45.584700 -23.100500
H -13.466300 -48.646600 -20.457500
C -13.296200 -46.735500 -21.146300
C -13.233500 -47.741600 -20.288300
O -12.884700 -45.570000 -20.606100
C -12.752300 -47.203800 -19.072600
H -12.605400 -47.668500 -18.255600
C -12.542600 -45.877100 -19.320300
C -12.029300 -44.792800 -18.529900
H -11.931700 -43.924900 -18.905800
H -11.731000 -42.165400 -17.389100
N -11.707900 -45.013900 -17.319000
N -11.191300 -43.980600 -16.612100
C -10.903900 -42.631500 -17.108700
O -10.774700 -45.212000 -14.709900
C -10.734400 -44.184300 -15.352800
C -10.294100 -41.985000 -15.895400
H -10.267200 -42.653100 -17.865300
N -10.204600 -42.973100 -14.928600
O -9.937700 -40.842500 -15.762500
H -9.850800 -42.847000 -14.133400
19
Fragment
H -10.793400 -49.968400 -21.707100
O -10.695500 -49.197200 -22.026100
H -10.685600 -44.739600 -22.526500
H -10.546600 -45.230100 -24.043100
O -10.420300 -46.707200 -22.708900
C -10.208800 -45.345300 -23.130700
C -10.152500 -48.395600 -21.098000
C -9.995900 -47.009300 -21.449700
H -9.879100 -49.730100 -19.600700
C -9.780000 -48.816200 -19.840000
C -9.471800 -46.141400 -20.540900
H -9.354900 -45.227300 -20.774100
C -9.264800 -47.923100 -18.925100
H -9.250200 -45.141400 -23.108900
C -9.103600 -46.588600 -19.261100
H -9.017800 -48.225400 -18.058600
C -8.578000 -45.677300 -18.264100
O -8.394400 -44.483800 -18.413900
H -8.356300 -46.044700 -17.416900
42
Fragment
O -14.025000 -47.737800 -23.025600
N -13.673300 -46.662600 -22.533700
O -13.637600 -45.584700 -23.100500
H -13.466300 -48.646600 -20.457500
C -13.296200 -46.735500 -21.146300
C -13.233500 -47.741600 -20.288300
O -12.884700 -45.570000 -20.606100
C -12.752300 -47.203800 -19.072600
H -12.605400 -47.668500 -18.255600
C -12.542600 -45.877100 -19.320300
C -12.029300 -44.792800 -18.529900
H -11.931700 -43.924900 -18.905800
H -11.731000 -42.165400 -17.389100
N -11.707900 -45.013900 -17.319000
N -11.191300 -43.980600 -16.612100
C -10.903900 -42.631500 -17.108700
O -10.774700 -45.212000 -14.709900
C -10.734400 -44.184300 -15.352800
C -10.294100 -41.985000 -15.895400
H -10.267200 -42.653100 -17.865300
N -10.204600 -42.973100 -14.928600
O -9.937700 -40.842500 -15.762500
H -9.850800 -42.847000 -14.133400
H -10.793400 -49.968400 -21.707100
O -10.695500 -49.197200 -22.026100
H -10.685600 -44.739600 -22.526500
H -10.546600 -45.230100 -24.043100
O -10.420300 -46.707200 -22.708900
C -10.208800 -45.345300 -23.130700
C -10.152500 -48.395600 -21.098000
C -9.995900 -47.009300 -21.449700
H -9.879100 -49.730100 -19.600700
C -9.780000 -48.816200 -19.840000
C -9.471800 -46.141400 -20.540900
H -9.354900 -45.227300 -20.774100
C -9.264800 -47.923100 -18.925100
H -9.250200 -45.141400 -23.108900
C -9.103600 -46.588600 -19.261100
H -9.017800 -48.225400 -18.058600
C -8.578000 -45.677300 -18.264100
O -8.394400 -44.483800 -18.413900
H -8.356300 -46.044700 -17.416900
