23
Fragment
O -14.025000 -47.737800 -23.025600
N -13.673300 -46.662600 -22.533700
O -13.637600 -45.584700 -23.100500
H -13.466300 -48.646600 -20.457500
C -13.296200 -46.735500 -21.146300
C -13.233500 -47.741600 -20.288300
O -12.884700 -45.570000 -20.606100
C -12.752300 -47.203800 -19.072600
H -12.605400 -47.668500 -18.255600
C -12.542600 -45.877100 -19.320300
C -12.029300 -44.792800 -18.529900
H -11.931700 -43.924900 -18.905800
H -11.731000 -42.165400 -17.389100
N -11.707900 -45.013900 -17.319000
N -11.191300 -43.980600 -16.612100
C -10.903900 -42.631500 -17.108700
O -10.774700 -45.212000 -14.709900
C -10.734400 -44.184300 -15.352800
C -10.294100 -41.985000 -15.895400
H -10.267200 -42.653100 -17.865300
N -10.204600 -42.973100 -14.928600
O -9.937700 -40.842500 -15.762500
H -9.850800 -42.847000 -14.133400
19
Fragment
H -17.816700 -47.014500 -27.749600
O -17.718700 -47.785700 -28.068600
H -17.708900 -52.243300 -28.569000
H -17.569900 -51.752800 -30.085600
O -17.443500 -50.275700 -28.751400
C -17.232000 -51.637600 -29.173200
C -17.175800 -48.587300 -27.140500
C -17.019100 -49.973600 -27.492200
H -16.902400 -47.252800 -25.643200
C -16.803300 -48.166700 -25.882500
C -16.495100 -50.841500 -26.583400
H -16.378200 -51.755600 -26.816600
C -16.288100 -49.059800 -24.967600
H -16.273500 -51.841500 -29.151500
C -16.126900 -50.394300 -25.303600
H -16.041100 -48.757500 -24.101100
C -15.601200 -51.305600 -24.306600
O -15.417700 -52.499100 -24.456400
H -15.379600 -50.938200 -23.459400
42
Fragment
O -14.025000 -47.737800 -23.025600
N -13.673300 -46.662600 -22.533700
O -13.637600 -45.584700 -23.100500
H -13.466300 -48.646600 -20.457500
C -13.296200 -46.735500 -21.146300
C -13.233500 -47.741600 -20.288300
O -12.884700 -45.570000 -20.606100
C -12.752300 -47.203800 -19.072600
H -12.605400 -47.668500 -18.255600
C -12.542600 -45.877100 -19.320300
C -12.029300 -44.792800 -18.529900
H -11.931700 -43.924900 -18.905800
H -11.731000 -42.165400 -17.389100
N -11.707900 -45.013900 -17.319000
N -11.191300 -43.980600 -16.612100
C -10.903900 -42.631500 -17.108700
O -10.774700 -45.212000 -14.709900
C -10.734400 -44.184300 -15.352800
C -10.294100 -41.985000 -15.895400
H -10.267200 -42.653100 -17.865300
N -10.204600 -42.973100 -14.928600
O -9.937700 -40.842500 -15.762500
H -9.850800 -42.847000 -14.133400
H -17.816700 -47.014500 -27.749600
O -17.718700 -47.785700 -28.068600
H -17.708900 -52.243300 -28.569000
H -17.569900 -51.752800 -30.085600
O -17.443500 -50.275700 -28.751400
C -17.232000 -51.637600 -29.173200
C -17.175800 -48.587300 -27.140500
C -17.019100 -49.973600 -27.492200
H -16.902400 -47.252800 -25.643200
C -16.803300 -48.166700 -25.882500
C -16.495100 -50.841500 -26.583400
H -16.378200 -51.755600 -26.816600
C -16.288100 -49.059800 -24.967600
H -16.273500 -51.841500 -29.151500
C -16.126900 -50.394300 -25.303600
H -16.041100 -48.757500 -24.101100
C -15.601200 -51.305600 -24.306600
O -15.417700 -52.499100 -24.456400
H -15.379600 -50.938200 -23.459400
