23
Fragment
O -14.025000 -47.737800 -23.025600
N -13.673300 -46.662600 -22.533700
O -13.637600 -45.584700 -23.100500
H -13.466300 -48.646600 -20.457500
C -13.296200 -46.735500 -21.146300
C -13.233500 -47.741600 -20.288300
O -12.884700 -45.570000 -20.606100
C -12.752300 -47.203800 -19.072600
H -12.605400 -47.668500 -18.255600
C -12.542600 -45.877100 -19.320300
C -12.029300 -44.792800 -18.529900
H -11.931700 -43.924900 -18.905800
H -11.731000 -42.165400 -17.389100
N -11.707900 -45.013900 -17.319000
N -11.191300 -43.980600 -16.612100
C -10.903900 -42.631500 -17.108700
O -10.774700 -45.212000 -14.709900
C -10.734400 -44.184300 -15.352800
C -10.294100 -41.985000 -15.895400
H -10.267200 -42.653100 -17.865300
N -10.204600 -42.973100 -14.928600
O -9.937700 -40.842500 -15.762500
H -9.850800 -42.847000 -14.133400
19
Fragment
H -11.170900 -49.968400 -9.622100
O -11.072900 -49.197200 -9.941100
H -11.063100 -44.739600 -10.441400
H -10.924100 -45.230100 -11.958100
O -10.797700 -46.707200 -10.623900
C -10.586200 -45.345300 -11.045700
C -10.530000 -48.395600 -9.013000
C -10.373300 -47.009300 -9.364700
H -10.256600 -49.730100 -7.515700
C -10.157500 -48.816200 -7.754900
C -9.849300 -46.141400 -8.455900
H -9.732400 -45.227300 -8.689100
C -9.642300 -47.923100 -6.840100
H -9.627700 -45.141400 -11.023900
C -9.481100 -46.588600 -7.176100
H -9.395300 -48.225400 -5.973600
C -8.955400 -45.677300 -6.179100
O -8.771900 -44.483800 -6.328900
H -8.733800 -46.044700 -5.331900
42
Fragment
O -14.025000 -47.737800 -23.025600
N -13.673300 -46.662600 -22.533700
O -13.637600 -45.584700 -23.100500
H -13.466300 -48.646600 -20.457500
C -13.296200 -46.735500 -21.146300
C -13.233500 -47.741600 -20.288300
O -12.884700 -45.570000 -20.606100
C -12.752300 -47.203800 -19.072600
H -12.605400 -47.668500 -18.255600
C -12.542600 -45.877100 -19.320300
C -12.029300 -44.792800 -18.529900
H -11.931700 -43.924900 -18.905800
H -11.731000 -42.165400 -17.389100
N -11.707900 -45.013900 -17.319000
N -11.191300 -43.980600 -16.612100
C -10.903900 -42.631500 -17.108700
O -10.774700 -45.212000 -14.709900
C -10.734400 -44.184300 -15.352800
C -10.294100 -41.985000 -15.895400
H -10.267200 -42.653100 -17.865300
N -10.204600 -42.973100 -14.928600
O -9.937700 -40.842500 -15.762500
H -9.850800 -42.847000 -14.133400
H -11.170900 -49.968400 -9.622100
O -11.072900 -49.197200 -9.941100
H -11.063100 -44.739600 -10.441400
H -10.924100 -45.230100 -11.958100
O -10.797700 -46.707200 -10.623900
C -10.586200 -45.345300 -11.045700
C -10.530000 -48.395600 -9.013000
C -10.373300 -47.009300 -9.364700
H -10.256600 -49.730100 -7.515700
C -10.157500 -48.816200 -7.754900
C -9.849300 -46.141400 -8.455900
H -9.732400 -45.227300 -8.689100
C -9.642300 -47.923100 -6.840100
H -9.627700 -45.141400 -11.023900
C -9.481100 -46.588600 -7.176100
H -9.395300 -48.225400 -5.973600
C -8.955400 -45.677300 -6.179100
O -8.771900 -44.483800 -6.328900
H -8.733800 -46.044700 -5.331900
