21
Fragment
O -15.513000 -17.264400 -18.434600
H -15.398400 -16.565600 -18.855800
H -15.138400 -19.107300 -17.123400
O -14.651100 -22.306400 -17.442900
O -14.436400 -20.285700 -19.291800
C -14.305300 -17.729000 -18.284400
H -14.280300 -20.974000 -19.714000
C -14.256400 -18.939000 -17.398800
C -13.914400 -21.378700 -17.206500
H -13.708200 -18.725000 -16.652200
C -13.681000 -20.169000 -18.113000
H -13.356900 -22.060000 -15.531000
O -13.333900 -17.224700 -18.793600
O -13.212200 -21.289800 -16.089800
C -12.179600 -20.009600 -18.394800
O -12.153500 -22.236600 -19.291200
H -12.044400 -19.263400 -18.928600
H -11.730800 -19.848900 -17.562700
C -11.567000 -21.193200 -19.075100
O -10.308000 -20.985900 -19.418300
H -9.983800 -21.731600 -19.884700
23
Fragment
H -18.186600 -15.624300 -16.822900
O -17.953400 -14.175400 -12.964600
H -17.898600 -10.073700 -15.377400
H -17.864500 -8.093400 -17.014100
N -17.852000 -13.075800 -15.495300
C -17.821700 -10.138000 -16.289100
O -17.815700 -7.876100 -19.796400
N -17.806900 -14.428900 -15.247700
C -17.787700 -9.071500 -17.204200
C -17.775100 -14.855100 -13.956000
C -17.741000 -11.291200 -17.008500
C -17.720900 -12.702600 -16.705700
C -17.683900 -9.648900 -18.408400
O -17.645000 -10.999700 -18.341600
N -17.645000 -9.091000 -19.707000
H -17.621300 -13.328300 -17.460300
N -17.509700 -16.204700 -13.984700
H -17.479500 -16.714900 -13.294400
O -17.456500 -9.843100 -20.656100
C -17.447300 -15.494600 -16.177500
C -17.298900 -16.675800 -15.252200
O -17.035300 -17.821900 -15.547200
H -16.584600 -15.279900 -16.674900
44
Fragment
O -15.513000 -17.264400 -18.434600
H -15.398400 -16.565600 -18.855800
H -15.138400 -19.107300 -17.123400
O -14.651100 -22.306400 -17.442900
O -14.436400 -20.285700 -19.291800
C -14.305300 -17.729000 -18.284400
H -14.280300 -20.974000 -19.714000
C -14.256400 -18.939000 -17.398800
C -13.914400 -21.378700 -17.206500
H -13.708200 -18.725000 -16.652200
C -13.681000 -20.169000 -18.113000
H -13.356900 -22.060000 -15.531000
O -13.333900 -17.224700 -18.793600
O -13.212200 -21.289800 -16.089800
C -12.179600 -20.009600 -18.394800
O -12.153500 -22.236600 -19.291200
H -12.044400 -19.263400 -18.928600
H -11.730800 -19.848900 -17.562700
C -11.567000 -21.193200 -19.075100
O -10.308000 -20.985900 -19.418300
H -9.983800 -21.731600 -19.884700
H -18.186600 -15.624300 -16.822900
O -17.953400 -14.175400 -12.964600
H -17.898600 -10.073700 -15.377400
H -17.864500 -8.093400 -17.014100
N -17.852000 -13.075800 -15.495300
C -17.821700 -10.138000 -16.289100
O -17.815700 -7.876100 -19.796400
N -17.806900 -14.428900 -15.247700
C -17.787700 -9.071500 -17.204200
C -17.775100 -14.855100 -13.956000
C -17.741000 -11.291200 -17.008500
C -17.720900 -12.702600 -16.705700
C -17.683900 -9.648900 -18.408400
O -17.645000 -10.999700 -18.341600
N -17.645000 -9.091000 -19.707000
H -17.621300 -13.328300 -17.460300
N -17.509700 -16.204700 -13.984700
H -17.479500 -16.714900 -13.294400
O -17.456500 -9.843100 -20.656100
C -17.447300 -15.494600 -16.177500
C -17.298900 -16.675800 -15.252200
O -17.035300 -17.821900 -15.547200
H -16.584600 -15.279900 -16.674900
