21
Fragment
O -15.513000 -17.264400 -18.434600
H -15.398400 -16.565600 -18.855800
H -15.138400 -19.107300 -17.123400
O -14.651100 -22.306400 -17.442900
O -14.436400 -20.285700 -19.291800
C -14.305300 -17.729000 -18.284400
H -14.280300 -20.974000 -19.714000
C -14.256400 -18.939000 -17.398800
C -13.914400 -21.378700 -17.206500
H -13.708200 -18.725000 -16.652200
C -13.681000 -20.169000 -18.113000
H -13.356900 -22.060000 -15.531000
O -13.333900 -17.224700 -18.793600
O -13.212200 -21.289800 -16.089800
C -12.179600 -20.009600 -18.394800
O -12.153500 -22.236600 -19.291200
H -12.044400 -19.263400 -18.928600
H -11.730800 -19.848900 -17.562700
C -11.567000 -21.193200 -19.075100
O -10.308000 -20.985900 -19.418300
H -9.983800 -21.731600 -19.884700
21
Fragment
O -18.015500 -22.915600 -12.743500
H -17.900900 -23.614400 -13.164700
H -17.640900 -21.072700 -11.432300
O -17.153600 -17.873600 -11.751800
O -16.938800 -19.894300 -13.600700
C -16.807800 -22.451000 -12.593300
H -16.782800 -19.206000 -14.022900
C -16.758900 -21.241000 -11.707700
C -16.416900 -18.801300 -11.515400
H -16.210700 -21.455000 -10.961100
C -16.183500 -20.011000 -12.421900
H -15.859400 -18.120000 -9.839900
O -15.836400 -22.955300 -13.102500
O -15.714600 -18.890200 -10.398700
C -14.682100 -20.170400 -12.703700
O -14.656000 -17.943400 -13.600100
H -14.546900 -20.916600 -13.237500
H -14.233300 -20.331100 -11.871600
C -14.069500 -18.986800 -13.384000
O -12.810500 -19.194100 -13.727200
H -12.486300 -18.448400 -14.193600
42
Fragment
O -15.513000 -17.264400 -18.434600
H -15.398400 -16.565600 -18.855800
H -15.138400 -19.107300 -17.123400
O -14.651100 -22.306400 -17.442900
O -14.436400 -20.285700 -19.291800
C -14.305300 -17.729000 -18.284400
H -14.280300 -20.974000 -19.714000
C -14.256400 -18.939000 -17.398800
C -13.914400 -21.378700 -17.206500
H -13.708200 -18.725000 -16.652200
C -13.681000 -20.169000 -18.113000
H -13.356900 -22.060000 -15.531000
O -13.333900 -17.224700 -18.793600
O -13.212200 -21.289800 -16.089800
C -12.179600 -20.009600 -18.394800
O -12.153500 -22.236600 -19.291200
H -12.044400 -19.263400 -18.928600
H -11.730800 -19.848900 -17.562700
C -11.567000 -21.193200 -19.075100
O -10.308000 -20.985900 -19.418300
H -9.983800 -21.731600 -19.884700
O -18.015500 -22.915600 -12.743500
H -17.900900 -23.614400 -13.164700
H -17.640900 -21.072700 -11.432300
O -17.153600 -17.873600 -11.751800
O -16.938800 -19.894300 -13.600700
C -16.807800 -22.451000 -12.593300
H -16.782800 -19.206000 -14.022900
C -16.758900 -21.241000 -11.707700
C -16.416900 -18.801300 -11.515400
H -16.210700 -21.455000 -10.961100
C -16.183500 -20.011000 -12.421900
H -15.859400 -18.120000 -9.839900
O -15.836400 -22.955300 -13.102500
O -15.714600 -18.890200 -10.398700
C -14.682100 -20.170400 -12.703700
O -14.656000 -17.943400 -13.600100
H -14.546900 -20.916600 -13.237500
H -14.233300 -20.331100 -11.871600
C -14.069500 -18.986800 -13.384000
O -12.810500 -19.194100 -13.727200
H -12.486300 -18.448400 -14.193600
