21
Fragment
O -15.513000 -17.264400 -18.434600
H -15.398400 -16.565600 -18.855800
H -15.138400 -19.107300 -17.123400
O -14.651100 -22.306400 -17.442900
O -14.436400 -20.285700 -19.291800
C -14.305300 -17.729000 -18.284400
H -14.280300 -20.974000 -19.714000
C -14.256400 -18.939000 -17.398800
C -13.914400 -21.378700 -17.206500
H -13.708200 -18.725000 -16.652200
C -13.681000 -20.169000 -18.113000
H -13.356900 -22.060000 -15.531000
O -13.333900 -17.224700 -18.793600
O -13.212200 -21.289800 -16.089800
C -12.179600 -20.009600 -18.394800
O -12.153500 -22.236600 -19.291200
H -12.044400 -19.263400 -18.928600
H -11.730800 -19.848900 -17.562700
C -11.567000 -21.193200 -19.075100
O -10.308000 -20.985900 -19.418300
H -9.983800 -21.731600 -19.884700
23
Fragment
H -15.684100 -13.075700 -22.514000
O -15.450900 -14.524600 -18.655700
H -15.396100 -18.626300 -21.068500
H -15.362100 -20.606600 -22.705200
N -15.349500 -15.624200 -21.186400
C -15.319200 -18.562000 -21.980200
O -15.313200 -20.823900 -25.487500
N -15.304400 -14.271100 -20.938800
C -15.285200 -19.628500 -22.895300
C -15.272600 -13.844900 -19.647100
C -15.238500 -17.408800 -22.699600
C -15.218500 -15.997400 -22.396800
C -15.181400 -19.051100 -24.099500
N -15.142500 -19.609000 -25.398100
O -15.142500 -17.700300 -24.032700
H -15.118800 -15.371700 -23.151400
N -15.007200 -12.495300 -19.675900
H -14.977000 -11.985100 -18.985500
O -14.954000 -18.856900 -26.347200
C -14.944800 -13.205400 -21.868600
C -14.796500 -12.024200 -20.943300
O -14.532800 -10.878100 -21.238300
H -14.082100 -13.420100 -22.366000
44
Fragment
O -15.513000 -17.264400 -18.434600
H -15.398400 -16.565600 -18.855800
H -15.138400 -19.107300 -17.123400
O -14.651100 -22.306400 -17.442900
O -14.436400 -20.285700 -19.291800
C -14.305300 -17.729000 -18.284400
H -14.280300 -20.974000 -19.714000
C -14.256400 -18.939000 -17.398800
C -13.914400 -21.378700 -17.206500
H -13.708200 -18.725000 -16.652200
C -13.681000 -20.169000 -18.113000
H -13.356900 -22.060000 -15.531000
O -13.333900 -17.224700 -18.793600
O -13.212200 -21.289800 -16.089800
C -12.179600 -20.009600 -18.394800
O -12.153500 -22.236600 -19.291200
H -12.044400 -19.263400 -18.928600
H -11.730800 -19.848900 -17.562700
C -11.567000 -21.193200 -19.075100
O -10.308000 -20.985900 -19.418300
H -9.983800 -21.731600 -19.884700
H -15.684100 -13.075700 -22.514000
O -15.450900 -14.524600 -18.655700
H -15.396100 -18.626300 -21.068500
H -15.362100 -20.606600 -22.705200
N -15.349500 -15.624200 -21.186400
C -15.319200 -18.562000 -21.980200
O -15.313200 -20.823900 -25.487500
N -15.304400 -14.271100 -20.938800
C -15.285200 -19.628500 -22.895300
C -15.272600 -13.844900 -19.647100
C -15.238500 -17.408800 -22.699600
C -15.218500 -15.997400 -22.396800
C -15.181400 -19.051100 -24.099500
N -15.142500 -19.609000 -25.398100
O -15.142500 -17.700300 -24.032700
H -15.118800 -15.371700 -23.151400
N -15.007200 -12.495300 -19.675900
H -14.977000 -11.985100 -18.985500
O -14.954000 -18.856900 -26.347200
C -14.944800 -13.205400 -21.868600
C -14.796500 -12.024200 -20.943300
O -14.532800 -10.878100 -21.238300
H -14.082100 -13.420100 -22.366000
