21
Fragment
O -15.513000 -17.264400 -18.434600
H -15.398400 -16.565600 -18.855800
H -15.138400 -19.107300 -17.123400
O -14.651100 -22.306400 -17.442900
O -14.436400 -20.285700 -19.291800
C -14.305300 -17.729000 -18.284400
H -14.280300 -20.974000 -19.714000
C -14.256400 -18.939000 -17.398800
C -13.914400 -21.378700 -17.206500
H -13.708200 -18.725000 -16.652200
C -13.681000 -20.169000 -18.113000
H -13.356900 -22.060000 -15.531000
O -13.333900 -17.224700 -18.793600
O -13.212200 -21.289800 -16.089800
C -12.179600 -20.009600 -18.394800
O -12.153500 -22.236600 -19.291200
H -12.044400 -19.263400 -18.928600
H -11.730800 -19.848900 -17.562700
C -11.567000 -21.193200 -19.075100
O -10.308000 -20.985900 -19.418300
H -9.983800 -21.731600 -19.884700
23
Fragment
H -15.684100 -24.555700 -22.514000
O -15.450900 -26.004600 -18.655700
H -15.396100 -30.106300 -21.068500
H -15.362100 -32.086600 -22.705200
N -15.349500 -27.104200 -21.186400
C -15.319200 -30.042000 -21.980200
O -15.313200 -32.303900 -25.487500
N -15.304400 -25.751100 -20.938800
C -15.285200 -31.108500 -22.895300
C -15.272600 -25.324900 -19.647100
C -15.238500 -28.888800 -22.699600
C -15.218500 -27.477400 -22.396800
C -15.181400 -30.531100 -24.099500
N -15.142500 -31.089000 -25.398100
O -15.142500 -29.180300 -24.032700
H -15.118800 -26.851700 -23.151400
N -15.007200 -23.975300 -19.675900
H -14.977000 -23.465100 -18.985500
O -14.954000 -30.336900 -26.347200
C -14.944800 -24.685400 -21.868600
C -14.796500 -23.504200 -20.943300
O -14.532800 -22.358100 -21.238300
H -14.082100 -24.900100 -22.366000
44
Fragment
O -15.513000 -17.264400 -18.434600
H -15.398400 -16.565600 -18.855800
H -15.138400 -19.107300 -17.123400
O -14.651100 -22.306400 -17.442900
O -14.436400 -20.285700 -19.291800
C -14.305300 -17.729000 -18.284400
H -14.280300 -20.974000 -19.714000
C -14.256400 -18.939000 -17.398800
C -13.914400 -21.378700 -17.206500
H -13.708200 -18.725000 -16.652200
C -13.681000 -20.169000 -18.113000
H -13.356900 -22.060000 -15.531000
O -13.333900 -17.224700 -18.793600
O -13.212200 -21.289800 -16.089800
C -12.179600 -20.009600 -18.394800
O -12.153500 -22.236600 -19.291200
H -12.044400 -19.263400 -18.928600
H -11.730800 -19.848900 -17.562700
C -11.567000 -21.193200 -19.075100
O -10.308000 -20.985900 -19.418300
H -9.983800 -21.731600 -19.884700
H -15.684100 -24.555700 -22.514000
O -15.450900 -26.004600 -18.655700
H -15.396100 -30.106300 -21.068500
H -15.362100 -32.086600 -22.705200
N -15.349500 -27.104200 -21.186400
C -15.319200 -30.042000 -21.980200
O -15.313200 -32.303900 -25.487500
N -15.304400 -25.751100 -20.938800
C -15.285200 -31.108500 -22.895300
C -15.272600 -25.324900 -19.647100
C -15.238500 -28.888800 -22.699600
C -15.218500 -27.477400 -22.396800
C -15.181400 -30.531100 -24.099500
N -15.142500 -31.089000 -25.398100
O -15.142500 -29.180300 -24.032700
H -15.118800 -26.851700 -23.151400
N -15.007200 -23.975300 -19.675900
H -14.977000 -23.465100 -18.985500
O -14.954000 -30.336900 -26.347200
C -14.944800 -24.685400 -21.868600
C -14.796500 -23.504200 -20.943300
O -14.532800 -22.358100 -21.238300
H -14.082100 -24.900100 -22.366000
