26
Fragment
H -10.993000 -17.675900 -21.951700
H -10.993000 -16.485300 -19.908500
H -10.988100 -19.678300 -23.934400
C -10.982400 -18.141300 -21.123400
C -10.975200 -17.434900 -19.893100
C -10.972400 -19.514500 -21.087100
C -10.970200 -20.516600 -23.487400
C -10.962000 -20.582500 -22.094000
H -10.959800 -21.681300 -25.157600
C -10.951400 -21.707700 -24.208000
C -10.948000 -20.178800 -19.824900
C -10.944100 -18.086500 -18.666800
H -10.934300 -17.577800 -17.864300
C -10.931000 -21.835900 -21.428000
C -10.927000 -19.499200 -18.601400
C -10.921100 -22.934800 -23.555500
C -10.916100 -21.578500 -19.969400
C -10.910200 -23.018800 -22.155400
H -10.907600 -23.733500 -24.069300
H -10.889100 -23.861800 -21.717200
C -10.862700 -20.328400 -17.438100
C -10.857000 -22.354200 -18.836000
H -10.841100 -19.935000 -16.573600
H -10.834200 -23.302300 -18.891700
C -10.831900 -21.689800 -17.572400
H -10.791600 -22.220000 -16.785100
20
Fragment
N -10.557400 -28.204100 -13.635200
N -10.518500 -19.243400 -10.549900
C -10.498700 -27.076200 -13.849500
C -10.484600 -20.381100 -10.375600
N -10.477600 -22.380600 -7.585000
C -10.468200 -22.139800 -8.708100
C -10.457600 -21.790100 -10.102400
N -10.455300 -24.981400 -16.616800
H -10.454500 -26.019100 -11.490500
C -10.449200 -25.669400 -14.124500
C -10.446100 -25.294300 -15.510300
C -10.445400 -25.099000 -11.727600
C -10.441900 -24.155600 -10.764800
C -10.441100 -22.748300 -11.089000
H -10.439600 -24.422700 -9.853000
C -10.435400 -24.710900 -13.129500
C -10.421200 -22.369700 -12.489200
C -10.414300 -23.305100 -13.452400
H -10.412300 -21.449800 -12.727300
H -10.395000 -23.036500 -14.363300
46
Fragment
H -10.993000 -17.675900 -21.951700
H -10.993000 -16.485300 -19.908500
H -10.988100 -19.678300 -23.934400
C -10.982400 -18.141300 -21.123400
C -10.975200 -17.434900 -19.893100
C -10.972400 -19.514500 -21.087100
C -10.970200 -20.516600 -23.487400
C -10.962000 -20.582500 -22.094000
H -10.959800 -21.681300 -25.157600
C -10.951400 -21.707700 -24.208000
C -10.948000 -20.178800 -19.824900
C -10.944100 -18.086500 -18.666800
H -10.934300 -17.577800 -17.864300
C -10.931000 -21.835900 -21.428000
C -10.927000 -19.499200 -18.601400
C -10.921100 -22.934800 -23.555500
C -10.916100 -21.578500 -19.969400
C -10.910200 -23.018800 -22.155400
H -10.907600 -23.733500 -24.069300
H -10.889100 -23.861800 -21.717200
C -10.862700 -20.328400 -17.438100
C -10.857000 -22.354200 -18.836000
H -10.841100 -19.935000 -16.573600
H -10.834200 -23.302300 -18.891700
C -10.831900 -21.689800 -17.572400
H -10.791600 -22.220000 -16.785100
N -10.557400 -28.204100 -13.635200
N -10.518500 -19.243400 -10.549900
C -10.498700 -27.076200 -13.849500
C -10.484600 -20.381100 -10.375600
N -10.477600 -22.380600 -7.585000
C -10.468200 -22.139800 -8.708100
C -10.457600 -21.790100 -10.102400
N -10.455300 -24.981400 -16.616800
H -10.454500 -26.019100 -11.490500
C -10.449200 -25.669400 -14.124500
C -10.446100 -25.294300 -15.510300
C -10.445400 -25.099000 -11.727600
C -10.441900 -24.155600 -10.764800
C -10.441100 -22.748300 -11.089000
H -10.439600 -24.422700 -9.853000
C -10.435400 -24.710900 -13.129500
C -10.421200 -22.369700 -12.489200
C -10.414300 -23.305100 -13.452400
H -10.412300 -21.449800 -12.727300
H -10.395000 -23.036500 -14.363300
