26
Fragment
H -10.993000 -17.675900 -21.951700
H -10.993000 -16.485300 -19.908500
H -10.988100 -19.678300 -23.934400
C -10.982400 -18.141300 -21.123400
C -10.975200 -17.434900 -19.893100
C -10.972400 -19.514500 -21.087100
C -10.970200 -20.516600 -23.487400
C -10.962000 -20.582500 -22.094000
H -10.959800 -21.681300 -25.157600
C -10.951400 -21.707700 -24.208000
C -10.948000 -20.178800 -19.824900
C -10.944100 -18.086500 -18.666800
H -10.934300 -17.577800 -17.864300
C -10.931000 -21.835900 -21.428000
C -10.927000 -19.499200 -18.601400
C -10.921100 -22.934800 -23.555500
C -10.916100 -21.578500 -19.969400
C -10.910200 -23.018800 -22.155400
H -10.907600 -23.733500 -24.069300
H -10.889100 -23.861800 -21.717200
C -10.862700 -20.328400 -17.438100
C -10.857000 -22.354200 -18.836000
H -10.841100 -19.935000 -16.573600
H -10.834200 -23.302300 -18.891700
C -10.831900 -21.689800 -17.572400
H -10.791600 -22.220000 -16.785100
26
Fragment
H -12.748900 -16.987500 -33.396000
C -12.708600 -17.517700 -32.608600
H -12.706300 -15.905200 -31.289400
H -12.699400 -19.272500 -33.607400
C -12.683500 -16.853300 -31.345100
C -12.677800 -18.879100 -32.743000
H -12.651400 -15.345700 -28.463900
H -12.632800 -15.474000 -26.111700
C -12.630300 -16.188700 -28.025600
C -12.624400 -17.629000 -30.211700
C -12.619400 -16.272700 -26.625600
C -12.613500 -19.708400 -31.579600
C -12.609500 -17.371700 -28.753100
H -12.606200 -21.629700 -32.316800
C -12.596400 -21.121000 -31.514200
C -12.592500 -19.028700 -30.356200
C -12.589100 -17.499800 -25.973000
H -12.580700 -17.526300 -25.023400
C -12.578500 -18.625000 -28.087000
C -12.570300 -18.691000 -26.693600
C -12.568100 -19.693000 -29.094000
C -12.565300 -21.772600 -30.287900
C -12.558100 -21.066200 -29.057700
H -12.552400 -19.529200 -26.246700
H -12.547500 -22.722200 -30.272600
H -12.547500 -21.531700 -28.229300
52
Fragment
H -10.993000 -17.675900 -21.951700
H -10.993000 -16.485300 -19.908500
H -10.988100 -19.678300 -23.934400
C -10.982400 -18.141300 -21.123400
C -10.975200 -17.434900 -19.893100
C -10.972400 -19.514500 -21.087100
C -10.970200 -20.516600 -23.487400
C -10.962000 -20.582500 -22.094000
H -10.959800 -21.681300 -25.157600
C -10.951400 -21.707700 -24.208000
C -10.948000 -20.178800 -19.824900
C -10.944100 -18.086500 -18.666800
H -10.934300 -17.577800 -17.864300
C -10.931000 -21.835900 -21.428000
C -10.927000 -19.499200 -18.601400
C -10.921100 -22.934800 -23.555500
C -10.916100 -21.578500 -19.969400
C -10.910200 -23.018800 -22.155400
H -10.907600 -23.733500 -24.069300
H -10.889100 -23.861800 -21.717200
C -10.862700 -20.328400 -17.438100
C -10.857000 -22.354200 -18.836000
H -10.841100 -19.935000 -16.573600
H -10.834200 -23.302300 -18.891700
C -10.831900 -21.689800 -17.572400
H -10.791600 -22.220000 -16.785100
H -12.748900 -16.987500 -33.396000
C -12.708600 -17.517700 -32.608600
H -12.706300 -15.905200 -31.289400
H -12.699400 -19.272500 -33.607400
C -12.683500 -16.853300 -31.345100
C -12.677800 -18.879100 -32.743000
H -12.651400 -15.345700 -28.463900
H -12.632800 -15.474000 -26.111700
C -12.630300 -16.188700 -28.025600
C -12.624400 -17.629000 -30.211700
C -12.619400 -16.272700 -26.625600
C -12.613500 -19.708400 -31.579600
C -12.609500 -17.371700 -28.753100
H -12.606200 -21.629700 -32.316800
C -12.596400 -21.121000 -31.514200
C -12.592500 -19.028700 -30.356200
C -12.589100 -17.499800 -25.973000
H -12.580700 -17.526300 -25.023400
C -12.578500 -18.625000 -28.087000
C -12.570300 -18.691000 -26.693600
C -12.568100 -19.693000 -29.094000
C -12.565300 -21.772600 -30.287900
C -12.558100 -21.066200 -29.057700
H -12.552400 -19.529200 -26.246700
H -12.547500 -22.722200 -30.272600
H -12.547500 -21.531700 -28.229300
