26
Fragment
H -10.993000 -17.675900 -21.951700
H -10.993000 -16.485300 -19.908500
H -10.988100 -19.678300 -23.934400
C -10.982400 -18.141300 -21.123400
C -10.975200 -17.434900 -19.893100
C -10.972400 -19.514500 -21.087100
C -10.970200 -20.516600 -23.487400
C -10.962000 -20.582500 -22.094000
H -10.959800 -21.681300 -25.157600
C -10.951400 -21.707700 -24.208000
C -10.948000 -20.178800 -19.824900
C -10.944100 -18.086500 -18.666800
H -10.934300 -17.577800 -17.864300
C -10.931000 -21.835900 -21.428000
C -10.927000 -19.499200 -18.601400
C -10.921100 -22.934800 -23.555500
C -10.916100 -21.578500 -19.969400
C -10.910200 -23.018800 -22.155400
H -10.907600 -23.733500 -24.069300
H -10.889100 -23.861800 -21.717200
C -10.862700 -20.328400 -17.438100
C -10.857000 -22.354200 -18.836000
H -10.841100 -19.935000 -16.573600
H -10.834200 -23.302300 -18.891700
C -10.831900 -21.689800 -17.572400
H -10.791600 -22.220000 -16.785100
20
Fragment
H -7.692100 -21.016700 -19.090700
H -7.674900 -22.603400 -20.726800
C -7.672900 -20.748100 -20.001700
C -7.666000 -21.683500 -20.964800
C -7.651800 -19.342300 -20.324500
H -7.647500 -19.630500 -23.601000
C -7.646100 -21.304800 -22.365000
C -7.645300 -19.897600 -22.689200
C -7.641800 -18.954200 -21.726400
C -7.641100 -18.758800 -17.943700
C -7.638000 -18.383800 -19.329600
H -7.632600 -18.034000 -21.963600
N -7.631900 -19.071800 -16.837200
C -7.629600 -22.263000 -23.351600
C -7.619000 -21.913400 -24.745900
N -7.609600 -21.672600 -25.869000
C -7.602600 -23.672100 -23.078400
C -7.588500 -16.977000 -19.604600
N -7.568700 -24.809800 -22.904100
N -7.529800 -15.849100 -19.818800
46
Fragment
H -10.993000 -17.675900 -21.951700
H -10.993000 -16.485300 -19.908500
H -10.988100 -19.678300 -23.934400
C -10.982400 -18.141300 -21.123400
C -10.975200 -17.434900 -19.893100
C -10.972400 -19.514500 -21.087100
C -10.970200 -20.516600 -23.487400
C -10.962000 -20.582500 -22.094000
H -10.959800 -21.681300 -25.157600
C -10.951400 -21.707700 -24.208000
C -10.948000 -20.178800 -19.824900
C -10.944100 -18.086500 -18.666800
H -10.934300 -17.577800 -17.864300
C -10.931000 -21.835900 -21.428000
C -10.927000 -19.499200 -18.601400
C -10.921100 -22.934800 -23.555500
C -10.916100 -21.578500 -19.969400
C -10.910200 -23.018800 -22.155400
H -10.907600 -23.733500 -24.069300
H -10.889100 -23.861800 -21.717200
C -10.862700 -20.328400 -17.438100
C -10.857000 -22.354200 -18.836000
H -10.841100 -19.935000 -16.573600
H -10.834200 -23.302300 -18.891700
C -10.831900 -21.689800 -17.572400
H -10.791600 -22.220000 -16.785100
H -7.692100 -21.016700 -19.090700
H -7.674900 -22.603400 -20.726800
C -7.672900 -20.748100 -20.001700
C -7.666000 -21.683500 -20.964800
C -7.651800 -19.342300 -20.324500
H -7.647500 -19.630500 -23.601000
C -7.646100 -21.304800 -22.365000
C -7.645300 -19.897600 -22.689200
C -7.641800 -18.954200 -21.726400
C -7.641100 -18.758800 -17.943700
C -7.638000 -18.383800 -19.329600
H -7.632600 -18.034000 -21.963600
N -7.631900 -19.071800 -16.837200
C -7.629600 -22.263000 -23.351600
C -7.619000 -21.913400 -24.745900
N -7.609600 -21.672600 -25.869000
C -7.602600 -23.672100 -23.078400
C -7.588500 -16.977000 -19.604600
N -7.568700 -24.809800 -22.904100
N -7.529800 -15.849100 -19.818800
