26
Fragment
H -10.993000 -17.675900 -21.951700
H -10.993000 -16.485300 -19.908500
H -10.988100 -19.678300 -23.934400
C -10.982400 -18.141300 -21.123400
C -10.975200 -17.434900 -19.893100
C -10.972400 -19.514500 -21.087100
C -10.970200 -20.516600 -23.487400
C -10.962000 -20.582500 -22.094000
H -10.959800 -21.681300 -25.157600
C -10.951400 -21.707700 -24.208000
C -10.948000 -20.178800 -19.824900
C -10.944100 -18.086500 -18.666800
H -10.934300 -17.577800 -17.864300
C -10.931000 -21.835900 -21.428000
C -10.927000 -19.499200 -18.601400
C -10.921100 -22.934800 -23.555500
C -10.916100 -21.578500 -19.969400
C -10.910200 -23.018800 -22.155400
H -10.907600 -23.733500 -24.069300
H -10.889100 -23.861800 -21.717200
C -10.862700 -20.328400 -17.438100
C -10.857000 -22.354200 -18.836000
H -10.841100 -19.935000 -16.573600
H -10.834200 -23.302300 -18.891700
C -10.831900 -21.689800 -17.572400
H -10.791600 -22.220000 -16.785100
20
Fragment
N -10.587500 -32.315800 -30.362200
N -10.548600 -23.355100 -27.276900
C -10.528800 -31.187900 -30.576500
C -10.514700 -24.492900 -27.102600
N -10.507700 -26.492300 -24.312000
C -10.498200 -26.251600 -25.435100
C -10.487700 -25.901900 -26.829500
N -10.485400 -29.093200 -33.343800
H -10.484600 -30.130900 -28.217500
C -10.479200 -29.781100 -30.851500
C -10.476100 -29.406100 -32.237300
C -10.475500 -29.210800 -28.454700
C -10.472000 -28.267400 -27.491900
C -10.471200 -26.860100 -27.816000
H -10.469700 -28.534500 -26.580100
C -10.465500 -28.822700 -29.856600
C -10.451300 -26.481500 -29.216200
C -10.444400 -27.416900 -30.179400
H -10.442400 -25.561500 -29.454300
H -10.425100 -27.148200 -31.090300
46
Fragment
H -10.993000 -17.675900 -21.951700
H -10.993000 -16.485300 -19.908500
H -10.988100 -19.678300 -23.934400
C -10.982400 -18.141300 -21.123400
C -10.975200 -17.434900 -19.893100
C -10.972400 -19.514500 -21.087100
C -10.970200 -20.516600 -23.487400
C -10.962000 -20.582500 -22.094000
H -10.959800 -21.681300 -25.157600
C -10.951400 -21.707700 -24.208000
C -10.948000 -20.178800 -19.824900
C -10.944100 -18.086500 -18.666800
H -10.934300 -17.577800 -17.864300
C -10.931000 -21.835900 -21.428000
C -10.927000 -19.499200 -18.601400
C -10.921100 -22.934800 -23.555500
C -10.916100 -21.578500 -19.969400
C -10.910200 -23.018800 -22.155400
H -10.907600 -23.733500 -24.069300
H -10.889100 -23.861800 -21.717200
C -10.862700 -20.328400 -17.438100
C -10.857000 -22.354200 -18.836000
H -10.841100 -19.935000 -16.573600
H -10.834200 -23.302300 -18.891700
C -10.831900 -21.689800 -17.572400
H -10.791600 -22.220000 -16.785100
N -10.587500 -32.315800 -30.362200
N -10.548600 -23.355100 -27.276900
C -10.528800 -31.187900 -30.576500
C -10.514700 -24.492900 -27.102600
N -10.507700 -26.492300 -24.312000
C -10.498200 -26.251600 -25.435100
C -10.487700 -25.901900 -26.829500
N -10.485400 -29.093200 -33.343800
H -10.484600 -30.130900 -28.217500
C -10.479200 -29.781100 -30.851500
C -10.476100 -29.406100 -32.237300
C -10.475500 -29.210800 -28.454700
C -10.472000 -28.267400 -27.491900
C -10.471200 -26.860100 -27.816000
H -10.469700 -28.534500 -26.580100
C -10.465500 -28.822700 -29.856600
C -10.451300 -26.481500 -29.216200
C -10.444400 -27.416900 -30.179400
H -10.442400 -25.561500 -29.454300
H -10.425100 -27.148200 -31.090300
