16
Fragment
H -21.086500 -3.682500 -25.635200
H -20.834800 -5.103500 -23.849700
C -20.448900 -4.358300 -25.674200
C -20.298100 -5.201500 -24.601800
H -19.793800 -3.913000 -27.525200
C -19.675800 -4.491300 -26.806700
C -19.339000 -6.201400 -24.649400
O -19.216400 -7.008100 -23.571900
C -18.732400 -5.483700 -26.863000
H -18.620900 -7.555100 -23.706100
C -18.542900 -6.354900 -25.788500
H -18.210900 -5.577900 -27.628000
C -17.536400 -7.422100 -25.814300
O -17.335900 -8.160900 -24.850300
O -16.877700 -7.530900 -26.945500
H -16.401900 -8.198100 -26.921300
14
Fragment
H -24.184900 -9.565700 -27.815700
C -23.536200 -9.043400 -28.229300
H -23.504800 -10.082700 -29.960300
H -23.298200 -7.779100 -26.673200
C -23.140600 -9.361700 -29.500200
C -22.995200 -7.959000 -27.533700
C -22.160500 -8.546400 -30.068600
C -22.033800 -7.153400 -28.080300
H -21.676000 -6.433500 -27.613300
H -21.664200 -9.081100 -31.905700
C -21.616300 -7.470600 -29.381800
N -21.522900 -8.519500 -31.269200
N -20.685200 -6.865400 -30.201600
N -20.651700 -7.515800 -31.336100
30
Fragment
H -21.086500 -3.682500 -25.635200
H -20.834800 -5.103500 -23.849700
C -20.448900 -4.358300 -25.674200
C -20.298100 -5.201500 -24.601800
H -19.793800 -3.913000 -27.525200
C -19.675800 -4.491300 -26.806700
C -19.339000 -6.201400 -24.649400
O -19.216400 -7.008100 -23.571900
C -18.732400 -5.483700 -26.863000
H -18.620900 -7.555100 -23.706100
C -18.542900 -6.354900 -25.788500
H -18.210900 -5.577900 -27.628000
C -17.536400 -7.422100 -25.814300
O -17.335900 -8.160900 -24.850300
O -16.877700 -7.530900 -26.945500
H -16.401900 -8.198100 -26.921300
H -24.184900 -9.565700 -27.815700
C -23.536200 -9.043400 -28.229300
H -23.504800 -10.082700 -29.960300
H -23.298200 -7.779100 -26.673200
C -23.140600 -9.361700 -29.500200
C -22.995200 -7.959000 -27.533700
C -22.160500 -8.546400 -30.068600
C -22.033800 -7.153400 -28.080300
H -21.676000 -6.433500 -27.613300
H -21.664200 -9.081100 -31.905700
C -21.616300 -7.470600 -29.381800
N -21.522900 -8.519500 -31.269200
N -20.685200 -6.865400 -30.201600
N -20.651700 -7.515800 -31.336100
