16
Fragment
H -21.086500 -3.682500 -25.635200
H -20.834800 -5.103500 -23.849700
C -20.448900 -4.358300 -25.674200
C -20.298100 -5.201500 -24.601800
H -19.793800 -3.913000 -27.525200
C -19.675800 -4.491300 -26.806700
C -19.339000 -6.201400 -24.649400
O -19.216400 -7.008100 -23.571900
C -18.732400 -5.483700 -26.863000
H -18.620900 -7.555100 -23.706100
C -18.542900 -6.354900 -25.788500
H -18.210900 -5.577900 -27.628000
C -17.536400 -7.422100 -25.814300
O -17.335900 -8.160900 -24.850300
O -16.877700 -7.530900 -26.945500
H -16.401900 -8.198100 -26.921300
16
Fragment
H -21.086500 1.702100 -25.635200
H -20.834800 0.281100 -23.849700
C -20.448900 1.026300 -25.674200
C -20.298100 0.183100 -24.601800
H -19.793800 1.471600 -27.525200
C -19.675800 0.893300 -26.806700
C -19.339000 -0.816800 -24.649400
O -19.216400 -1.623500 -23.571900
C -18.732400 -0.099100 -26.863000
H -18.620900 -2.170500 -23.706100
C -18.542900 -0.970300 -25.788500
H -18.210900 -0.193300 -27.628000
C -17.536400 -2.037500 -25.814300
O -17.335900 -2.776300 -24.850300
O -16.877700 -2.146300 -26.945500
H -16.401900 -2.813500 -26.921300
32
Fragment
H -21.086500 -3.682500 -25.635200
H -20.834800 -5.103500 -23.849700
C -20.448900 -4.358300 -25.674200
C -20.298100 -5.201500 -24.601800
H -19.793800 -3.913000 -27.525200
C -19.675800 -4.491300 -26.806700
C -19.339000 -6.201400 -24.649400
O -19.216400 -7.008100 -23.571900
C -18.732400 -5.483700 -26.863000
H -18.620900 -7.555100 -23.706100
C -18.542900 -6.354900 -25.788500
H -18.210900 -5.577900 -27.628000
C -17.536400 -7.422100 -25.814300
O -17.335900 -8.160900 -24.850300
O -16.877700 -7.530900 -26.945500
H -16.401900 -8.198100 -26.921300
H -21.086500 1.702100 -25.635200
H -20.834800 0.281100 -23.849700
C -20.448900 1.026300 -25.674200
C -20.298100 0.183100 -24.601800
H -19.793800 1.471600 -27.525200
C -19.675800 0.893300 -26.806700
C -19.339000 -0.816800 -24.649400
O -19.216400 -1.623500 -23.571900
C -18.732400 -0.099100 -26.863000
H -18.620900 -2.170500 -23.706100
C -18.542900 -0.970300 -25.788500
H -18.210900 -0.193300 -27.628000
C -17.536400 -2.037500 -25.814300
O -17.335900 -2.776300 -24.850300
O -16.877700 -2.146300 -26.945500
H -16.401900 -2.813500 -26.921300
