16
Fragment
H -21.086500 -3.682500 -25.635200
H -20.834800 -5.103500 -23.849700
C -20.448900 -4.358300 -25.674200
C -20.298100 -5.201500 -24.601800
H -19.793800 -3.913000 -27.525200
C -19.675800 -4.491300 -26.806700
C -19.339000 -6.201400 -24.649400
O -19.216400 -7.008100 -23.571900
C -18.732400 -5.483700 -26.863000
H -18.620900 -7.555100 -23.706100
C -18.542900 -6.354900 -25.788500
H -18.210900 -5.577900 -27.628000
C -17.536400 -7.422100 -25.814300
O -17.335900 -8.160900 -24.850300
O -16.877700 -7.530900 -26.945500
H -16.401900 -8.198100 -26.921300
14
Fragment
N -23.879000 -8.638000 -17.626600
N -23.845400 -9.288400 -18.761000
N -23.007800 -7.634300 -17.693500
C -22.914300 -8.683200 -19.580800
H -22.866500 -7.072700 -17.057000
H -22.854700 -9.720300 -21.349400
C -22.496800 -9.000400 -20.882400
C -22.370200 -7.607400 -18.894000
C -21.535400 -8.194800 -21.429000
C -21.390100 -6.792100 -19.462500
H -21.232500 -8.374700 -22.289400
H -21.025800 -6.071100 -19.002400
C -20.994400 -7.110400 -20.733400
H -20.345800 -6.588100 -21.147000
30
Fragment
H -21.086500 -3.682500 -25.635200
H -20.834800 -5.103500 -23.849700
C -20.448900 -4.358300 -25.674200
C -20.298100 -5.201500 -24.601800
H -19.793800 -3.913000 -27.525200
C -19.675800 -4.491300 -26.806700
C -19.339000 -6.201400 -24.649400
O -19.216400 -7.008100 -23.571900
C -18.732400 -5.483700 -26.863000
H -18.620900 -7.555100 -23.706100
C -18.542900 -6.354900 -25.788500
H -18.210900 -5.577900 -27.628000
C -17.536400 -7.422100 -25.814300
O -17.335900 -8.160900 -24.850300
O -16.877700 -7.530900 -26.945500
H -16.401900 -8.198100 -26.921300
N -23.879000 -8.638000 -17.626600
N -23.845400 -9.288400 -18.761000
N -23.007800 -7.634300 -17.693500
C -22.914300 -8.683200 -19.580800
H -22.866500 -7.072700 -17.057000
H -22.854700 -9.720300 -21.349400
C -22.496800 -9.000400 -20.882400
C -22.370200 -7.607400 -18.894000
C -21.535400 -8.194800 -21.429000
C -21.390100 -6.792100 -19.462500
H -21.232500 -8.374700 -22.289400
H -21.025800 -6.071100 -19.002400
C -20.994400 -7.110400 -20.733400
H -20.345800 -6.588100 -21.147000
