16
Fragment
H -21.086500 -3.682500 -25.635200
H -20.834800 -5.103500 -23.849700
C -20.448900 -4.358300 -25.674200
C -20.298100 -5.201500 -24.601800
H -19.793800 -3.913000 -27.525200
C -19.675800 -4.491300 -26.806700
C -19.339000 -6.201400 -24.649400
O -19.216400 -7.008100 -23.571900
C -18.732400 -5.483700 -26.863000
H -18.620900 -7.555100 -23.706100
C -18.542900 -6.354900 -25.788500
H -18.210900 -5.577900 -27.628000
C -17.536400 -7.422100 -25.814300
O -17.335900 -8.160900 -24.850300
O -16.877700 -7.530900 -26.945500
H -16.401900 -8.198100 -26.921300
14
Fragment
H -19.064500 -9.280400 -19.655200
C -18.415900 -9.802700 -20.068800
H -18.384500 -8.763400 -21.799800
H -18.177800 -11.067000 -18.512800
C -18.020200 -9.484400 -21.339700
C -17.874900 -10.887100 -19.373200
C -17.040100 -10.299700 -21.908200
C -16.913500 -11.692700 -19.919800
H -16.555600 -12.412600 -19.452900
H -16.543800 -9.765000 -23.745300
C -16.496000 -11.375500 -21.221400
N -16.402500 -10.326600 -23.108700
N -15.564900 -11.980700 -22.041200
N -15.531300 -11.330300 -23.175700
30
Fragment
H -21.086500 -3.682500 -25.635200
H -20.834800 -5.103500 -23.849700
C -20.448900 -4.358300 -25.674200
C -20.298100 -5.201500 -24.601800
H -19.793800 -3.913000 -27.525200
C -19.675800 -4.491300 -26.806700
C -19.339000 -6.201400 -24.649400
O -19.216400 -7.008100 -23.571900
C -18.732400 -5.483700 -26.863000
H -18.620900 -7.555100 -23.706100
C -18.542900 -6.354900 -25.788500
H -18.210900 -5.577900 -27.628000
C -17.536400 -7.422100 -25.814300
O -17.335900 -8.160900 -24.850300
O -16.877700 -7.530900 -26.945500
H -16.401900 -8.198100 -26.921300
H -19.064500 -9.280400 -19.655200
C -18.415900 -9.802700 -20.068800
H -18.384500 -8.763400 -21.799800
H -18.177800 -11.067000 -18.512800
C -18.020200 -9.484400 -21.339700
C -17.874900 -10.887100 -19.373200
C -17.040100 -10.299700 -21.908200
C -16.913500 -11.692700 -19.919800
H -16.555600 -12.412600 -19.452900
H -16.543800 -9.765000 -23.745300
C -16.496000 -11.375500 -21.221400
N -16.402500 -10.326600 -23.108700
N -15.564900 -11.980700 -22.041200
N -15.531300 -11.330300 -23.175700
