16
Fragment
H -21.086500 -3.682500 -25.635200
H -20.834800 -5.103500 -23.849700
C -20.448900 -4.358300 -25.674200
C -20.298100 -5.201500 -24.601800
H -19.793800 -3.913000 -27.525200
C -19.675800 -4.491300 -26.806700
C -19.339000 -6.201400 -24.649400
O -19.216400 -7.008100 -23.571900
C -18.732400 -5.483700 -26.863000
H -18.620900 -7.555100 -23.706100
C -18.542900 -6.354900 -25.788500
H -18.210900 -5.577900 -27.628000
C -17.536400 -7.422100 -25.814300
O -17.335900 -8.160900 -24.850300
O -16.877700 -7.530900 -26.945500
H -16.401900 -8.198100 -26.921300
16
Fragment
H -21.086500 -9.067100 -25.635200
H -20.834800 -10.488100 -23.849700
C -20.448900 -9.742900 -25.674200
C -20.298100 -10.586100 -24.601800
H -19.793800 -9.297600 -27.525200
C -19.675800 -9.875900 -26.806700
C -19.339000 -11.586000 -24.649400
O -19.216400 -12.392700 -23.571900
C -18.732400 -10.868300 -26.863000
H -18.620900 -12.939700 -23.706100
C -18.542900 -11.739500 -25.788500
H -18.210900 -10.962500 -27.628000
C -17.536400 -12.806700 -25.814300
O -17.335900 -13.545500 -24.850300
O -16.877700 -12.915500 -26.945500
H -16.401900 -13.582700 -26.921300
32
Fragment
H -21.086500 -3.682500 -25.635200
H -20.834800 -5.103500 -23.849700
C -20.448900 -4.358300 -25.674200
C -20.298100 -5.201500 -24.601800
H -19.793800 -3.913000 -27.525200
C -19.675800 -4.491300 -26.806700
C -19.339000 -6.201400 -24.649400
O -19.216400 -7.008100 -23.571900
C -18.732400 -5.483700 -26.863000
H -18.620900 -7.555100 -23.706100
C -18.542900 -6.354900 -25.788500
H -18.210900 -5.577900 -27.628000
C -17.536400 -7.422100 -25.814300
O -17.335900 -8.160900 -24.850300
O -16.877700 -7.530900 -26.945500
H -16.401900 -8.198100 -26.921300
H -21.086500 -9.067100 -25.635200
H -20.834800 -10.488100 -23.849700
C -20.448900 -9.742900 -25.674200
C -20.298100 -10.586100 -24.601800
H -19.793800 -9.297600 -27.525200
C -19.675800 -9.875900 -26.806700
C -19.339000 -11.586000 -24.649400
O -19.216400 -12.392700 -23.571900
C -18.732400 -10.868300 -26.863000
H -18.620900 -12.939700 -23.706100
C -18.542900 -11.739500 -25.788500
H -18.210900 -10.962500 -27.628000
C -17.536400 -12.806700 -25.814300
O -17.335900 -13.545500 -24.850300
O -16.877700 -12.915500 -26.945500
H -16.401900 -13.582700 -26.921300
