16
Fragment
H -21.086500 -3.682500 -25.635200
H -20.834800 -5.103500 -23.849700
C -20.448900 -4.358300 -25.674200
C -20.298100 -5.201500 -24.601800
H -19.793800 -3.913000 -27.525200
C -19.675800 -4.491300 -26.806700
C -19.339000 -6.201400 -24.649400
O -19.216400 -7.008100 -23.571900
C -18.732400 -5.483700 -26.863000
H -18.620900 -7.555100 -23.706100
C -18.542900 -6.354900 -25.788500
H -18.210900 -5.577900 -27.628000
C -17.536400 -7.422100 -25.814300
O -17.335900 -8.160900 -24.850300
O -16.877700 -7.530900 -26.945500
H -16.401900 -8.198100 -26.921300
16
Fragment
H -19.440700 -5.505800 -30.201800
O -18.964800 -4.838600 -30.177600
O -18.506600 -5.468600 -32.272800
C -18.306100 -4.729800 -31.308900
H -17.631600 -2.885600 -29.495100
C -17.299600 -3.662600 -31.334600
H -17.221600 -4.862800 -33.417000
C -17.110200 -2.791400 -30.260100
O -16.626200 -4.315800 -33.551200
C -16.503500 -3.509100 -32.473700
C -16.166700 -1.799000 -30.316400
H -16.048700 -1.220700 -29.597900
C -15.544400 -2.509200 -32.521300
C -15.393600 -1.666000 -31.448900
H -15.007800 -2.411200 -33.273400
H -14.756000 -0.990200 -31.487900
32
Fragment
H -21.086500 -3.682500 -25.635200
H -20.834800 -5.103500 -23.849700
C -20.448900 -4.358300 -25.674200
C -20.298100 -5.201500 -24.601800
H -19.793800 -3.913000 -27.525200
C -19.675800 -4.491300 -26.806700
C -19.339000 -6.201400 -24.649400
O -19.216400 -7.008100 -23.571900
C -18.732400 -5.483700 -26.863000
H -18.620900 -7.555100 -23.706100
C -18.542900 -6.354900 -25.788500
H -18.210900 -5.577900 -27.628000
C -17.536400 -7.422100 -25.814300
O -17.335900 -8.160900 -24.850300
O -16.877700 -7.530900 -26.945500
H -16.401900 -8.198100 -26.921300
H -19.440700 -5.505800 -30.201800
O -18.964800 -4.838600 -30.177600
O -18.506600 -5.468600 -32.272800
C -18.306100 -4.729800 -31.308900
H -17.631600 -2.885600 -29.495100
C -17.299600 -3.662600 -31.334600
H -17.221600 -4.862800 -33.417000
C -17.110200 -2.791400 -30.260100
O -16.626200 -4.315800 -33.551200
C -16.503500 -3.509100 -32.473700
C -16.166700 -1.799000 -30.316400
H -16.048700 -1.220700 -29.597900
C -15.544400 -2.509200 -32.521300
C -15.393600 -1.666000 -31.448900
H -15.007800 -2.411200 -33.273400
H -14.756000 -0.990200 -31.487900
