16
Fragment
H -21.086500 -3.682500 -25.635200
H -20.834800 -5.103500 -23.849700
C -20.448900 -4.358300 -25.674200
C -20.298100 -5.201500 -24.601800
H -19.793800 -3.913000 -27.525200
C -19.675800 -4.491300 -26.806700
C -19.339000 -6.201400 -24.649400
O -19.216400 -7.008100 -23.571900
C -18.732400 -5.483700 -26.863000
H -18.620900 -7.555100 -23.706100
C -18.542900 -6.354900 -25.788500
H -18.210900 -5.577900 -27.628000
C -17.536400 -7.422100 -25.814300
O -17.335900 -8.160900 -24.850300
O -16.877700 -7.530900 -26.945500
H -16.401900 -8.198100 -26.921300
14
Fragment
H -19.064500 -3.895800 -19.655200
C -18.415900 -4.418100 -20.068800
H -18.384500 -3.378800 -21.799800
H -18.177800 -5.682400 -18.512800
C -18.020200 -4.099800 -21.339700
C -17.874900 -5.502500 -19.373200
C -17.040100 -4.915100 -21.908200
C -16.913500 -6.308100 -19.919800
H -16.555600 -7.028000 -19.452900
H -16.543800 -4.380400 -23.745300
C -16.496000 -5.990900 -21.221400
N -16.402500 -4.942000 -23.108700
N -15.564900 -6.596100 -22.041200
N -15.531300 -5.945700 -23.175700
30
Fragment
H -21.086500 -3.682500 -25.635200
H -20.834800 -5.103500 -23.849700
C -20.448900 -4.358300 -25.674200
C -20.298100 -5.201500 -24.601800
H -19.793800 -3.913000 -27.525200
C -19.675800 -4.491300 -26.806700
C -19.339000 -6.201400 -24.649400
O -19.216400 -7.008100 -23.571900
C -18.732400 -5.483700 -26.863000
H -18.620900 -7.555100 -23.706100
C -18.542900 -6.354900 -25.788500
H -18.210900 -5.577900 -27.628000
C -17.536400 -7.422100 -25.814300
O -17.335900 -8.160900 -24.850300
O -16.877700 -7.530900 -26.945500
H -16.401900 -8.198100 -26.921300
H -19.064500 -3.895800 -19.655200
C -18.415900 -4.418100 -20.068800
H -18.384500 -3.378800 -21.799800
H -18.177800 -5.682400 -18.512800
C -18.020200 -4.099800 -21.339700
C -17.874900 -5.502500 -19.373200
C -17.040100 -4.915100 -21.908200
C -16.913500 -6.308100 -19.919800
H -16.555600 -7.028000 -19.452900
H -16.543800 -4.380400 -23.745300
C -16.496000 -5.990900 -21.221400
N -16.402500 -4.942000 -23.108700
N -15.564900 -6.596100 -22.041200
N -15.531300 -5.945700 -23.175700
