23
Fragment
O -11.680600 0.466300 -19.044300
N -10.714100 -0.260200 -18.811700
O -10.569100 -1.395000 -19.246500
H -10.534700 -5.087800 -16.643700
O -10.054000 -7.024800 -15.545900
O -10.037900 3.776900 -18.167900
O -9.950700 2.516200 -19.939400
N -9.878500 -4.899400 -16.048200
N -9.786200 2.728800 -18.741200
N -9.718100 -2.677100 -16.784100
C -9.669000 0.290300 -17.992100
N -9.404000 -5.987900 -15.392300
C -9.266500 1.629500 -17.946900
C -9.213600 -3.695200 -16.102000
C -8.844100 -0.356800 -17.087400
C -8.777800 -1.718800 -16.570700
O -8.401800 -5.867900 -14.694600
N -8.265500 1.834200 -17.123900
N -8.066800 -3.365000 -15.496900
N -8.030200 0.607200 -16.604300
N -7.766600 -2.065700 -15.794700
H -7.481800 -3.859900 -15.001400
H -7.317800 0.457300 -16.067400
23
Fragment
O -10.087700 -9.566000 -19.044300
N -9.121200 -10.292500 -18.811700
O -8.976200 -11.427400 -19.246500
H -8.941800 -15.120100 -16.643700
O -8.461100 -17.057100 -15.545900
O -8.445000 -6.255500 -18.167900
O -8.357800 -7.516200 -19.939400
N -8.285600 -14.931800 -16.048200
N -8.193200 -7.303500 -18.741200
N -8.125200 -12.709400 -16.784100
C -8.076100 -9.742000 -17.992100
N -7.811000 -16.020200 -15.392300
C -7.673600 -8.402900 -17.946900
C -7.620700 -13.727500 -16.102000
C -7.251200 -10.389100 -17.087400
C -7.184900 -11.751100 -16.570700
O -6.808900 -15.900200 -14.694600
N -6.672600 -8.198100 -17.123900
N -6.473900 -13.397400 -15.496900
N -6.437300 -9.425100 -16.604300
N -6.173700 -12.098100 -15.794700
H -5.888900 -13.892200 -15.001400
H -5.724900 -9.575100 -16.067400
46
Fragment
O -11.680600 0.466300 -19.044300
N -10.714100 -0.260200 -18.811700
O -10.569100 -1.395000 -19.246500
H -10.534700 -5.087800 -16.643700
O -10.054000 -7.024800 -15.545900
O -10.037900 3.776900 -18.167900
O -9.950700 2.516200 -19.939400
N -9.878500 -4.899400 -16.048200
N -9.786200 2.728800 -18.741200
N -9.718100 -2.677100 -16.784100
C -9.669000 0.290300 -17.992100
N -9.404000 -5.987900 -15.392300
C -9.266500 1.629500 -17.946900
C -9.213600 -3.695200 -16.102000
C -8.844100 -0.356800 -17.087400
C -8.777800 -1.718800 -16.570700
O -8.401800 -5.867900 -14.694600
N -8.265500 1.834200 -17.123900
N -8.066800 -3.365000 -15.496900
N -8.030200 0.607200 -16.604300
N -7.766600 -2.065700 -15.794700
H -7.481800 -3.859900 -15.001400
H -7.317800 0.457300 -16.067400
O -10.087700 -9.566000 -19.044300
N -9.121200 -10.292500 -18.811700
O -8.976200 -11.427400 -19.246500
H -8.941800 -15.120100 -16.643700
O -8.461100 -17.057100 -15.545900
O -8.445000 -6.255500 -18.167900
O -8.357800 -7.516200 -19.939400
N -8.285600 -14.931800 -16.048200
N -8.193200 -7.303500 -18.741200
N -8.125200 -12.709400 -16.784100
C -8.076100 -9.742000 -17.992100
N -7.811000 -16.020200 -15.392300
C -7.673600 -8.402900 -17.946900
C -7.620700 -13.727500 -16.102000
C -7.251200 -10.389100 -17.087400
C -7.184900 -11.751100 -16.570700
O -6.808900 -15.900200 -14.694600
N -6.672600 -8.198100 -17.123900
N -6.473900 -13.397400 -15.496900
N -6.437300 -9.425100 -16.604300
N -6.173700 -12.098100 -15.794700
H -5.888900 -13.892200 -15.001400
H -5.724900 -9.575100 -16.067400
