23
Fragment
O -11.680600 0.466300 -19.044300
N -10.714100 -0.260200 -18.811700
O -10.569100 -1.395000 -19.246500
H -10.534700 -5.087800 -16.643700
O -10.054000 -7.024800 -15.545900
O -10.037900 3.776900 -18.167900
O -9.950700 2.516200 -19.939400
N -9.878500 -4.899400 -16.048200
N -9.786200 2.728800 -18.741200
N -9.718100 -2.677100 -16.784100
C -9.669000 0.290300 -17.992100
N -9.404000 -5.987900 -15.392300
C -9.266500 1.629500 -17.946900
C -9.213600 -3.695200 -16.102000
C -8.844100 -0.356800 -17.087400
C -8.777800 -1.718800 -16.570700
O -8.401800 -5.867900 -14.694600
N -8.265500 1.834200 -17.123900
N -8.066800 -3.365000 -15.496900
N -8.030200 0.607200 -16.604300
N -7.766600 -2.065700 -15.794700
H -7.481800 -3.859900 -15.001400
H -7.317800 0.457300 -16.067400
14
Fragment
H -6.197600 -4.129900 -12.256600
H -6.086000 -6.425100 -12.686800
O -5.867500 -4.298800 -14.226200
H -5.482900 -6.812700 -14.943800
C -5.482400 -4.474600 -12.848200
C -5.244900 -5.920100 -12.557200
H -5.190800 -4.774000 -16.048200
H -4.964900 -6.025300 -11.614100
C -4.881400 -4.860900 -15.111800
H -4.656600 -3.960000 -12.664700
C -4.648300 -6.301100 -14.794900
O -4.227000 -6.450500 -13.424300
H -4.032400 -4.360000 -15.020600
H -3.952700 -6.665200 -15.398000
37
Fragment
O -11.680600 0.466300 -19.044300
N -10.714100 -0.260200 -18.811700
O -10.569100 -1.395000 -19.246500
H -10.534700 -5.087800 -16.643700
O -10.054000 -7.024800 -15.545900
O -10.037900 3.776900 -18.167900
O -9.950700 2.516200 -19.939400
N -9.878500 -4.899400 -16.048200
N -9.786200 2.728800 -18.741200
N -9.718100 -2.677100 -16.784100
C -9.669000 0.290300 -17.992100
N -9.404000 -5.987900 -15.392300
C -9.266500 1.629500 -17.946900
C -9.213600 -3.695200 -16.102000
C -8.844100 -0.356800 -17.087400
C -8.777800 -1.718800 -16.570700
O -8.401800 -5.867900 -14.694600
N -8.265500 1.834200 -17.123900
N -8.066800 -3.365000 -15.496900
N -8.030200 0.607200 -16.604300
N -7.766600 -2.065700 -15.794700
H -7.481800 -3.859900 -15.001400
H -7.317800 0.457300 -16.067400
H -6.197600 -4.129900 -12.256600
H -6.086000 -6.425100 -12.686800
O -5.867500 -4.298800 -14.226200
H -5.482900 -6.812700 -14.943800
C -5.482400 -4.474600 -12.848200
C -5.244900 -5.920100 -12.557200
H -5.190800 -4.774000 -16.048200
H -4.964900 -6.025300 -11.614100
C -4.881400 -4.860900 -15.111800
H -4.656600 -3.960000 -12.664700
C -4.648300 -6.301100 -14.794900
O -4.227000 -6.450500 -13.424300
H -4.032400 -4.360000 -15.020600
H -3.952700 -6.665200 -15.398000
