23
Fragment
O -11.680600 0.466300 -19.044300
N -10.714100 -0.260200 -18.811700
O -10.569100 -1.395000 -19.246500
H -10.534700 -5.087800 -16.643700
O -10.054000 -7.024800 -15.545900
O -10.037900 3.776900 -18.167900
O -9.950700 2.516200 -19.939400
N -9.878500 -4.899400 -16.048200
N -9.786200 2.728800 -18.741200
N -9.718100 -2.677100 -16.784100
C -9.669000 0.290300 -17.992100
N -9.404000 -5.987900 -15.392300
C -9.266500 1.629500 -17.946900
C -9.213600 -3.695200 -16.102000
C -8.844100 -0.356800 -17.087400
C -8.777800 -1.718800 -16.570700
O -8.401800 -5.867900 -14.694600
N -8.265500 1.834200 -17.123900
N -8.066800 -3.365000 -15.496900
N -8.030200 0.607200 -16.604300
N -7.766600 -2.065700 -15.794700
H -7.481800 -3.859900 -15.001400
H -7.317800 0.457300 -16.067400
14
Fragment
H -12.973900 -9.245400 -13.413800
H -12.894300 -11.550500 -13.791300
O -12.699600 -9.460100 -15.387600
C -12.278400 -9.609500 -14.017000
H -12.270100 -11.950600 -16.147100
C -12.045200 -11.049700 -13.700000
H -11.961700 -9.885300 -17.197800
H -11.735800 -11.136600 -12.763700
C -11.681700 -9.990500 -16.254700
C -11.444200 -11.436000 -15.963700
H -11.443800 -9.097900 -13.868100
O -11.059100 -11.611800 -14.585600
H -10.840700 -9.485500 -16.125000
H -10.729000 -11.780700 -16.555300
37
Fragment
O -11.680600 0.466300 -19.044300
N -10.714100 -0.260200 -18.811700
O -10.569100 -1.395000 -19.246500
H -10.534700 -5.087800 -16.643700
O -10.054000 -7.024800 -15.545900
O -10.037900 3.776900 -18.167900
O -9.950700 2.516200 -19.939400
N -9.878500 -4.899400 -16.048200
N -9.786200 2.728800 -18.741200
N -9.718100 -2.677100 -16.784100
C -9.669000 0.290300 -17.992100
N -9.404000 -5.987900 -15.392300
C -9.266500 1.629500 -17.946900
C -9.213600 -3.695200 -16.102000
C -8.844100 -0.356800 -17.087400
C -8.777800 -1.718800 -16.570700
O -8.401800 -5.867900 -14.694600
N -8.265500 1.834200 -17.123900
N -8.066800 -3.365000 -15.496900
N -8.030200 0.607200 -16.604300
N -7.766600 -2.065700 -15.794700
H -7.481800 -3.859900 -15.001400
H -7.317800 0.457300 -16.067400
H -12.973900 -9.245400 -13.413800
H -12.894300 -11.550500 -13.791300
O -12.699600 -9.460100 -15.387600
C -12.278400 -9.609500 -14.017000
H -12.270100 -11.950600 -16.147100
C -12.045200 -11.049700 -13.700000
H -11.961700 -9.885300 -17.197800
H -11.735800 -11.136600 -12.763700
C -11.681700 -9.990500 -16.254700
C -11.444200 -11.436000 -15.963700
H -11.443800 -9.097900 -13.868100
O -11.059100 -11.611800 -14.585600
H -10.840700 -9.485500 -16.125000
H -10.729000 -11.780700 -16.555300
