16
Fragment
H -6.138000 -10.767500 -37.324700
O -5.903300 -11.640300 -37.350600
C -4.591200 -11.793000 -36.994900
H -4.581400 -13.797300 -37.392800
H -4.198700 -9.848400 -36.498900
C -4.048200 -13.071100 -37.089900
C -3.819900 -10.717500 -36.558500
C -2.726800 -13.274300 -36.738400
C -2.492000 -10.928400 -36.212900
H -2.351300 -14.144700 -36.801600
H -1.956800 -10.199000 -35.921800
C -1.939200 -12.210300 -36.291500
C -0.551400 -12.462800 -35.875300
O -0.114700 -13.641400 -35.816600
O 0.169700 -11.428800 -35.568900
H 1.006200 -11.684100 -35.269500
16
Fragment
H -8.922200 -13.954300 -35.114700
O -8.085700 -14.209600 -34.815300
O -7.801300 -11.997000 -34.567600
C -7.364700 -13.175600 -34.508900
C -5.976900 -13.428100 -34.092700
H -5.959300 -15.439400 -34.462500
H -5.564800 -11.493700 -33.582700
C -5.424100 -14.710000 -34.171300
C -5.189300 -12.364100 -33.645800
C -4.096200 -14.920900 -33.825700
C -3.867900 -12.567300 -33.294300
H -3.717400 -15.790000 -33.885300
H -3.334700 -11.841100 -32.991400
C -3.324900 -13.845400 -33.389300
O -2.012800 -13.998100 -33.033700
H -1.778000 -14.870900 -33.059500
32
Fragment
H -6.138000 -10.767500 -37.324700
O -5.903300 -11.640300 -37.350600
C -4.591200 -11.793000 -36.994900
H -4.581400 -13.797300 -37.392800
H -4.198700 -9.848400 -36.498900
C -4.048200 -13.071100 -37.089900
C -3.819900 -10.717500 -36.558500
C -2.726800 -13.274300 -36.738400
C -2.492000 -10.928400 -36.212900
H -2.351300 -14.144700 -36.801600
H -1.956800 -10.199000 -35.921800
C -1.939200 -12.210300 -36.291500
C -0.551400 -12.462800 -35.875300
O -0.114700 -13.641400 -35.816600
O 0.169700 -11.428800 -35.568900
H 1.006200 -11.684100 -35.269500
H -8.922200 -13.954300 -35.114700
O -8.085700 -14.209600 -34.815300
O -7.801300 -11.997000 -34.567600
C -7.364700 -13.175600 -34.508900
C -5.976900 -13.428100 -34.092700
H -5.959300 -15.439400 -34.462500
H -5.564800 -11.493700 -33.582700
C -5.424100 -14.710000 -34.171300
C -5.189300 -12.364100 -33.645800
C -4.096200 -14.920900 -33.825700
C -3.867900 -12.567300 -33.294300
H -3.717400 -15.790000 -33.885300
H -3.334700 -11.841100 -32.991400
C -3.324900 -13.845400 -33.389300
O -2.012800 -13.998100 -33.033700
H -1.778000 -14.870900 -33.059500
