16
Fragment
H -6.138000 -10.767500 -37.324700
O -5.903300 -11.640300 -37.350600
C -4.591200 -11.793000 -36.994900
H -4.581400 -13.797300 -37.392800
H -4.198700 -9.848400 -36.498900
C -4.048200 -13.071100 -37.089900
C -3.819900 -10.717500 -36.558500
C -2.726800 -13.274300 -36.738400
C -2.492000 -10.928400 -36.212900
H -2.351300 -14.144700 -36.801600
H -1.956800 -10.199000 -35.921800
C -1.939200 -12.210300 -36.291500
C -0.551400 -12.462800 -35.875300
O -0.114700 -13.641400 -35.816600
O 0.169700 -11.428800 -35.568900
H 1.006200 -11.684100 -35.269500
16
Fragment
H -6.138000 -17.177100 -37.324700
O -5.903300 -18.049900 -37.350600
C -4.591200 -18.202600 -36.994900
H -4.581400 -20.206900 -37.392800
H -4.198700 -16.258000 -36.498900
C -4.048200 -19.480700 -37.089900
C -3.819900 -17.127100 -36.558500
C -2.726800 -19.683900 -36.738400
C -2.492000 -17.338000 -36.212900
H -2.351300 -20.554300 -36.801600
H -1.956800 -16.608600 -35.921800
C -1.939200 -18.619900 -36.291500
C -0.551400 -18.872400 -35.875300
O -0.114700 -20.051000 -35.816600
O 0.169700 -17.838400 -35.568900
H 1.006200 -18.093700 -35.269500
32
Fragment
H -6.138000 -10.767500 -37.324700
O -5.903300 -11.640300 -37.350600
C -4.591200 -11.793000 -36.994900
H -4.581400 -13.797300 -37.392800
H -4.198700 -9.848400 -36.498900
C -4.048200 -13.071100 -37.089900
C -3.819900 -10.717500 -36.558500
C -2.726800 -13.274300 -36.738400
C -2.492000 -10.928400 -36.212900
H -2.351300 -14.144700 -36.801600
H -1.956800 -10.199000 -35.921800
C -1.939200 -12.210300 -36.291500
C -0.551400 -12.462800 -35.875300
O -0.114700 -13.641400 -35.816600
O 0.169700 -11.428800 -35.568900
H 1.006200 -11.684100 -35.269500
H -6.138000 -17.177100 -37.324700
O -5.903300 -18.049900 -37.350600
C -4.591200 -18.202600 -36.994900
H -4.581400 -20.206900 -37.392800
H -4.198700 -16.258000 -36.498900
C -4.048200 -19.480700 -37.089900
C -3.819900 -17.127100 -36.558500
C -2.726800 -19.683900 -36.738400
C -2.492000 -17.338000 -36.212900
H -2.351300 -20.554300 -36.801600
H -1.956800 -16.608600 -35.921800
C -1.939200 -18.619900 -36.291500
C -0.551400 -18.872400 -35.875300
O -0.114700 -20.051000 -35.816600
O 0.169700 -17.838400 -35.568900
H 1.006200 -18.093700 -35.269500
