16
Fragment
H -6.138000 -10.767500 -37.324700
O -5.903300 -11.640300 -37.350600
C -4.591200 -11.793000 -36.994900
H -4.581400 -13.797300 -37.392800
H -4.198700 -9.848400 -36.498900
C -4.048200 -13.071100 -37.089900
C -3.819900 -10.717500 -36.558500
C -2.726800 -13.274300 -36.738400
C -2.492000 -10.928400 -36.212900
H -2.351300 -14.144700 -36.801600
H -1.956800 -10.199000 -35.921800
C -1.939200 -12.210300 -36.291500
C -0.551400 -12.462800 -35.875300
O -0.114700 -13.641400 -35.816600
O 0.169700 -11.428800 -35.568900
H 1.006200 -11.684100 -35.269500
16
Fragment
H 1.375800 -13.954300 -35.114700
O 2.212300 -14.209600 -34.815300
O 2.496700 -11.997000 -34.567600
C 2.933300 -13.175600 -34.508900
C 4.321100 -13.428100 -34.092700
H 4.338700 -15.439400 -34.462500
H 4.733200 -11.493700 -33.582700
C 4.873900 -14.710000 -34.171300
C 5.108700 -12.364100 -33.645800
C 6.201800 -14.920900 -33.825700
C 6.430100 -12.567300 -33.294300
H 6.580600 -15.790000 -33.885300
H 6.963300 -11.841100 -32.991400
C 6.973100 -13.845400 -33.389300
O 8.285200 -13.998100 -33.033700
H 8.520000 -14.870900 -33.059500
32
Fragment
H -6.138000 -10.767500 -37.324700
O -5.903300 -11.640300 -37.350600
C -4.591200 -11.793000 -36.994900
H -4.581400 -13.797300 -37.392800
H -4.198700 -9.848400 -36.498900
C -4.048200 -13.071100 -37.089900
C -3.819900 -10.717500 -36.558500
C -2.726800 -13.274300 -36.738400
C -2.492000 -10.928400 -36.212900
H -2.351300 -14.144700 -36.801600
H -1.956800 -10.199000 -35.921800
C -1.939200 -12.210300 -36.291500
C -0.551400 -12.462800 -35.875300
O -0.114700 -13.641400 -35.816600
O 0.169700 -11.428800 -35.568900
H 1.006200 -11.684100 -35.269500
H 1.375800 -13.954300 -35.114700
O 2.212300 -14.209600 -34.815300
O 2.496700 -11.997000 -34.567600
C 2.933300 -13.175600 -34.508900
C 4.321100 -13.428100 -34.092700
H 4.338700 -15.439400 -34.462500
H 4.733200 -11.493700 -33.582700
C 4.873900 -14.710000 -34.171300
C 5.108700 -12.364100 -33.645800
C 6.201800 -14.920900 -33.825700
C 6.430100 -12.567300 -33.294300
H 6.580600 -15.790000 -33.885300
H 6.963300 -11.841100 -32.991400
C 6.973100 -13.845400 -33.389300
O 8.285200 -13.998100 -33.033700
H 8.520000 -14.870900 -33.059500
