16
Fragment
H -6.138000 -10.767500 -37.324700
O -5.903300 -11.640300 -37.350600
C -4.591200 -11.793000 -36.994900
H -4.581400 -13.797300 -37.392800
H -4.198700 -9.848400 -36.498900
C -4.048200 -13.071100 -37.089900
C -3.819900 -10.717500 -36.558500
C -2.726800 -13.274300 -36.738400
C -2.492000 -10.928400 -36.212900
H -2.351300 -14.144700 -36.801600
H -1.956800 -10.199000 -35.921800
C -1.939200 -12.210300 -36.291500
C -0.551400 -12.462800 -35.875300
O -0.114700 -13.641400 -35.816600
O 0.169700 -11.428800 -35.568900
H 1.006200 -11.684100 -35.269500
23
Fragment
O -6.610100 -15.297200 -40.738100
N -5.491600 -14.829300 -40.503800
O -5.212000 -13.630800 -40.535700
H -5.201500 -17.686000 -40.341900
C -4.471100 -17.105900 -40.159600
C -4.466600 -15.749000 -40.176700
O -3.261300 -15.217500 -39.868000
C -3.145600 -17.467400 -39.810700
H -2.804900 -18.349400 -39.717800
C -2.452900 -16.303500 -39.635500
C -1.096800 -16.070800 -39.225100
N -0.662300 -14.861900 -39.103600
H -0.521300 -16.804700 -39.044500
N 0.639200 -14.724300 -38.723300
O 0.666700 -12.398600 -38.781900
H 1.174000 -16.287400 -37.531200
C 1.175300 -13.469100 -38.560900
C 1.543700 -15.781100 -38.297000
H 1.744000 -16.407300 -39.037400
N 2.471500 -13.674900 -38.075300
C 2.762600 -14.990100 -37.899100
H 3.009100 -13.026900 -37.925400
O 3.826500 -15.441400 -37.497000
39
Fragment
H -6.138000 -10.767500 -37.324700
O -5.903300 -11.640300 -37.350600
C -4.591200 -11.793000 -36.994900
H -4.581400 -13.797300 -37.392800
H -4.198700 -9.848400 -36.498900
C -4.048200 -13.071100 -37.089900
C -3.819900 -10.717500 -36.558500
C -2.726800 -13.274300 -36.738400
C -2.492000 -10.928400 -36.212900
H -2.351300 -14.144700 -36.801600
H -1.956800 -10.199000 -35.921800
C -1.939200 -12.210300 -36.291500
C -0.551400 -12.462800 -35.875300
O -0.114700 -13.641400 -35.816600
O 0.169700 -11.428800 -35.568900
H 1.006200 -11.684100 -35.269500
O -6.610100 -15.297200 -40.738100
N -5.491600 -14.829300 -40.503800
O -5.212000 -13.630800 -40.535700
H -5.201500 -17.686000 -40.341900
C -4.471100 -17.105900 -40.159600
C -4.466600 -15.749000 -40.176700
O -3.261300 -15.217500 -39.868000
C -3.145600 -17.467400 -39.810700
H -2.804900 -18.349400 -39.717800
C -2.452900 -16.303500 -39.635500
C -1.096800 -16.070800 -39.225100
N -0.662300 -14.861900 -39.103600
H -0.521300 -16.804700 -39.044500
N 0.639200 -14.724300 -38.723300
O 0.666700 -12.398600 -38.781900
H 1.174000 -16.287400 -37.531200
C 1.175300 -13.469100 -38.560900
C 1.543700 -15.781100 -38.297000
H 1.744000 -16.407300 -39.037400
N 2.471500 -13.674900 -38.075300
C 2.762600 -14.990100 -37.899100
H 3.009100 -13.026900 -37.925400
O 3.826500 -15.441400 -37.497000
