12
Fragment
H -7.385800 -27.642200 -7.885800
N -6.718800 -25.657700 -8.193500
N -6.622700 -26.964500 -7.990500
N -5.884200 -22.983600 -8.562600
C -5.447200 -25.328700 -8.232500
N -5.388100 -27.402000 -7.910000
N -5.164800 -21.914200 -8.649400
N -5.004800 -24.008600 -8.415100
N -4.599300 -26.339600 -8.063300
N -3.834500 -22.213500 -8.564500
C -3.765500 -23.510300 -8.415700
H -3.010500 -24.068000 -8.313600
3
Fragment
H -6.727400 -23.957100 -11.602000
O -6.315900 -24.694700 -11.554700
H -5.500800 -24.504300 -11.653000
15
Fragment
H -7.385800 -27.642200 -7.885800
N -6.718800 -25.657700 -8.193500
N -6.622700 -26.964500 -7.990500
N -5.884200 -22.983600 -8.562600
C -5.447200 -25.328700 -8.232500
N -5.388100 -27.402000 -7.910000
N -5.164800 -21.914200 -8.649400
N -5.004800 -24.008600 -8.415100
N -4.599300 -26.339600 -8.063300
N -3.834500 -22.213500 -8.564500
C -3.765500 -23.510300 -8.415700
H -3.010500 -24.068000 -8.313600
H -6.727400 -23.957100 -11.602000
O -6.315900 -24.694700 -11.554700
H -5.500800 -24.504300 -11.653000
