12
Fragment
H -7.385800 -27.642200 -7.885800
N -6.718800 -25.657700 -8.193500
N -6.622700 -26.964500 -7.990500
N -5.884200 -22.983600 -8.562600
C -5.447200 -25.328700 -8.232500
N -5.388100 -27.402000 -7.910000
N -5.164800 -21.914200 -8.649400
N -5.004800 -24.008600 -8.415100
N -4.599300 -26.339600 -8.063300
N -3.834500 -22.213500 -8.564500
C -3.765500 -23.510300 -8.415700
H -3.010500 -24.068000 -8.313600
12
Fragment
H -11.596500 -29.571400 -10.842100
C -10.841600 -30.129100 -10.740000
N -10.772500 -31.425900 -10.591200
N -10.007800 -27.299800 -11.092400
N -9.602200 -29.630800 -10.740600
N -9.442200 -31.725200 -10.506300
N -9.219000 -26.237400 -11.245700
C -9.159800 -28.310700 -10.923200
N -8.722800 -30.655800 -10.593100
N -7.984300 -26.674900 -11.165200
N -7.888200 -27.981700 -10.962200
H -7.221200 -25.997200 -11.269900
24
Fragment
H -7.385800 -27.642200 -7.885800
N -6.718800 -25.657700 -8.193500
N -6.622700 -26.964500 -7.990500
N -5.884200 -22.983600 -8.562600
C -5.447200 -25.328700 -8.232500
N -5.388100 -27.402000 -7.910000
N -5.164800 -21.914200 -8.649400
N -5.004800 -24.008600 -8.415100
N -4.599300 -26.339600 -8.063300
N -3.834500 -22.213500 -8.564500
C -3.765500 -23.510300 -8.415700
H -3.010500 -24.068000 -8.313600
H -11.596500 -29.571400 -10.842100
C -10.841600 -30.129100 -10.740000
N -10.772500 -31.425900 -10.591200
N -10.007800 -27.299800 -11.092400
N -9.602200 -29.630800 -10.740600
N -9.442200 -31.725200 -10.506300
N -9.219000 -26.237400 -11.245700
C -9.159800 -28.310700 -10.923200
N -8.722800 -30.655800 -10.593100
N -7.984300 -26.674900 -11.165200
N -7.888200 -27.981700 -10.962200
H -7.221200 -25.997200 -11.269900
