3
Fragment
H -14.758800 -13.078500 -11.001000
O -14.397400 -12.280200 -11.168300
H -13.936700 -12.024200 -10.544800
19
Fragment
H -19.277400 -14.571100 -10.418000
H -19.113500 -14.600700 -8.973200
O -18.941500 -14.223100 -9.711700
H -18.263100 -12.984700 -9.818100
N -18.109900 -12.526200 -12.052100
N -17.818500 -11.914200 -13.170000
O -17.709100 -12.082500 -9.786400
N -17.602800 -11.758500 -11.087200
N -17.138900 -10.771200 -12.935100
C -17.016600 -10.691700 -11.619500
C -16.331000 -9.615200 -10.933400
N -16.020800 -9.532400 -9.645700
H -15.905200 -8.334200 -12.555700
N -15.898300 -8.541000 -11.603500
C -15.387600 -8.348200 -9.628800
N -15.264700 -7.700800 -10.762700
O -14.918700 -8.460900 -7.404500
N -14.814300 -7.800000 -8.393600
O -14.272600 -6.712200 -8.483700
22
Fragment
H -14.758800 -13.078500 -11.001000
O -14.397400 -12.280200 -11.168300
H -13.936700 -12.024200 -10.544800
H -19.277400 -14.571100 -10.418000
H -19.113500 -14.600700 -8.973200
O -18.941500 -14.223100 -9.711700
H -18.263100 -12.984700 -9.818100
N -18.109900 -12.526200 -12.052100
N -17.818500 -11.914200 -13.170000
O -17.709100 -12.082500 -9.786400
N -17.602800 -11.758500 -11.087200
N -17.138900 -10.771200 -12.935100
C -17.016600 -10.691700 -11.619500
C -16.331000 -9.615200 -10.933400
N -16.020800 -9.532400 -9.645700
H -15.905200 -8.334200 -12.555700
N -15.898300 -8.541000 -11.603500
C -15.387600 -8.348200 -9.628800
N -15.264700 -7.700800 -10.762700
O -14.918700 -8.460900 -7.404500
N -14.814300 -7.800000 -8.393600
O -14.272600 -6.712200 -8.483700
