3
Fragment
H -14.758800 -13.078500 -11.001000
O -14.397400 -12.280200 -11.168300
H -13.936700 -12.024200 -10.544800
19
Fragment
O -13.295300 -11.507900 -8.414900
N -12.753600 -10.420200 -8.505100
O -12.649200 -9.759300 -9.494200
N -12.303200 -10.519300 -6.135900
C -12.180300 -9.872000 -7.269800
N -11.669600 -9.679100 -5.295200
H -11.662700 -9.886000 -4.343000
N -11.547100 -8.687800 -7.252900
C -11.236900 -8.604900 -5.965200
C -10.551300 -7.528500 -5.279100
N -10.429000 -7.449000 -3.963600
N -9.965000 -6.461700 -5.811400
O -9.858700 -6.137600 -7.112200
N -9.749400 -6.305900 -3.728700
N -9.458000 -5.693900 -4.846500
H -9.304800 -5.235400 -7.080500
O -8.626400 -3.997000 -7.187000
H -8.454400 -3.619500 -7.925500
H -8.290500 -3.649000 -6.480600
22
Fragment
H -14.758800 -13.078500 -11.001000
O -14.397400 -12.280200 -11.168300
H -13.936700 -12.024200 -10.544800
O -13.295300 -11.507900 -8.414900
N -12.753600 -10.420200 -8.505100
O -12.649200 -9.759300 -9.494200
N -12.303200 -10.519300 -6.135900
C -12.180300 -9.872000 -7.269800
N -11.669600 -9.679100 -5.295200
H -11.662700 -9.886000 -4.343000
N -11.547100 -8.687800 -7.252900
C -11.236900 -8.604900 -5.965200
C -10.551300 -7.528500 -5.279100
N -10.429000 -7.449000 -3.963600
N -9.965000 -6.461700 -5.811400
O -9.858700 -6.137600 -7.112200
N -9.749400 -6.305900 -3.728700
N -9.458000 -5.693900 -4.846500
H -9.304800 -5.235400 -7.080500
O -8.626400 -3.997000 -7.187000
H -8.454400 -3.619500 -7.925500
H -8.290500 -3.649000 -6.480600
