14
Fragment
Cl -18.000200 -5.121000 -23.722800
C -16.514600 -5.229900 -24.510200
H -16.248200 -3.694000 -28.634100
N -16.231100 -4.685400 -25.688400
O -15.553300 -3.186300 -28.208900
H -15.490100 -6.414800 -23.134200
N -15.481500 -5.883700 -24.011500
C -14.934000 -5.064300 -25.857600
N -14.449600 -3.966400 -28.049700
N -14.434000 -5.797100 -24.877100
C -14.115700 -4.746900 -27.014000
N -13.447400 -3.910800 -28.932400
N -12.903000 -5.202500 -27.243300
N -12.524100 -4.679000 -28.428900
14
Fragment
Cl -12.071200 -2.823000 -31.602300
C -10.585600 -2.714100 -32.389700
H -10.319200 -4.250000 -36.513500
N -10.302100 -3.258600 -33.567900
O -9.624300 -4.757700 -36.088400
H -9.561100 -1.529200 -31.013700
N -9.552500 -2.060300 -31.891000
C -9.005000 -2.879700 -33.737100
N -8.520600 -3.977600 -35.929200
N -8.505000 -2.146900 -32.756600
C -8.186700 -3.197100 -34.893500
N -7.518400 -4.033200 -36.811900
N -6.974000 -2.741500 -35.122800
N -6.595100 -3.265000 -36.308400
28
Fragment
Cl -18.000200 -5.121000 -23.722800
C -16.514600 -5.229900 -24.510200
H -16.248200 -3.694000 -28.634100
N -16.231100 -4.685400 -25.688400
O -15.553300 -3.186300 -28.208900
H -15.490100 -6.414800 -23.134200
N -15.481500 -5.883700 -24.011500
C -14.934000 -5.064300 -25.857600
N -14.449600 -3.966400 -28.049700
N -14.434000 -5.797100 -24.877100
C -14.115700 -4.746900 -27.014000
N -13.447400 -3.910800 -28.932400
N -12.903000 -5.202500 -27.243300
N -12.524100 -4.679000 -28.428900
Cl -12.071200 -2.823000 -31.602300
C -10.585600 -2.714100 -32.389700
H -10.319200 -4.250000 -36.513500
N -10.302100 -3.258600 -33.567900
O -9.624300 -4.757700 -36.088400
H -9.561100 -1.529200 -31.013700
N -9.552500 -2.060300 -31.891000
C -9.005000 -2.879700 -33.737100
N -8.520600 -3.977600 -35.929200
N -8.505000 -2.146900 -32.756600
C -8.186700 -3.197100 -34.893500
N -7.518400 -4.033200 -36.811900
N -6.974000 -2.741500 -35.122800
N -6.595100 -3.265000 -36.308400
