14
Fragment
Cl -18.000200 -5.121000 -23.722800
C -16.514600 -5.229900 -24.510200
H -16.248200 -3.694000 -28.634100
N -16.231100 -4.685400 -25.688400
O -15.553300 -3.186300 -28.208900
H -15.490100 -6.414800 -23.134200
N -15.481500 -5.883700 -24.011500
C -14.934000 -5.064300 -25.857600
N -14.449600 -3.966400 -28.049700
N -14.434000 -5.797100 -24.877100
C -14.115700 -4.746900 -27.014000
N -13.447400 -3.910800 -28.932400
N -12.903000 -5.202500 -27.243300
N -12.524100 -4.679000 -28.428900
14
Fragment
N -21.035900 -0.707000 -26.727500
N -20.657000 -1.230500 -27.913100
N -20.112700 0.061200 -26.224000
C -19.444300 -0.774900 -28.142400
N -19.126000 -1.825100 -30.279300
N -19.110500 0.005600 -27.106700
C -18.626000 -1.092300 -29.298800
N -18.078500 -1.911700 -31.144900
H -18.069900 -2.442800 -32.022200
O -18.006700 0.785700 -26.947500
N -17.328900 -0.713400 -29.468000
H -17.311800 0.278000 -26.522300
C -17.045400 -1.257900 -30.646200
Cl -15.559900 -1.149000 -31.433600
28
Fragment
Cl -18.000200 -5.121000 -23.722800
C -16.514600 -5.229900 -24.510200
H -16.248200 -3.694000 -28.634100
N -16.231100 -4.685400 -25.688400
O -15.553300 -3.186300 -28.208900
H -15.490100 -6.414800 -23.134200
N -15.481500 -5.883700 -24.011500
C -14.934000 -5.064300 -25.857600
N -14.449600 -3.966400 -28.049700
N -14.434000 -5.797100 -24.877100
C -14.115700 -4.746900 -27.014000
N -13.447400 -3.910800 -28.932400
N -12.903000 -5.202500 -27.243300
N -12.524100 -4.679000 -28.428900
N -21.035900 -0.707000 -26.727500
N -20.657000 -1.230500 -27.913100
N -20.112700 0.061200 -26.224000
C -19.444300 -0.774900 -28.142400
N -19.126000 -1.825100 -30.279300
N -19.110500 0.005600 -27.106700
C -18.626000 -1.092300 -29.298800
N -18.078500 -1.911700 -31.144900
H -18.069900 -2.442800 -32.022200
O -18.006700 0.785700 -26.947500
N -17.328900 -0.713400 -29.468000
H -17.311800 0.278000 -26.522300
C -17.045400 -1.257900 -30.646200
Cl -15.559900 -1.149000 -31.433600
