14
Fragment
Cl -18.000200 -5.121000 -23.722800
C -16.514600 -5.229900 -24.510200
H -16.248200 -3.694000 -28.634100
N -16.231100 -4.685400 -25.688400
O -15.553300 -3.186300 -28.208900
H -15.490100 -6.414800 -23.134200
N -15.481500 -5.883700 -24.011500
C -14.934000 -5.064300 -25.857600
N -14.449600 -3.966400 -28.049700
N -14.434000 -5.797100 -24.877100
C -14.115700 -4.746900 -27.014000
N -13.447400 -3.910800 -28.932400
N -12.903000 -5.202500 -27.243300
N -12.524100 -4.679000 -28.428900
14
Fragment
Cl -23.929200 -2.823000 -15.843300
C -22.443600 -2.714100 -16.630800
H -22.177200 -4.250000 -20.754600
N -22.160100 -3.258600 -17.808900
O -21.482300 -4.757700 -20.329400
H -21.419100 -1.529200 -15.254700
N -21.410500 -2.060300 -16.132000
C -20.863000 -2.879700 -17.978200
N -20.378600 -3.977600 -20.170200
N -20.363000 -2.146900 -16.997600
C -20.044700 -3.197100 -19.134500
N -19.376400 -4.033200 -21.052900
N -18.832000 -2.741500 -19.363800
N -18.453100 -3.265000 -20.549400
28
Fragment
Cl -18.000200 -5.121000 -23.722800
C -16.514600 -5.229900 -24.510200
H -16.248200 -3.694000 -28.634100
N -16.231100 -4.685400 -25.688400
O -15.553300 -3.186300 -28.208900
H -15.490100 -6.414800 -23.134200
N -15.481500 -5.883700 -24.011500
C -14.934000 -5.064300 -25.857600
N -14.449600 -3.966400 -28.049700
N -14.434000 -5.797100 -24.877100
C -14.115700 -4.746900 -27.014000
N -13.447400 -3.910800 -28.932400
N -12.903000 -5.202500 -27.243300
N -12.524100 -4.679000 -28.428900
Cl -23.929200 -2.823000 -15.843300
C -22.443600 -2.714100 -16.630800
H -22.177200 -4.250000 -20.754600
N -22.160100 -3.258600 -17.808900
O -21.482300 -4.757700 -20.329400
H -21.419100 -1.529200 -15.254700
N -21.410500 -2.060300 -16.132000
C -20.863000 -2.879700 -17.978200
N -20.378600 -3.977600 -20.170200
N -20.363000 -2.146900 -16.997600
C -20.044700 -3.197100 -19.134500
N -19.376400 -4.033200 -21.052900
N -18.832000 -2.741500 -19.363800
N -18.453100 -3.265000 -20.549400
