14
Fragment
Cl -18.000200 -5.121000 -23.722800
C -16.514600 -5.229900 -24.510200
H -16.248200 -3.694000 -28.634100
N -16.231100 -4.685400 -25.688400
O -15.553300 -3.186300 -28.208900
H -15.490100 -6.414800 -23.134200
N -15.481500 -5.883700 -24.011500
C -14.934000 -5.064300 -25.857600
N -14.449600 -3.966400 -28.049700
N -14.434000 -5.797100 -24.877100
C -14.115700 -4.746900 -27.014000
N -13.447400 -3.910800 -28.932400
N -12.903000 -5.202500 -27.243300
N -12.524100 -4.679000 -28.428900
14
Fragment
N -26.964900 -3.265000 -18.848000
N -26.586000 -2.741500 -20.033600
N -26.041700 -4.033200 -18.344500
C -25.373300 -3.197100 -20.262900
N -25.055000 -2.146900 -22.399800
N -25.039500 -3.977600 -19.227200
C -24.555000 -2.879700 -21.419300
N -24.007500 -2.060300 -23.265400
H -23.998900 -1.529200 -24.142700
O -23.935700 -4.757700 -19.068000
N -23.257900 -3.258600 -21.588500
H -23.240800 -4.250000 -18.642900
C -22.974400 -2.714100 -22.766700
Cl -21.488900 -2.823000 -23.554100
28
Fragment
Cl -18.000200 -5.121000 -23.722800
C -16.514600 -5.229900 -24.510200
H -16.248200 -3.694000 -28.634100
N -16.231100 -4.685400 -25.688400
O -15.553300 -3.186300 -28.208900
H -15.490100 -6.414800 -23.134200
N -15.481500 -5.883700 -24.011500
C -14.934000 -5.064300 -25.857600
N -14.449600 -3.966400 -28.049700
N -14.434000 -5.797100 -24.877100
C -14.115700 -4.746900 -27.014000
N -13.447400 -3.910800 -28.932400
N -12.903000 -5.202500 -27.243300
N -12.524100 -4.679000 -28.428900
N -26.964900 -3.265000 -18.848000
N -26.586000 -2.741500 -20.033600
N -26.041700 -4.033200 -18.344500
C -25.373300 -3.197100 -20.262900
N -25.055000 -2.146900 -22.399800
N -25.039500 -3.977600 -19.227200
C -24.555000 -2.879700 -21.419300
N -24.007500 -2.060300 -23.265400
H -23.998900 -1.529200 -24.142700
O -23.935700 -4.757700 -19.068000
N -23.257900 -3.258600 -21.588500
H -23.240800 -4.250000 -18.642900
C -22.974400 -2.714100 -22.766700
Cl -21.488900 -2.823000 -23.554100
