32
Fragment
O -15.344700 -27.846000 -23.265600
H -15.204300 -27.523800 -24.028800
H -14.955500 -28.423100 -20.824800
O -14.851900 -25.904200 -24.963600
C -14.761300 -27.072800 -22.338500
C -14.641700 -27.554600 -21.045600
H -14.378800 -27.871000 -18.660200
C -14.320400 -25.288500 -23.992100
C -14.199700 -25.839500 -22.677600
H -14.129100 -23.994800 -25.973700
C -14.046200 -26.734300 -20.057500
O -13.997400 -27.127200 -18.744300
O -13.849400 -23.415700 -25.432300
C -13.724000 -23.975000 -24.194000
C -13.601400 -25.075600 -21.685700
C -13.500800 -25.514800 -20.364900
C -13.144300 -23.308700 -23.204700
H -13.070000 -24.988300 -19.703100
O -13.052000 -23.859200 -21.939700
C -12.489200 -21.988900 -23.200800
H -12.422600 -21.679800 -25.215900
H -12.360800 -21.839900 -21.155300
C -12.203200 -21.290000 -24.378200
C -12.164500 -21.393900 -21.971500
C -11.605100 -20.035400 -24.346400
C -11.554800 -20.148600 -21.961300
H -11.419200 -19.576200 -25.156700
C -11.282200 -19.459700 -23.136100
O -11.264900 -19.617700 -20.720500
H -11.075400 -18.803400 -20.801900
O -10.710200 -18.233900 -22.973500
H -10.511400 -17.917200 -23.725800
38
Fragment
H -19.714500 -33.733800 -34.640500
H -19.443100 -32.051400 -27.742500
H -19.398800 -32.662600 -29.947100
H -19.139300 -31.084100 -29.981900
H -18.945800 -33.050100 -35.866300
C -18.841100 -33.437900 -34.972700
C -18.753200 -31.951800 -29.703400
C -18.562700 -31.949900 -28.183200
O -18.436800 -33.895800 -32.328500
H -18.383500 -29.888000 -28.095300
O -18.365900 -31.310500 -25.469100
N -18.287700 -32.425700 -34.060800
H -18.232100 -34.204100 -35.017900
C -18.122900 -32.791500 -32.748900
H -18.000300 -32.722300 -27.922900
N -17.979200 -30.697600 -35.767800
C -17.912300 -31.187300 -34.477400
C -17.900600 -30.657200 -27.700600
C -17.873900 -30.493700 -26.218400
H -17.687700 -28.471200 -25.924400
N -17.605800 -31.820400 -31.871300
C -17.494000 -29.455200 -35.630600
C -17.452200 -32.183600 -30.457800
C -17.423800 -30.229900 -33.625200
H -17.409800 -28.854900 -36.362000
C -17.263700 -30.494800 -32.226900
H -17.192600 -33.135500 -30.385600
C -17.186100 -29.273400 -25.667200
H -17.147500 -29.333500 -24.689300
N -17.141100 -29.131900 -34.397400
H -17.111100 -27.475100 -33.219200
H -16.970600 -30.632000 -28.039100
O -16.920800 -29.682900 -31.363300
H -16.733500 -31.636400 -30.051800
C -16.558000 -27.846300 -33.937700
H -16.528400 -27.214900 -34.686800
H -16.276600 -29.219200 -26.027000
H -15.649400 -28.000500 -33.604700
70
Fragment
O -15.344700 -27.846000 -23.265600
H -15.204300 -27.523800 -24.028800
H -14.955500 -28.423100 -20.824800
O -14.851900 -25.904200 -24.963600
C -14.761300 -27.072800 -22.338500
C -14.641700 -27.554600 -21.045600
H -14.378800 -27.871000 -18.660200
C -14.320400 -25.288500 -23.992100
C -14.199700 -25.839500 -22.677600
H -14.129100 -23.994800 -25.973700
C -14.046200 -26.734300 -20.057500
O -13.997400 -27.127200 -18.744300
O -13.849400 -23.415700 -25.432300
C -13.724000 -23.975000 -24.194000
C -13.601400 -25.075600 -21.685700
C -13.500800 -25.514800 -20.364900
C -13.144300 -23.308700 -23.204700
H -13.070000 -24.988300 -19.703100
O -13.052000 -23.859200 -21.939700
C -12.489200 -21.988900 -23.200800
H -12.422600 -21.679800 -25.215900
H -12.360800 -21.839900 -21.155300
C -12.203200 -21.290000 -24.378200
C -12.164500 -21.393900 -21.971500
C -11.605100 -20.035400 -24.346400
C -11.554800 -20.148600 -21.961300
H -11.419200 -19.576200 -25.156700
C -11.282200 -19.459700 -23.136100
O -11.264900 -19.617700 -20.720500
H -11.075400 -18.803400 -20.801900
O -10.710200 -18.233900 -22.973500
H -10.511400 -17.917200 -23.725800
H -19.714500 -33.733800 -34.640500
H -19.443100 -32.051400 -27.742500
H -19.398800 -32.662600 -29.947100
H -19.139300 -31.084100 -29.981900
H -18.945800 -33.050100 -35.866300
C -18.841100 -33.437900 -34.972700
C -18.753200 -31.951800 -29.703400
C -18.562700 -31.949900 -28.183200
O -18.436800 -33.895800 -32.328500
H -18.383500 -29.888000 -28.095300
O -18.365900 -31.310500 -25.469100
N -18.287700 -32.425700 -34.060800
H -18.232100 -34.204100 -35.017900
C -18.122900 -32.791500 -32.748900
H -18.000300 -32.722300 -27.922900
N -17.979200 -30.697600 -35.767800
C -17.912300 -31.187300 -34.477400
C -17.900600 -30.657200 -27.700600
C -17.873900 -30.493700 -26.218400
H -17.687700 -28.471200 -25.924400
N -17.605800 -31.820400 -31.871300
C -17.494000 -29.455200 -35.630600
C -17.452200 -32.183600 -30.457800
C -17.423800 -30.229900 -33.625200
H -17.409800 -28.854900 -36.362000
C -17.263700 -30.494800 -32.226900
H -17.192600 -33.135500 -30.385600
C -17.186100 -29.273400 -25.667200
H -17.147500 -29.333500 -24.689300
N -17.141100 -29.131900 -34.397400
H -17.111100 -27.475100 -33.219200
H -16.970600 -30.632000 -28.039100
O -16.920800 -29.682900 -31.363300
H -16.733500 -31.636400 -30.051800
C -16.558000 -27.846300 -33.937700
H -16.528400 -27.214900 -34.686800
H -16.276600 -29.219200 -26.027000
H -15.649400 -28.000500 -33.604700
