32
Fragment
O -15.344700 -27.846000 -23.265600
H -15.204300 -27.523800 -24.028800
H -14.955500 -28.423100 -20.824800
O -14.851900 -25.904200 -24.963600
C -14.761300 -27.072800 -22.338500
C -14.641700 -27.554600 -21.045600
H -14.378800 -27.871000 -18.660200
C -14.320400 -25.288500 -23.992100
C -14.199700 -25.839500 -22.677600
H -14.129100 -23.994800 -25.973700
C -14.046200 -26.734300 -20.057500
O -13.997400 -27.127200 -18.744300
O -13.849400 -23.415700 -25.432300
C -13.724000 -23.975000 -24.194000
C -13.601400 -25.075600 -21.685700
C -13.500800 -25.514800 -20.364900
C -13.144300 -23.308700 -23.204700
H -13.070000 -24.988300 -19.703100
O -13.052000 -23.859200 -21.939700
C -12.489200 -21.988900 -23.200800
H -12.422600 -21.679800 -25.215900
H -12.360800 -21.839900 -21.155300
C -12.203200 -21.290000 -24.378200
C -12.164500 -21.393900 -21.971500
C -11.605100 -20.035400 -24.346400
C -11.554800 -20.148600 -21.961300
H -11.419200 -19.576200 -25.156700
C -11.282200 -19.459700 -23.136100
O -11.264900 -19.617700 -20.720500
H -11.075400 -18.803400 -20.801900
O -10.710200 -18.233900 -22.973500
H -10.511400 -17.917200 -23.725800
38
Fragment
H -17.151800 -21.624800 -17.196400
H -16.524600 -20.406100 -24.774000
H -16.272700 -22.410400 -16.114200
C -16.243200 -21.779000 -16.863400
H -16.067700 -17.988900 -20.749300
O -15.880400 -19.942400 -19.437800
H -15.830600 -18.993300 -22.761900
H -15.690000 -22.150200 -17.581900
N -15.660100 -20.493400 -16.403700
H -15.653600 -20.291800 -26.111700
C -15.615000 -20.351800 -25.133800
H -15.608600 -16.489800 -20.415400
C -15.537500 -19.130500 -18.574100
H -15.391300 -20.770400 -14.439100
C -15.377400 -19.395400 -17.175800
C -15.349000 -17.441700 -20.343300
C -15.307200 -20.170100 -15.170500
N -15.195400 -17.804900 -18.929700
H -15.113400 -21.154100 -24.876600
C -14.927300 -19.131500 -24.582600
C -14.900600 -18.968100 -23.100500
C -14.888900 -18.438000 -16.323700
N -14.822000 -18.927700 -15.033300
H -14.800900 -16.903000 -22.878100
C -14.678200 -16.833800 -18.052200
H -14.569100 -15.421100 -15.783100
N -14.513500 -17.199600 -16.740200
O -14.435300 -18.314800 -25.332000
H -14.417700 -19.737300 -22.705800
O -14.364400 -15.729500 -18.472500
C -14.238500 -17.675400 -22.617900
C -14.047900 -17.673500 -21.097700
C -13.960100 -16.187300 -15.828300
H -13.855400 -16.575200 -14.934800
H -13.661900 -18.541200 -20.819200
H -13.402400 -16.962700 -20.854000
H -13.358100 -17.573900 -23.058600
H -13.086700 -15.891500 -16.160600
70
Fragment
O -15.344700 -27.846000 -23.265600
H -15.204300 -27.523800 -24.028800
H -14.955500 -28.423100 -20.824800
O -14.851900 -25.904200 -24.963600
C -14.761300 -27.072800 -22.338500
C -14.641700 -27.554600 -21.045600
H -14.378800 -27.871000 -18.660200
C -14.320400 -25.288500 -23.992100
C -14.199700 -25.839500 -22.677600
H -14.129100 -23.994800 -25.973700
C -14.046200 -26.734300 -20.057500
O -13.997400 -27.127200 -18.744300
O -13.849400 -23.415700 -25.432300
C -13.724000 -23.975000 -24.194000
C -13.601400 -25.075600 -21.685700
C -13.500800 -25.514800 -20.364900
C -13.144300 -23.308700 -23.204700
H -13.070000 -24.988300 -19.703100
O -13.052000 -23.859200 -21.939700
C -12.489200 -21.988900 -23.200800
H -12.422600 -21.679800 -25.215900
H -12.360800 -21.839900 -21.155300
C -12.203200 -21.290000 -24.378200
C -12.164500 -21.393900 -21.971500
C -11.605100 -20.035400 -24.346400
C -11.554800 -20.148600 -21.961300
H -11.419200 -19.576200 -25.156700
C -11.282200 -19.459700 -23.136100
O -11.264900 -19.617700 -20.720500
H -11.075400 -18.803400 -20.801900
O -10.710200 -18.233900 -22.973500
H -10.511400 -17.917200 -23.725800
H -17.151800 -21.624800 -17.196400
H -16.524600 -20.406100 -24.774000
H -16.272700 -22.410400 -16.114200
C -16.243200 -21.779000 -16.863400
H -16.067700 -17.988900 -20.749300
O -15.880400 -19.942400 -19.437800
H -15.830600 -18.993300 -22.761900
H -15.690000 -22.150200 -17.581900
N -15.660100 -20.493400 -16.403700
H -15.653600 -20.291800 -26.111700
C -15.615000 -20.351800 -25.133800
H -15.608600 -16.489800 -20.415400
C -15.537500 -19.130500 -18.574100
H -15.391300 -20.770400 -14.439100
C -15.377400 -19.395400 -17.175800
C -15.349000 -17.441700 -20.343300
C -15.307200 -20.170100 -15.170500
N -15.195400 -17.804900 -18.929700
H -15.113400 -21.154100 -24.876600
C -14.927300 -19.131500 -24.582600
C -14.900600 -18.968100 -23.100500
C -14.888900 -18.438000 -16.323700
N -14.822000 -18.927700 -15.033300
H -14.800900 -16.903000 -22.878100
C -14.678200 -16.833800 -18.052200
H -14.569100 -15.421100 -15.783100
N -14.513500 -17.199600 -16.740200
O -14.435300 -18.314800 -25.332000
H -14.417700 -19.737300 -22.705800
O -14.364400 -15.729500 -18.472500
C -14.238500 -17.675400 -22.617900
C -14.047900 -17.673500 -21.097700
C -13.960100 -16.187300 -15.828300
H -13.855400 -16.575200 -14.934800
H -13.661900 -18.541200 -20.819200
H -13.402400 -16.962700 -20.854000
H -13.358100 -17.573900 -23.058600
H -13.086700 -15.891500 -16.160600
