32
Fragment
O -15.344700 -27.846000 -23.265600
H -15.204300 -27.523800 -24.028800
H -14.955500 -28.423100 -20.824800
O -14.851900 -25.904200 -24.963600
C -14.761300 -27.072800 -22.338500
C -14.641700 -27.554600 -21.045600
H -14.378800 -27.871000 -18.660200
C -14.320400 -25.288500 -23.992100
C -14.199700 -25.839500 -22.677600
H -14.129100 -23.994800 -25.973700
C -14.046200 -26.734300 -20.057500
O -13.997400 -27.127200 -18.744300
O -13.849400 -23.415700 -25.432300
C -13.724000 -23.975000 -24.194000
C -13.601400 -25.075600 -21.685700
C -13.500800 -25.514800 -20.364900
C -13.144300 -23.308700 -23.204700
H -13.070000 -24.988300 -19.703100
O -13.052000 -23.859200 -21.939700
C -12.489200 -21.988900 -23.200800
H -12.422600 -21.679800 -25.215900
H -12.360800 -21.839900 -21.155300
C -12.203200 -21.290000 -24.378200
C -12.164500 -21.393900 -21.971500
C -11.605100 -20.035400 -24.346400
C -11.554800 -20.148600 -21.961300
H -11.419200 -19.576200 -25.156700
C -11.282200 -19.459700 -23.136100
O -11.264900 -19.617700 -20.720500
H -11.075400 -18.803400 -20.801900
O -10.710200 -18.233900 -22.973500
H -10.511400 -17.917200 -23.725800
32
Fragment
H -14.488600 -26.203300 -14.375100
O -14.289800 -25.886500 -15.127300
H -13.924600 -25.317100 -17.298900
O -13.735100 -24.502800 -17.380300
C -13.717900 -24.660800 -14.964700
H -13.580800 -24.544300 -12.944100
C -13.445300 -23.971900 -16.139500
C -13.394900 -24.085100 -13.754400
C -12.835500 -22.726600 -16.129300
C -12.796900 -22.830400 -13.722600
H -12.639200 -22.280600 -16.945500
H -12.577400 -22.440700 -12.884900
C -12.510800 -22.131600 -14.900000
O -11.948100 -20.261300 -16.161100
H -11.930100 -19.132100 -18.397700
C -11.855800 -20.811700 -14.896100
C -11.499200 -18.605700 -17.735900
C -11.398600 -19.044900 -16.415100
C -11.276000 -20.145500 -13.906800
O -11.150700 -20.704700 -12.668500
O -11.002600 -16.993300 -19.356500
C -10.953800 -17.386200 -18.043300
H -10.870900 -20.125700 -12.127100
C -10.800400 -18.281000 -15.423200
C -10.679700 -18.832000 -14.108700
H -10.621200 -16.249500 -19.440600
C -10.358300 -16.565900 -17.055200
C -10.238700 -17.047600 -15.762300
O -10.148100 -18.216300 -13.137200
H -10.044500 -15.697300 -17.276000
H -9.795700 -16.596700 -14.072000
O -9.655400 -16.274500 -14.835200
64
Fragment
O -15.344700 -27.846000 -23.265600
H -15.204300 -27.523800 -24.028800
H -14.955500 -28.423100 -20.824800
O -14.851900 -25.904200 -24.963600
C -14.761300 -27.072800 -22.338500
C -14.641700 -27.554600 -21.045600
H -14.378800 -27.871000 -18.660200
C -14.320400 -25.288500 -23.992100
C -14.199700 -25.839500 -22.677600
H -14.129100 -23.994800 -25.973700
C -14.046200 -26.734300 -20.057500
O -13.997400 -27.127200 -18.744300
O -13.849400 -23.415700 -25.432300
C -13.724000 -23.975000 -24.194000
C -13.601400 -25.075600 -21.685700
C -13.500800 -25.514800 -20.364900
C -13.144300 -23.308700 -23.204700
H -13.070000 -24.988300 -19.703100
O -13.052000 -23.859200 -21.939700
C -12.489200 -21.988900 -23.200800
H -12.422600 -21.679800 -25.215900
H -12.360800 -21.839900 -21.155300
C -12.203200 -21.290000 -24.378200
C -12.164500 -21.393900 -21.971500
C -11.605100 -20.035400 -24.346400
C -11.554800 -20.148600 -21.961300
H -11.419200 -19.576200 -25.156700
C -11.282200 -19.459700 -23.136100
O -11.264900 -19.617700 -20.720500
H -11.075400 -18.803400 -20.801900
O -10.710200 -18.233900 -22.973500
H -10.511400 -17.917200 -23.725800
H -14.488600 -26.203300 -14.375100
O -14.289800 -25.886500 -15.127300
H -13.924600 -25.317100 -17.298900
O -13.735100 -24.502800 -17.380300
C -13.717900 -24.660800 -14.964700
H -13.580800 -24.544300 -12.944100
C -13.445300 -23.971900 -16.139500
C -13.394900 -24.085100 -13.754400
C -12.835500 -22.726600 -16.129300
C -12.796900 -22.830400 -13.722600
H -12.639200 -22.280600 -16.945500
H -12.577400 -22.440700 -12.884900
C -12.510800 -22.131600 -14.900000
O -11.948100 -20.261300 -16.161100
H -11.930100 -19.132100 -18.397700
C -11.855800 -20.811700 -14.896100
C -11.499200 -18.605700 -17.735900
C -11.398600 -19.044900 -16.415100
C -11.276000 -20.145500 -13.906800
O -11.150700 -20.704700 -12.668500
O -11.002600 -16.993300 -19.356500
C -10.953800 -17.386200 -18.043300
H -10.870900 -20.125700 -12.127100
C -10.800400 -18.281000 -15.423200
C -10.679700 -18.832000 -14.108700
H -10.621200 -16.249500 -19.440600
C -10.358300 -16.565900 -17.055200
C -10.238700 -17.047600 -15.762300
O -10.148100 -18.216300 -13.137200
H -10.044500 -15.697300 -17.276000
H -9.795700 -16.596700 -14.072000
O -9.655400 -16.274500 -14.835200
