40
Fragment
H -20.853200 -21.062600 -44.381900
H -20.448200 -21.553000 -42.131700
C -20.088300 -21.569300 -44.135800
C -19.842500 -21.854300 -42.798800
H -19.384400 -21.837900 -46.026000
C -19.213600 -22.027000 -45.110900
C -18.711700 -22.579800 -42.432400
H -18.543500 -22.764200 -41.515800
H -18.265400 -27.065900 -47.565000
C -18.087200 -22.761800 -44.753500
C -17.824700 -23.036700 -43.408600
H -17.494800 -23.077500 -45.425700
C -17.316000 -27.084200 -47.594200
H -17.137900 -28.198400 -49.278200
N -16.944800 -25.708300 -45.499600
C -16.640400 -27.747000 -48.606500
C -16.558100 -23.681100 -43.012500
C -16.546600 -26.442800 -46.615900
N -15.956000 -23.303900 -41.873900
C -15.808800 -25.339800 -44.927200
C -15.687200 -24.573500 -43.690400
C -15.233000 -27.766900 -48.662000
C -15.138300 -26.484000 -46.677800
H -14.805600 -28.220300 -49.379100
N -14.772700 -23.932700 -41.915500
N -14.699400 -25.776500 -45.580300
N -14.561300 -24.699600 -42.983800
C -14.455700 -27.144600 -47.701500
N -14.169700 -23.301500 -39.754000
H -13.863200 -25.656800 -45.326700
C -13.751000 -23.736900 -40.935700
H -13.506600 -27.165400 -47.736600
H -13.489700 -22.764200 -37.975800
C -13.222700 -23.087700 -38.828200
C -12.430200 -23.994500 -41.283000
H -12.194400 -24.298900 -42.151300
C -11.868700 -23.316200 -39.054200
C -11.475400 -23.786500 -40.304000
H -11.227900 -23.155200 -38.371700
H -10.559300 -23.962900 -40.482800
40
Fragment
H -30.913600 -21.062600 -44.381900
H -30.508600 -21.553000 -42.131700
C -30.148700 -21.569300 -44.135800
C -29.902900 -21.854300 -42.798800
H -29.444800 -21.837900 -46.026000
C -29.274000 -22.027000 -45.110900
C -28.772100 -22.579800 -42.432400
H -28.603900 -22.764200 -41.515800
H -28.325800 -27.065900 -47.565000
C -28.147600 -22.761800 -44.753500
C -27.885100 -23.036700 -43.408600
H -27.555200 -23.077500 -45.425700
C -27.376400 -27.084200 -47.594200
H -27.198300 -28.198400 -49.278200
N -27.005200 -25.708300 -45.499600
C -26.700800 -27.747000 -48.606500
C -26.618500 -23.681100 -43.012500
C -26.607000 -26.442800 -46.615900
N -26.016400 -23.303900 -41.873900
C -25.869200 -25.339800 -44.927200
C -25.747600 -24.573500 -43.690400
C -25.293400 -27.766900 -48.662000
C -25.198700 -26.484000 -46.677800
H -24.866000 -28.220300 -49.379100
N -24.833100 -23.932700 -41.915500
N -24.759800 -25.776500 -45.580300
N -24.621700 -24.699600 -42.983800
C -24.516100 -27.144600 -47.701500
N -24.230100 -23.301500 -39.754000
H -23.923600 -25.656800 -45.326700
C -23.811400 -23.736900 -40.935700
H -23.567000 -27.165400 -47.736600
H -23.550100 -22.764200 -37.975800
C -23.283100 -23.087700 -38.828200
C -22.490600 -23.994500 -41.283000
H -22.254800 -24.298900 -42.151300
C -21.929100 -23.316200 -39.054200
C -21.535800 -23.786500 -40.304000
H -21.288300 -23.155200 -38.371700
H -20.619700 -23.962900 -40.482800
80
Fragment
H -20.853200 -21.062600 -44.381900
H -20.448200 -21.553000 -42.131700
C -20.088300 -21.569300 -44.135800
C -19.842500 -21.854300 -42.798800
H -19.384400 -21.837900 -46.026000
C -19.213600 -22.027000 -45.110900
C -18.711700 -22.579800 -42.432400
H -18.543500 -22.764200 -41.515800
H -18.265400 -27.065900 -47.565000
C -18.087200 -22.761800 -44.753500
C -17.824700 -23.036700 -43.408600
H -17.494800 -23.077500 -45.425700
C -17.316000 -27.084200 -47.594200
H -17.137900 -28.198400 -49.278200
N -16.944800 -25.708300 -45.499600
C -16.640400 -27.747000 -48.606500
C -16.558100 -23.681100 -43.012500
C -16.546600 -26.442800 -46.615900
N -15.956000 -23.303900 -41.873900
C -15.808800 -25.339800 -44.927200
C -15.687200 -24.573500 -43.690400
C -15.233000 -27.766900 -48.662000
C -15.138300 -26.484000 -46.677800
H -14.805600 -28.220300 -49.379100
N -14.772700 -23.932700 -41.915500
N -14.699400 -25.776500 -45.580300
N -14.561300 -24.699600 -42.983800
C -14.455700 -27.144600 -47.701500
N -14.169700 -23.301500 -39.754000
H -13.863200 -25.656800 -45.326700
C -13.751000 -23.736900 -40.935700
H -13.506600 -27.165400 -47.736600
H -13.489700 -22.764200 -37.975800
C -13.222700 -23.087700 -38.828200
C -12.430200 -23.994500 -41.283000
H -12.194400 -24.298900 -42.151300
C -11.868700 -23.316200 -39.054200
C -11.475400 -23.786500 -40.304000
H -11.227900 -23.155200 -38.371700
H -10.559300 -23.962900 -40.482800
H -30.913600 -21.062600 -44.381900
H -30.508600 -21.553000 -42.131700
C -30.148700 -21.569300 -44.135800
C -29.902900 -21.854300 -42.798800
H -29.444800 -21.837900 -46.026000
C -29.274000 -22.027000 -45.110900
C -28.772100 -22.579800 -42.432400
H -28.603900 -22.764200 -41.515800
H -28.325800 -27.065900 -47.565000
C -28.147600 -22.761800 -44.753500
C -27.885100 -23.036700 -43.408600
H -27.555200 -23.077500 -45.425700
C -27.376400 -27.084200 -47.594200
H -27.198300 -28.198400 -49.278200
N -27.005200 -25.708300 -45.499600
C -26.700800 -27.747000 -48.606500
C -26.618500 -23.681100 -43.012500
C -26.607000 -26.442800 -46.615900
N -26.016400 -23.303900 -41.873900
C -25.869200 -25.339800 -44.927200
C -25.747600 -24.573500 -43.690400
C -25.293400 -27.766900 -48.662000
C -25.198700 -26.484000 -46.677800
H -24.866000 -28.220300 -49.379100
N -24.833100 -23.932700 -41.915500
N -24.759800 -25.776500 -45.580300
N -24.621700 -24.699600 -42.983800
C -24.516100 -27.144600 -47.701500
N -24.230100 -23.301500 -39.754000
H -23.923600 -25.656800 -45.326700
C -23.811400 -23.736900 -40.935700
H -23.567000 -27.165400 -47.736600
H -23.550100 -22.764200 -37.975800
C -23.283100 -23.087700 -38.828200
C -22.490600 -23.994500 -41.283000
H -22.254800 -24.298900 -42.151300
C -21.929100 -23.316200 -39.054200
C -21.535800 -23.786500 -40.304000
H -21.288300 -23.155200 -38.371700
H -20.619700 -23.962900 -40.482800
