40
Fragment
H -20.853200 -21.062600 -44.381900
H -20.448200 -21.553000 -42.131700
C -20.088300 -21.569300 -44.135800
C -19.842500 -21.854300 -42.798800
H -19.384400 -21.837900 -46.026000
C -19.213600 -22.027000 -45.110900
C -18.711700 -22.579800 -42.432400
H -18.543500 -22.764200 -41.515800
H -18.265400 -27.065900 -47.565000
C -18.087200 -22.761800 -44.753500
C -17.824700 -23.036700 -43.408600
H -17.494800 -23.077500 -45.425700
C -17.316000 -27.084200 -47.594200
H -17.137900 -28.198400 -49.278200
N -16.944800 -25.708300 -45.499600
C -16.640400 -27.747000 -48.606500
C -16.558100 -23.681100 -43.012500
C -16.546600 -26.442800 -46.615900
N -15.956000 -23.303900 -41.873900
C -15.808800 -25.339800 -44.927200
C -15.687200 -24.573500 -43.690400
C -15.233000 -27.766900 -48.662000
C -15.138300 -26.484000 -46.677800
H -14.805600 -28.220300 -49.379100
N -14.772700 -23.932700 -41.915500
N -14.699400 -25.776500 -45.580300
N -14.561300 -24.699600 -42.983800
C -14.455700 -27.144600 -47.701500
N -14.169700 -23.301500 -39.754000
H -13.863200 -25.656800 -45.326700
C -13.751000 -23.736900 -40.935700
H -13.506600 -27.165400 -47.736600
H -13.489700 -22.764200 -37.975800
C -13.222700 -23.087700 -38.828200
C -12.430200 -23.994500 -41.283000
H -12.194400 -24.298900 -42.151300
C -11.868700 -23.316200 -39.054200
C -11.475400 -23.786500 -40.304000
H -11.227900 -23.155200 -38.371700
H -10.559300 -23.962900 -40.482800
40
Fragment
H -20.853200 -31.423700 -57.284500
H -20.448200 -30.933400 -55.034300
C -20.088300 -30.917000 -57.038300
C -19.842500 -30.632100 -55.701300
H -19.384400 -30.648400 -58.928500
C -19.213600 -30.459300 -58.013500
C -18.711700 -29.906600 -55.334900
H -18.543500 -29.722100 -54.418300
H -18.265400 -25.420500 -60.467500
C -18.087200 -29.724500 -57.656100
C -17.824700 -29.449600 -56.311100
H -17.494800 -29.408900 -58.328300
C -17.316000 -25.402200 -60.496700
H -17.137900 -24.288000 -62.180700
N -16.944800 -26.778100 -58.402100
C -16.640400 -24.739400 -61.509000
C -16.558100 -28.805300 -55.915000
C -16.546600 -26.043600 -59.518400
N -15.956000 -29.182400 -54.776500
C -15.808800 -27.146500 -57.829700
C -15.687200 -27.912800 -56.592900
C -15.233000 -24.719400 -61.564500
C -15.138300 -26.002300 -59.580400
H -14.805600 -24.266100 -62.281600
N -14.772700 -28.553600 -54.818000
N -14.699400 -26.709900 -58.482900
N -14.561300 -27.786700 -55.886400
C -14.455700 -25.341800 -60.604100
N -14.169700 -29.184800 -52.656600
H -13.863200 -26.829500 -58.229200
C -13.751000 -28.749500 -53.838200
H -13.506600 -25.320900 -60.639100
H -13.489700 -29.722100 -50.878400
C -13.222700 -29.398700 -51.730700
C -12.430200 -28.491800 -54.185500
H -12.194400 -28.187400 -55.053900
C -11.868700 -29.170100 -51.956800
C -11.475400 -28.699800 -53.206500
H -11.227900 -29.331200 -51.274200
H -10.559300 -28.523500 -53.385300
80
Fragment
H -20.853200 -21.062600 -44.381900
H -20.448200 -21.553000 -42.131700
C -20.088300 -21.569300 -44.135800
C -19.842500 -21.854300 -42.798800
H -19.384400 -21.837900 -46.026000
C -19.213600 -22.027000 -45.110900
C -18.711700 -22.579800 -42.432400
H -18.543500 -22.764200 -41.515800
H -18.265400 -27.065900 -47.565000
C -18.087200 -22.761800 -44.753500
C -17.824700 -23.036700 -43.408600
H -17.494800 -23.077500 -45.425700
C -17.316000 -27.084200 -47.594200
H -17.137900 -28.198400 -49.278200
N -16.944800 -25.708300 -45.499600
C -16.640400 -27.747000 -48.606500
C -16.558100 -23.681100 -43.012500
C -16.546600 -26.442800 -46.615900
N -15.956000 -23.303900 -41.873900
C -15.808800 -25.339800 -44.927200
C -15.687200 -24.573500 -43.690400
C -15.233000 -27.766900 -48.662000
C -15.138300 -26.484000 -46.677800
H -14.805600 -28.220300 -49.379100
N -14.772700 -23.932700 -41.915500
N -14.699400 -25.776500 -45.580300
N -14.561300 -24.699600 -42.983800
C -14.455700 -27.144600 -47.701500
N -14.169700 -23.301500 -39.754000
H -13.863200 -25.656800 -45.326700
C -13.751000 -23.736900 -40.935700
H -13.506600 -27.165400 -47.736600
H -13.489700 -22.764200 -37.975800
C -13.222700 -23.087700 -38.828200
C -12.430200 -23.994500 -41.283000
H -12.194400 -24.298900 -42.151300
C -11.868700 -23.316200 -39.054200
C -11.475400 -23.786500 -40.304000
H -11.227900 -23.155200 -38.371700
H -10.559300 -23.962900 -40.482800
H -20.853200 -31.423700 -57.284500
H -20.448200 -30.933400 -55.034300
C -20.088300 -30.917000 -57.038300
C -19.842500 -30.632100 -55.701300
H -19.384400 -30.648400 -58.928500
C -19.213600 -30.459300 -58.013500
C -18.711700 -29.906600 -55.334900
H -18.543500 -29.722100 -54.418300
H -18.265400 -25.420500 -60.467500
C -18.087200 -29.724500 -57.656100
C -17.824700 -29.449600 -56.311100
H -17.494800 -29.408900 -58.328300
C -17.316000 -25.402200 -60.496700
H -17.137900 -24.288000 -62.180700
N -16.944800 -26.778100 -58.402100
C -16.640400 -24.739400 -61.509000
C -16.558100 -28.805300 -55.915000
C -16.546600 -26.043600 -59.518400
N -15.956000 -29.182400 -54.776500
C -15.808800 -27.146500 -57.829700
C -15.687200 -27.912800 -56.592900
C -15.233000 -24.719400 -61.564500
C -15.138300 -26.002300 -59.580400
H -14.805600 -24.266100 -62.281600
N -14.772700 -28.553600 -54.818000
N -14.699400 -26.709900 -58.482900
N -14.561300 -27.786700 -55.886400
C -14.455700 -25.341800 -60.604100
N -14.169700 -29.184800 -52.656600
H -13.863200 -26.829500 -58.229200
C -13.751000 -28.749500 -53.838200
H -13.506600 -25.320900 -60.639100
H -13.489700 -29.722100 -50.878400
C -13.222700 -29.398700 -51.730700
C -12.430200 -28.491800 -54.185500
H -12.194400 -28.187400 -55.053900
C -11.868700 -29.170100 -51.956800
C -11.475400 -28.699800 -53.206500
H -11.227900 -29.331200 -51.274200
H -10.559300 -28.523500 -53.385300
