40
Fragment
H -20.853200 -21.062600 -44.381900
H -20.448200 -21.553000 -42.131700
C -20.088300 -21.569300 -44.135800
C -19.842500 -21.854300 -42.798800
H -19.384400 -21.837900 -46.026000
C -19.213600 -22.027000 -45.110900
C -18.711700 -22.579800 -42.432400
H -18.543500 -22.764200 -41.515800
H -18.265400 -27.065900 -47.565000
C -18.087200 -22.761800 -44.753500
C -17.824700 -23.036700 -43.408600
H -17.494800 -23.077500 -45.425700
C -17.316000 -27.084200 -47.594200
H -17.137900 -28.198400 -49.278200
N -16.944800 -25.708300 -45.499600
C -16.640400 -27.747000 -48.606500
C -16.558100 -23.681100 -43.012500
C -16.546600 -26.442800 -46.615900
N -15.956000 -23.303900 -41.873900
C -15.808800 -25.339800 -44.927200
C -15.687200 -24.573500 -43.690400
C -15.233000 -27.766900 -48.662000
C -15.138300 -26.484000 -46.677800
H -14.805600 -28.220300 -49.379100
N -14.772700 -23.932700 -41.915500
N -14.699400 -25.776500 -45.580300
N -14.561300 -24.699600 -42.983800
C -14.455700 -27.144600 -47.701500
N -14.169700 -23.301500 -39.754000
H -13.863200 -25.656800 -45.326700
C -13.751000 -23.736900 -40.935700
H -13.506600 -27.165400 -47.736600
H -13.489700 -22.764200 -37.975800
C -13.222700 -23.087700 -38.828200
C -12.430200 -23.994500 -41.283000
H -12.194400 -24.298900 -42.151300
C -11.868700 -23.316200 -39.054200
C -11.475400 -23.786500 -40.304000
H -11.227900 -23.155200 -38.371700
H -10.559300 -23.962900 -40.482800
40
Fragment
H -9.561500 -21.025400 -36.932500
H -8.892900 -21.833100 -39.043600
C -8.645400 -21.201800 -37.111300
C -8.252100 -21.672100 -38.361100
H -7.926400 -20.689400 -35.264000
C -7.690600 -20.993800 -36.132300
C -6.898100 -21.900600 -38.587100
H -6.631100 -22.224100 -39.439500
H -6.614200 -17.822900 -29.678700
C -6.369800 -21.251400 -36.479600
H -6.257600 -19.331500 -32.088600
N -5.951100 -21.686800 -37.661300
C -5.665100 -17.843700 -29.713800
N -5.559500 -20.288700 -34.431500
N -5.421400 -19.211800 -31.835000
N -5.348100 -21.055600 -35.499800
H -5.315200 -16.768000 -28.036200
C -4.982500 -18.504300 -30.737500
C -4.887800 -17.221400 -28.753300
C -4.433600 -20.414800 -33.724900
C -4.312000 -19.648500 -32.488100
N -4.164800 -21.684400 -35.541400
C -3.574200 -18.545500 -30.799400
C -3.562700 -21.307200 -34.402800
C -3.480400 -17.241300 -28.808800
N -3.176000 -19.280000 -31.915700
H -2.982900 -16.789900 -28.137100
C -2.804800 -17.904100 -29.821100
H -2.626000 -21.910800 -31.989600
C -2.296100 -21.951600 -34.006700
C -2.033600 -22.226500 -32.661800
H -1.855400 -17.922400 -29.850300
H -1.577300 -22.224100 -35.899500
C -1.409100 -22.408500 -34.982900
C -0.907200 -22.961300 -32.304400
H -0.736400 -23.150400 -31.389300
C -0.278300 -23.134000 -34.616500
C -0.032500 -23.419000 -33.279500
H 0.327400 -23.435300 -35.283600
H 0.732400 -23.925700 -33.033400
80
Fragment
H -20.853200 -21.062600 -44.381900
H -20.448200 -21.553000 -42.131700
C -20.088300 -21.569300 -44.135800
C -19.842500 -21.854300 -42.798800
H -19.384400 -21.837900 -46.026000
C -19.213600 -22.027000 -45.110900
C -18.711700 -22.579800 -42.432400
H -18.543500 -22.764200 -41.515800
H -18.265400 -27.065900 -47.565000
C -18.087200 -22.761800 -44.753500
C -17.824700 -23.036700 -43.408600
H -17.494800 -23.077500 -45.425700
C -17.316000 -27.084200 -47.594200
H -17.137900 -28.198400 -49.278200
N -16.944800 -25.708300 -45.499600
C -16.640400 -27.747000 -48.606500
C -16.558100 -23.681100 -43.012500
C -16.546600 -26.442800 -46.615900
N -15.956000 -23.303900 -41.873900
C -15.808800 -25.339800 -44.927200
C -15.687200 -24.573500 -43.690400
C -15.233000 -27.766900 -48.662000
C -15.138300 -26.484000 -46.677800
H -14.805600 -28.220300 -49.379100
N -14.772700 -23.932700 -41.915500
N -14.699400 -25.776500 -45.580300
N -14.561300 -24.699600 -42.983800
C -14.455700 -27.144600 -47.701500
N -14.169700 -23.301500 -39.754000
H -13.863200 -25.656800 -45.326700
C -13.751000 -23.736900 -40.935700
H -13.506600 -27.165400 -47.736600
H -13.489700 -22.764200 -37.975800
C -13.222700 -23.087700 -38.828200
C -12.430200 -23.994500 -41.283000
H -12.194400 -24.298900 -42.151300
C -11.868700 -23.316200 -39.054200
C -11.475400 -23.786500 -40.304000
H -11.227900 -23.155200 -38.371700
H -10.559300 -23.962900 -40.482800
H -9.561500 -21.025400 -36.932500
H -8.892900 -21.833100 -39.043600
C -8.645400 -21.201800 -37.111300
C -8.252100 -21.672100 -38.361100
H -7.926400 -20.689400 -35.264000
C -7.690600 -20.993800 -36.132300
C -6.898100 -21.900600 -38.587100
H -6.631100 -22.224100 -39.439500
H -6.614200 -17.822900 -29.678700
C -6.369800 -21.251400 -36.479600
H -6.257600 -19.331500 -32.088600
N -5.951100 -21.686800 -37.661300
C -5.665100 -17.843700 -29.713800
N -5.559500 -20.288700 -34.431500
N -5.421400 -19.211800 -31.835000
N -5.348100 -21.055600 -35.499800
H -5.315200 -16.768000 -28.036200
C -4.982500 -18.504300 -30.737500
C -4.887800 -17.221400 -28.753300
C -4.433600 -20.414800 -33.724900
C -4.312000 -19.648500 -32.488100
N -4.164800 -21.684400 -35.541400
C -3.574200 -18.545500 -30.799400
C -3.562700 -21.307200 -34.402800
C -3.480400 -17.241300 -28.808800
N -3.176000 -19.280000 -31.915700
H -2.982900 -16.789900 -28.137100
C -2.804800 -17.904100 -29.821100
H -2.626000 -21.910800 -31.989600
C -2.296100 -21.951600 -34.006700
C -2.033600 -22.226500 -32.661800
H -1.855400 -17.922400 -29.850300
H -1.577300 -22.224100 -35.899500
C -1.409100 -22.408500 -34.982900
C -0.907200 -22.961300 -32.304400
H -0.736400 -23.150400 -31.389300
C -0.278300 -23.134000 -34.616500
C -0.032500 -23.419000 -33.279500
H 0.327400 -23.435300 -35.283600
H 0.732400 -23.925700 -33.033400
