40
Fragment
H -20.853200 -21.062600 -44.381900
H -20.448200 -21.553000 -42.131700
C -20.088300 -21.569300 -44.135800
C -19.842500 -21.854300 -42.798800
H -19.384400 -21.837900 -46.026000
C -19.213600 -22.027000 -45.110900
C -18.711700 -22.579800 -42.432400
H -18.543500 -22.764200 -41.515800
H -18.265400 -27.065900 -47.565000
C -18.087200 -22.761800 -44.753500
C -17.824700 -23.036700 -43.408600
H -17.494800 -23.077500 -45.425700
C -17.316000 -27.084200 -47.594200
H -17.137900 -28.198400 -49.278200
N -16.944800 -25.708300 -45.499600
C -16.640400 -27.747000 -48.606500
C -16.558100 -23.681100 -43.012500
C -16.546600 -26.442800 -46.615900
N -15.956000 -23.303900 -41.873900
C -15.808800 -25.339800 -44.927200
C -15.687200 -24.573500 -43.690400
C -15.233000 -27.766900 -48.662000
C -15.138300 -26.484000 -46.677800
H -14.805600 -28.220300 -49.379100
N -14.772700 -23.932700 -41.915500
N -14.699400 -25.776500 -45.580300
N -14.561300 -24.699600 -42.983800
C -14.455700 -27.144600 -47.701500
N -14.169700 -23.301500 -39.754000
H -13.863200 -25.656800 -45.326700
C -13.751000 -23.736900 -40.935700
H -13.506600 -27.165400 -47.736600
H -13.489700 -22.764200 -37.975800
C -13.222700 -23.087700 -38.828200
C -12.430200 -23.994500 -41.283000
H -12.194400 -24.298900 -42.151300
C -11.868700 -23.316200 -39.054200
C -11.475400 -23.786500 -40.304000
H -11.227900 -23.155200 -38.371700
H -10.559300 -23.962900 -40.482800
40
Fragment
H -20.853200 -31.423700 -31.479400
H -20.448200 -30.933400 -29.229200
C -20.088300 -30.917000 -31.233200
C -19.842500 -30.632100 -29.896200
H -19.384400 -30.648400 -33.123400
C -19.213600 -30.459300 -32.208400
C -18.711700 -29.906600 -29.529800
H -18.543500 -29.722100 -28.613200
H -18.265400 -25.420500 -34.662400
C -18.087200 -29.724500 -31.851000
C -17.824700 -29.449600 -30.506000
H -17.494800 -29.408900 -32.523200
C -17.316000 -25.402200 -34.691600
H -17.137900 -24.288000 -36.375600
N -16.944800 -26.778100 -32.597000
C -16.640400 -24.739400 -35.703900
C -16.558100 -28.805300 -30.109900
C -16.546600 -26.043600 -33.713300
N -15.956000 -29.182400 -28.971400
C -15.808800 -27.146500 -32.024600
C -15.687200 -27.912800 -30.787800
C -15.233000 -24.719400 -35.759400
C -15.138300 -26.002300 -33.775300
H -14.805600 -24.266100 -36.476500
N -14.772700 -28.553600 -29.012900
N -14.699400 -26.709900 -32.677800
N -14.561300 -27.786700 -30.081300
C -14.455700 -25.341800 -34.799000
N -14.169700 -29.184800 -26.851500
H -13.863200 -26.829500 -32.424100
C -13.751000 -28.749500 -28.033100
H -13.506600 -25.320900 -34.834000
H -13.489700 -29.722100 -25.073300
C -13.222700 -29.398700 -25.925600
C -12.430200 -28.491800 -28.380400
H -12.194400 -28.187400 -29.248800
C -11.868700 -29.170100 -26.151700
C -11.475400 -28.699800 -27.401400
H -11.227900 -29.331200 -25.469100
H -10.559300 -28.523500 -27.580200
80
Fragment
H -20.853200 -21.062600 -44.381900
H -20.448200 -21.553000 -42.131700
C -20.088300 -21.569300 -44.135800
C -19.842500 -21.854300 -42.798800
H -19.384400 -21.837900 -46.026000
C -19.213600 -22.027000 -45.110900
C -18.711700 -22.579800 -42.432400
H -18.543500 -22.764200 -41.515800
H -18.265400 -27.065900 -47.565000
C -18.087200 -22.761800 -44.753500
C -17.824700 -23.036700 -43.408600
H -17.494800 -23.077500 -45.425700
C -17.316000 -27.084200 -47.594200
H -17.137900 -28.198400 -49.278200
N -16.944800 -25.708300 -45.499600
C -16.640400 -27.747000 -48.606500
C -16.558100 -23.681100 -43.012500
C -16.546600 -26.442800 -46.615900
N -15.956000 -23.303900 -41.873900
C -15.808800 -25.339800 -44.927200
C -15.687200 -24.573500 -43.690400
C -15.233000 -27.766900 -48.662000
C -15.138300 -26.484000 -46.677800
H -14.805600 -28.220300 -49.379100
N -14.772700 -23.932700 -41.915500
N -14.699400 -25.776500 -45.580300
N -14.561300 -24.699600 -42.983800
C -14.455700 -27.144600 -47.701500
N -14.169700 -23.301500 -39.754000
H -13.863200 -25.656800 -45.326700
C -13.751000 -23.736900 -40.935700
H -13.506600 -27.165400 -47.736600
H -13.489700 -22.764200 -37.975800
C -13.222700 -23.087700 -38.828200
C -12.430200 -23.994500 -41.283000
H -12.194400 -24.298900 -42.151300
C -11.868700 -23.316200 -39.054200
C -11.475400 -23.786500 -40.304000
H -11.227900 -23.155200 -38.371700
H -10.559300 -23.962900 -40.482800
H -20.853200 -31.423700 -31.479400
H -20.448200 -30.933400 -29.229200
C -20.088300 -30.917000 -31.233200
C -19.842500 -30.632100 -29.896200
H -19.384400 -30.648400 -33.123400
C -19.213600 -30.459300 -32.208400
C -18.711700 -29.906600 -29.529800
H -18.543500 -29.722100 -28.613200
H -18.265400 -25.420500 -34.662400
C -18.087200 -29.724500 -31.851000
C -17.824700 -29.449600 -30.506000
H -17.494800 -29.408900 -32.523200
C -17.316000 -25.402200 -34.691600
H -17.137900 -24.288000 -36.375600
N -16.944800 -26.778100 -32.597000
C -16.640400 -24.739400 -35.703900
C -16.558100 -28.805300 -30.109900
C -16.546600 -26.043600 -33.713300
N -15.956000 -29.182400 -28.971400
C -15.808800 -27.146500 -32.024600
C -15.687200 -27.912800 -30.787800
C -15.233000 -24.719400 -35.759400
C -15.138300 -26.002300 -33.775300
H -14.805600 -24.266100 -36.476500
N -14.772700 -28.553600 -29.012900
N -14.699400 -26.709900 -32.677800
N -14.561300 -27.786700 -30.081300
C -14.455700 -25.341800 -34.799000
N -14.169700 -29.184800 -26.851500
H -13.863200 -26.829500 -32.424100
C -13.751000 -28.749500 -28.033100
H -13.506600 -25.320900 -34.834000
H -13.489700 -29.722100 -25.073300
C -13.222700 -29.398700 -25.925600
C -12.430200 -28.491800 -28.380400
H -12.194400 -28.187400 -29.248800
C -11.868700 -29.170100 -26.151700
C -11.475400 -28.699800 -27.401400
H -11.227900 -29.331200 -25.469100
H -10.559300 -28.523500 -27.580200
