22
Fragment
O -29.306000 -12.071900 -8.706200
O -28.534700 -13.816800 -7.592300
N -28.415200 -12.862000 -8.438000
H -28.314700 -10.508300 -9.998500
H -27.672700 -10.595600 -11.587100
N -27.633000 -10.897800 -10.652600
C -27.220100 -12.834700 -9.124800
C -26.870600 -11.888600 -10.208800
H -26.492400 -14.916700 -7.382100
C -26.215800 -13.841900 -9.087500
N -25.969000 -14.899200 -8.251100
N -25.727600 -12.303300 -10.732100
N -25.294700 -13.401000 -9.993900
C -24.771800 -15.547400 -8.484700
O -24.553500 -16.611300 -7.746100
H -24.268800 -16.378900 -6.821400
C -24.091100 -14.103800 -10.250800
C -23.911300 -15.345500 -9.550000
O -23.393700 -13.661800 -11.185300
N -22.832300 -16.122500 -9.919100
H -22.617500 -16.848100 -9.251000
H -22.071500 -15.658700 -10.325600
22
Fragment
H -29.768100 -6.165300 -8.363300
H -29.222100 -4.975900 -9.437900
N -29.007300 -5.701500 -8.769700
O -28.445900 -8.162200 -7.503600
C -27.928300 -6.478500 -9.138900
C -27.748600 -7.720200 -8.438000
H -27.570800 -5.445100 -11.867400
O -27.286100 -5.212700 -10.942800
C -27.067900 -6.276600 -10.204100
N -26.544900 -8.423000 -8.695000
N -26.112000 -9.520700 -7.956800
N -25.870700 -6.924800 -10.437700
C -25.623800 -7.982100 -9.601400
H -25.347200 -6.907300 -11.306800
C -24.969000 -9.935400 -8.480100
C -24.619500 -8.989300 -9.564000
N -24.206600 -10.926200 -8.036200
H -24.166900 -11.228400 -7.101800
H -23.525000 -11.315700 -8.690300
N -23.424400 -8.962000 -10.250800
O -23.304900 -8.007200 -11.096500
O -22.533600 -9.752100 -9.982700
44
Fragment
O -29.306000 -12.071900 -8.706200
O -28.534700 -13.816800 -7.592300
N -28.415200 -12.862000 -8.438000
H -28.314700 -10.508300 -9.998500
H -27.672700 -10.595600 -11.587100
N -27.633000 -10.897800 -10.652600
C -27.220100 -12.834700 -9.124800
C -26.870600 -11.888600 -10.208800
H -26.492400 -14.916700 -7.382100
C -26.215800 -13.841900 -9.087500
N -25.969000 -14.899200 -8.251100
N -25.727600 -12.303300 -10.732100
N -25.294700 -13.401000 -9.993900
C -24.771800 -15.547400 -8.484700
O -24.553500 -16.611300 -7.746100
H -24.268800 -16.378900 -6.821400
C -24.091100 -14.103800 -10.250800
C -23.911300 -15.345500 -9.550000
O -23.393700 -13.661800 -11.185300
N -22.832300 -16.122500 -9.919100
H -22.617500 -16.848100 -9.251000
H -22.071500 -15.658700 -10.325600
H -29.768100 -6.165300 -8.363300
H -29.222100 -4.975900 -9.437900
N -29.007300 -5.701500 -8.769700
O -28.445900 -8.162200 -7.503600
C -27.928300 -6.478500 -9.138900
C -27.748600 -7.720200 -8.438000
H -27.570800 -5.445100 -11.867400
O -27.286100 -5.212700 -10.942800
C -27.067900 -6.276600 -10.204100
N -26.544900 -8.423000 -8.695000
N -26.112000 -9.520700 -7.956800
N -25.870700 -6.924800 -10.437700
C -25.623800 -7.982100 -9.601400
H -25.347200 -6.907300 -11.306800
C -24.969000 -9.935400 -8.480100
C -24.619500 -8.989300 -9.564000
N -24.206600 -10.926200 -8.036200
H -24.166900 -11.228400 -7.101800
H -23.525000 -11.315700 -8.690300
N -23.424400 -8.962000 -10.250800
O -23.304900 -8.007200 -11.096500
O -22.533600 -9.752100 -9.982700
