22
Fragment
O -29.306000 -12.071900 -8.706200
O -28.534700 -13.816800 -7.592300
N -28.415200 -12.862000 -8.438000
H -28.314700 -10.508300 -9.998500
H -27.672700 -10.595600 -11.587100
N -27.633000 -10.897800 -10.652600
C -27.220100 -12.834700 -9.124800
C -26.870600 -11.888600 -10.208800
H -26.492400 -14.916700 -7.382100
C -26.215800 -13.841900 -9.087500
N -25.969000 -14.899200 -8.251100
N -25.727600 -12.303300 -10.732100
N -25.294700 -13.401000 -9.993900
C -24.771800 -15.547400 -8.484700
O -24.553500 -16.611300 -7.746100
H -24.268800 -16.378900 -6.821400
C -24.091100 -14.103800 -10.250800
C -23.911300 -15.345500 -9.550000
O -23.393700 -13.661800 -11.185300
N -22.832300 -16.122500 -9.919100
H -22.617500 -16.848100 -9.251000
H -22.071500 -15.658700 -10.325600
22
Fragment
O -20.394700 -15.208100 -11.042300
O -19.623400 -13.463200 -9.928500
N -19.503900 -14.418000 -10.774100
H -19.403400 -16.771700 -12.334600
H -18.761400 -16.684400 -13.923200
N -18.721700 -16.382200 -12.988800
C -18.308800 -14.445300 -11.460900
C -17.959300 -15.391400 -12.544900
H -17.581100 -12.363300 -9.718200
C -17.304500 -13.438100 -11.423600
N -17.057700 -12.380800 -10.587200
N -16.816300 -14.976700 -13.068200
N -16.383400 -13.879000 -12.330000
C -15.860500 -11.732600 -10.820800
O -15.642200 -10.668700 -10.082200
H -15.357500 -10.901100 -9.157500
C -15.179800 -13.176200 -12.586900
C -15.000100 -11.934500 -11.886100
O -14.482400 -13.618200 -13.521400
N -13.921000 -11.157500 -12.255200
H -13.706200 -10.431900 -11.587100
H -13.160200 -11.621300 -12.661700
44
Fragment
O -29.306000 -12.071900 -8.706200
O -28.534700 -13.816800 -7.592300
N -28.415200 -12.862000 -8.438000
H -28.314700 -10.508300 -9.998500
H -27.672700 -10.595600 -11.587100
N -27.633000 -10.897800 -10.652600
C -27.220100 -12.834700 -9.124800
C -26.870600 -11.888600 -10.208800
H -26.492400 -14.916700 -7.382100
C -26.215800 -13.841900 -9.087500
N -25.969000 -14.899200 -8.251100
N -25.727600 -12.303300 -10.732100
N -25.294700 -13.401000 -9.993900
C -24.771800 -15.547400 -8.484700
O -24.553500 -16.611300 -7.746100
H -24.268800 -16.378900 -6.821400
C -24.091100 -14.103800 -10.250800
C -23.911300 -15.345500 -9.550000
O -23.393700 -13.661800 -11.185300
N -22.832300 -16.122500 -9.919100
H -22.617500 -16.848100 -9.251000
H -22.071500 -15.658700 -10.325600
O -20.394700 -15.208100 -11.042300
O -19.623400 -13.463200 -9.928500
N -19.503900 -14.418000 -10.774100
H -19.403400 -16.771700 -12.334600
H -18.761400 -16.684400 -13.923200
N -18.721700 -16.382200 -12.988800
C -18.308800 -14.445300 -11.460900
C -17.959300 -15.391400 -12.544900
H -17.581100 -12.363300 -9.718200
C -17.304500 -13.438100 -11.423600
N -17.057700 -12.380800 -10.587200
N -16.816300 -14.976700 -13.068200
N -16.383400 -13.879000 -12.330000
C -15.860500 -11.732600 -10.820800
O -15.642200 -10.668700 -10.082200
H -15.357500 -10.901100 -9.157500
C -15.179800 -13.176200 -12.586900
C -15.000100 -11.934500 -11.886100
O -14.482400 -13.618200 -13.521400
N -13.921000 -11.157500 -12.255200
H -13.706200 -10.431900 -11.587100
H -13.160200 -11.621300 -12.661700
