27
Fragment
O -7.460000 -16.941000 -31.157000
H -6.739700 -20.404900 -28.369000
O -6.608200 -25.964500 -23.970400
N -6.458600 -16.403000 -30.735900
N -6.224900 -21.597300 -26.888000
N -6.197000 -20.543600 -27.719800
O -6.112100 -25.292300 -21.983600
N -6.093000 -25.176000 -23.198900
N -6.092900 -18.240700 -29.202800
O -6.005400 -15.359600 -31.187100
N -5.878800 -23.454500 -24.884400
C -5.761400 -17.031900 -29.636700
C -5.479200 -24.006000 -23.741900
C -5.246100 -19.643300 -27.425200
C -5.227100 -21.391700 -26.026400
C -5.222400 -18.428500 -28.221000
C -5.100700 -22.378400 -24.950800
N -4.770700 -16.422300 -29.025300
C -4.579900 -20.190300 -26.338800
N -4.505000 -23.414300 -23.093600
N -4.427900 -17.339000 -28.107900
N -4.275600 -22.362000 -23.892500
H -3.781200 -17.245100 -27.518800
H -3.666400 -21.744900 -23.743800
N -3.441700 -19.609000 -25.711300
O -2.988800 -18.588000 -26.179600
O -2.940400 -20.172400 -24.734200
27
Fragment
O -3.086300 -20.321500 -21.794300
H -2.366000 -16.857600 -19.006300
O -2.234600 -11.298000 -14.607700
N -2.084900 -20.859500 -21.373200
N -1.851200 -15.665200 -17.525300
N -1.823400 -16.718900 -18.357100
O -1.738400 -11.970200 -12.620900
N -1.719400 -12.086500 -13.836200
N -1.719200 -19.021800 -19.840100
O -1.631800 -21.902900 -21.824400
N -1.505100 -13.808000 -15.521700
C -1.387700 -20.230600 -20.274000
C -1.105500 -13.256500 -14.379200
C -0.872400 -17.619200 -18.062500
C -0.853500 -15.870800 -16.663700
C -0.848700 -18.834000 -18.858300
C -0.727100 -14.884100 -15.588100
N -0.397000 -20.840200 -19.662600
C -0.206200 -17.072200 -16.976100
N -0.131400 -13.848200 -13.731000
N -0.054200 -19.923500 -18.745200
N 0.098100 -14.900500 -14.529800
H 0.592500 -20.017400 -18.156100
H 0.707200 -15.517600 -14.381100
N 0.932000 -17.653500 -16.348600
O 1.384900 -18.674500 -16.816900
O 1.433300 -17.090100 -15.371500
54
Fragment
O -7.460000 -16.941000 -31.157000
H -6.739700 -20.404900 -28.369000
O -6.608200 -25.964500 -23.970400
N -6.458600 -16.403000 -30.735900
N -6.224900 -21.597300 -26.888000
N -6.197000 -20.543600 -27.719800
O -6.112100 -25.292300 -21.983600
N -6.093000 -25.176000 -23.198900
N -6.092900 -18.240700 -29.202800
O -6.005400 -15.359600 -31.187100
N -5.878800 -23.454500 -24.884400
C -5.761400 -17.031900 -29.636700
C -5.479200 -24.006000 -23.741900
C -5.246100 -19.643300 -27.425200
C -5.227100 -21.391700 -26.026400
C -5.222400 -18.428500 -28.221000
C -5.100700 -22.378400 -24.950800
N -4.770700 -16.422300 -29.025300
C -4.579900 -20.190300 -26.338800
N -4.505000 -23.414300 -23.093600
N -4.427900 -17.339000 -28.107900
N -4.275600 -22.362000 -23.892500
H -3.781200 -17.245100 -27.518800
H -3.666400 -21.744900 -23.743800
N -3.441700 -19.609000 -25.711300
O -2.988800 -18.588000 -26.179600
O -2.940400 -20.172400 -24.734200
O -3.086300 -20.321500 -21.794300
H -2.366000 -16.857600 -19.006300
O -2.234600 -11.298000 -14.607700
N -2.084900 -20.859500 -21.373200
N -1.851200 -15.665200 -17.525300
N -1.823400 -16.718900 -18.357100
O -1.738400 -11.970200 -12.620900
N -1.719400 -12.086500 -13.836200
N -1.719200 -19.021800 -19.840100
O -1.631800 -21.902900 -21.824400
N -1.505100 -13.808000 -15.521700
C -1.387700 -20.230600 -20.274000
C -1.105500 -13.256500 -14.379200
C -0.872400 -17.619200 -18.062500
C -0.853500 -15.870800 -16.663700
C -0.848700 -18.834000 -18.858300
C -0.727100 -14.884100 -15.588100
N -0.397000 -20.840200 -19.662600
C -0.206200 -17.072200 -16.976100
N -0.131400 -13.848200 -13.731000
N -0.054200 -19.923500 -18.745200
N 0.098100 -14.900500 -14.529800
H 0.592500 -20.017400 -18.156100
H 0.707200 -15.517600 -14.381100
N 0.932000 -17.653500 -16.348600
O 1.384900 -18.674500 -16.816900
O 1.433300 -17.090100 -15.371500
