27
Fragment
O -7.460000 -16.941000 -31.157000
H -6.739700 -20.404900 -28.369000
O -6.608200 -25.964500 -23.970400
N -6.458600 -16.403000 -30.735900
N -6.224900 -21.597300 -26.888000
N -6.197000 -20.543600 -27.719800
O -6.112100 -25.292300 -21.983600
N -6.093000 -25.176000 -23.198900
N -6.092900 -18.240700 -29.202800
O -6.005400 -15.359600 -31.187100
N -5.878800 -23.454500 -24.884400
C -5.761400 -17.031900 -29.636700
C -5.479200 -24.006000 -23.741900
C -5.246100 -19.643300 -27.425200
C -5.227100 -21.391700 -26.026400
C -5.222400 -18.428500 -28.221000
C -5.100700 -22.378400 -24.950800
N -4.770700 -16.422300 -29.025300
C -4.579900 -20.190300 -26.338800
N -4.505000 -23.414300 -23.093600
N -4.427900 -17.339000 -28.107900
N -4.275600 -22.362000 -23.892500
H -3.781200 -17.245100 -27.518800
H -3.666400 -21.744900 -23.743800
N -3.441700 -19.609000 -25.711300
O -2.988800 -18.588000 -26.179600
O -2.940400 -20.172400 -24.734200
27
Fragment
O -8.775900 -12.719900 -22.079300
O -8.727500 -11.135500 -20.633900
N -8.274600 -12.156500 -21.102200
H -8.049900 -14.292400 -23.069700
H -7.935100 -9.792600 -19.294600
N -7.440700 -14.909500 -22.921000
N -7.288400 -9.886500 -18.705500
N -7.211300 -15.961800 -23.719800
C -7.136400 -12.737800 -20.474700
N -6.945600 -8.969800 -17.788200
C -6.615600 -14.925900 -21.862600
C -6.493900 -10.976000 -18.592400
C -6.489200 -13.939200 -20.787100
C -6.470200 -12.190800 -19.388300
C -6.237100 -16.553500 -23.071600
C -5.954900 -9.579400 -17.176800
N -5.837500 -16.002000 -21.929100
O -5.710800 -7.907100 -15.626300
N -5.623400 -10.788200 -17.610700
N -5.623300 -17.723500 -23.614600
O -5.604200 -17.839800 -24.829900
N -5.519300 -13.091100 -19.093700
N -5.491400 -14.144800 -19.925500
N -5.257700 -8.950500 -16.077600
O -5.108100 -18.512000 -22.843100
H -4.976600 -12.952400 -18.444500
O -4.256300 -9.488500 -15.656500
54
Fragment
O -7.460000 -16.941000 -31.157000
H -6.739700 -20.404900 -28.369000
O -6.608200 -25.964500 -23.970400
N -6.458600 -16.403000 -30.735900
N -6.224900 -21.597300 -26.888000
N -6.197000 -20.543600 -27.719800
O -6.112100 -25.292300 -21.983600
N -6.093000 -25.176000 -23.198900
N -6.092900 -18.240700 -29.202800
O -6.005400 -15.359600 -31.187100
N -5.878800 -23.454500 -24.884400
C -5.761400 -17.031900 -29.636700
C -5.479200 -24.006000 -23.741900
C -5.246100 -19.643300 -27.425200
C -5.227100 -21.391700 -26.026400
C -5.222400 -18.428500 -28.221000
C -5.100700 -22.378400 -24.950800
N -4.770700 -16.422300 -29.025300
C -4.579900 -20.190300 -26.338800
N -4.505000 -23.414300 -23.093600
N -4.427900 -17.339000 -28.107900
N -4.275600 -22.362000 -23.892500
H -3.781200 -17.245100 -27.518800
H -3.666400 -21.744900 -23.743800
N -3.441700 -19.609000 -25.711300
O -2.988800 -18.588000 -26.179600
O -2.940400 -20.172400 -24.734200
O -8.775900 -12.719900 -22.079300
O -8.727500 -11.135500 -20.633900
N -8.274600 -12.156500 -21.102200
H -8.049900 -14.292400 -23.069700
H -7.935100 -9.792600 -19.294600
N -7.440700 -14.909500 -22.921000
N -7.288400 -9.886500 -18.705500
N -7.211300 -15.961800 -23.719800
C -7.136400 -12.737800 -20.474700
N -6.945600 -8.969800 -17.788200
C -6.615600 -14.925900 -21.862600
C -6.493900 -10.976000 -18.592400
C -6.489200 -13.939200 -20.787100
C -6.470200 -12.190800 -19.388300
C -6.237100 -16.553500 -23.071600
C -5.954900 -9.579400 -17.176800
N -5.837500 -16.002000 -21.929100
O -5.710800 -7.907100 -15.626300
N -5.623400 -10.788200 -17.610700
N -5.623300 -17.723500 -23.614600
O -5.604200 -17.839800 -24.829900
N -5.519300 -13.091100 -19.093700
N -5.491400 -14.144800 -19.925500
N -5.257700 -8.950500 -16.077600
O -5.108100 -18.512000 -22.843100
H -4.976600 -12.952400 -18.444500
O -4.256300 -9.488500 -15.656500
