27
Fragment
O -7.460000 -16.941000 -31.157000
H -6.739700 -20.404900 -28.369000
O -6.608200 -25.964500 -23.970400
N -6.458600 -16.403000 -30.735900
N -6.224900 -21.597300 -26.888000
N -6.197000 -20.543600 -27.719800
O -6.112100 -25.292300 -21.983600
N -6.093000 -25.176000 -23.198900
N -6.092900 -18.240700 -29.202800
O -6.005400 -15.359600 -31.187100
N -5.878800 -23.454500 -24.884400
C -5.761400 -17.031900 -29.636700
C -5.479200 -24.006000 -23.741900
C -5.246100 -19.643300 -27.425200
C -5.227100 -21.391700 -26.026400
C -5.222400 -18.428500 -28.221000
C -5.100700 -22.378400 -24.950800
N -4.770700 -16.422300 -29.025300
C -4.579900 -20.190300 -26.338800
N -4.505000 -23.414300 -23.093600
N -4.427900 -17.339000 -28.107900
N -4.275600 -22.362000 -23.892500
H -3.781200 -17.245100 -27.518800
H -3.666400 -21.744900 -23.743800
N -3.441700 -19.609000 -25.711300
O -2.988800 -18.588000 -26.179600
O -2.940400 -20.172400 -24.734200
27
Fragment
O -8.073600 -24.542600 -31.442000
O -8.025200 -26.127000 -29.996600
N -7.572300 -25.106000 -30.464900
H -7.347500 -22.970100 -32.432400
H -7.232800 -27.469900 -28.657300
N -6.738400 -22.353000 -32.283700
N -6.586100 -27.376000 -28.068200
N -6.508900 -21.300700 -33.082500
C -6.434100 -24.524700 -29.837400
N -6.243300 -28.292700 -27.150900
C -5.913200 -22.336600 -31.225300
C -5.791600 -26.286500 -27.955100
C -5.786800 -23.323300 -30.149700
C -5.767900 -25.071700 -28.751000
C -5.534700 -20.709000 -32.434200
C -5.252600 -27.683100 -26.539500
N -5.135200 -21.260500 -31.291800
O -5.008500 -29.355400 -24.989000
N -4.921100 -26.474300 -26.973400
N -4.920900 -19.539000 -32.977300
O -4.901800 -19.422700 -34.192600
N -4.816900 -24.171400 -28.456400
N -4.789000 -23.117700 -29.288200
N -4.555400 -28.312000 -25.440300
O -4.405700 -18.750500 -32.205800
H -4.274300 -24.310100 -27.807200
O -3.554000 -27.774000 -25.019200
54
Fragment
O -7.460000 -16.941000 -31.157000
H -6.739700 -20.404900 -28.369000
O -6.608200 -25.964500 -23.970400
N -6.458600 -16.403000 -30.735900
N -6.224900 -21.597300 -26.888000
N -6.197000 -20.543600 -27.719800
O -6.112100 -25.292300 -21.983600
N -6.093000 -25.176000 -23.198900
N -6.092900 -18.240700 -29.202800
O -6.005400 -15.359600 -31.187100
N -5.878800 -23.454500 -24.884400
C -5.761400 -17.031900 -29.636700
C -5.479200 -24.006000 -23.741900
C -5.246100 -19.643300 -27.425200
C -5.227100 -21.391700 -26.026400
C -5.222400 -18.428500 -28.221000
C -5.100700 -22.378400 -24.950800
N -4.770700 -16.422300 -29.025300
C -4.579900 -20.190300 -26.338800
N -4.505000 -23.414300 -23.093600
N -4.427900 -17.339000 -28.107900
N -4.275600 -22.362000 -23.892500
H -3.781200 -17.245100 -27.518800
H -3.666400 -21.744900 -23.743800
N -3.441700 -19.609000 -25.711300
O -2.988800 -18.588000 -26.179600
O -2.940400 -20.172400 -24.734200
O -8.073600 -24.542600 -31.442000
O -8.025200 -26.127000 -29.996600
N -7.572300 -25.106000 -30.464900
H -7.347500 -22.970100 -32.432400
H -7.232800 -27.469900 -28.657300
N -6.738400 -22.353000 -32.283700
N -6.586100 -27.376000 -28.068200
N -6.508900 -21.300700 -33.082500
C -6.434100 -24.524700 -29.837400
N -6.243300 -28.292700 -27.150900
C -5.913200 -22.336600 -31.225300
C -5.791600 -26.286500 -27.955100
C -5.786800 -23.323300 -30.149700
C -5.767900 -25.071700 -28.751000
C -5.534700 -20.709000 -32.434200
C -5.252600 -27.683100 -26.539500
N -5.135200 -21.260500 -31.291800
O -5.008500 -29.355400 -24.989000
N -4.921100 -26.474300 -26.973400
N -4.920900 -19.539000 -32.977300
O -4.901800 -19.422700 -34.192600
N -4.816900 -24.171400 -28.456400
N -4.789000 -23.117700 -29.288200
N -4.555400 -28.312000 -25.440300
O -4.405700 -18.750500 -32.205800
H -4.274300 -24.310100 -27.807200
O -3.554000 -27.774000 -25.019200
