27
Fragment
O -7.460000 -16.941000 -31.157000
H -6.739700 -20.404900 -28.369000
O -6.608200 -25.964500 -23.970400
N -6.458600 -16.403000 -30.735900
N -6.224900 -21.597300 -26.888000
N -6.197000 -20.543600 -27.719800
O -6.112100 -25.292300 -21.983600
N -6.093000 -25.176000 -23.198900
N -6.092900 -18.240700 -29.202800
O -6.005400 -15.359600 -31.187100
N -5.878800 -23.454500 -24.884400
C -5.761400 -17.031900 -29.636700
C -5.479200 -24.006000 -23.741900
C -5.246100 -19.643300 -27.425200
C -5.227100 -21.391700 -26.026400
C -5.222400 -18.428500 -28.221000
C -5.100700 -22.378400 -24.950800
N -4.770700 -16.422300 -29.025300
C -4.579900 -20.190300 -26.338800
N -4.505000 -23.414300 -23.093600
N -4.427900 -17.339000 -28.107900
N -4.275600 -22.362000 -23.892500
H -3.781200 -17.245100 -27.518800
H -3.666400 -21.744900 -23.743800
N -3.441700 -19.609000 -25.711300
O -2.988800 -18.588000 -26.179600
O -2.940400 -20.172400 -24.734200
27
Fragment
O -3.699900 -27.624900 -22.079300
O -3.651500 -26.040500 -20.633900
N -3.198600 -27.061500 -21.102200
H -2.973900 -29.197400 -23.069700
H -2.859100 -24.697600 -19.294600
N -2.364700 -29.814500 -22.921000
N -2.212400 -24.791500 -18.705500
N -2.135300 -30.866800 -23.719800
C -2.060400 -27.642800 -20.474700
N -1.869600 -23.874800 -17.788200
C -1.539600 -29.830900 -21.862600
C -1.417900 -25.881000 -18.592400
C -1.413200 -28.844200 -20.787100
C -1.394200 -27.095800 -19.388300
C -1.161100 -31.458500 -23.071600
C -0.878900 -24.484400 -17.176800
N -0.761500 -30.907000 -21.929100
O -0.634800 -22.812100 -15.626300
N -0.547400 -25.693200 -17.610700
N -0.547300 -32.628500 -23.614600
O -0.528200 -32.744800 -24.829900
N -0.443300 -27.996100 -19.093700
N -0.415400 -29.049800 -19.925500
N -0.181700 -23.855500 -16.077600
O -0.032100 -33.417000 -22.843100
H 0.099400 -27.857400 -18.444500
O 0.819700 -24.393500 -15.656500
54
Fragment
O -7.460000 -16.941000 -31.157000
H -6.739700 -20.404900 -28.369000
O -6.608200 -25.964500 -23.970400
N -6.458600 -16.403000 -30.735900
N -6.224900 -21.597300 -26.888000
N -6.197000 -20.543600 -27.719800
O -6.112100 -25.292300 -21.983600
N -6.093000 -25.176000 -23.198900
N -6.092900 -18.240700 -29.202800
O -6.005400 -15.359600 -31.187100
N -5.878800 -23.454500 -24.884400
C -5.761400 -17.031900 -29.636700
C -5.479200 -24.006000 -23.741900
C -5.246100 -19.643300 -27.425200
C -5.227100 -21.391700 -26.026400
C -5.222400 -18.428500 -28.221000
C -5.100700 -22.378400 -24.950800
N -4.770700 -16.422300 -29.025300
C -4.579900 -20.190300 -26.338800
N -4.505000 -23.414300 -23.093600
N -4.427900 -17.339000 -28.107900
N -4.275600 -22.362000 -23.892500
H -3.781200 -17.245100 -27.518800
H -3.666400 -21.744900 -23.743800
N -3.441700 -19.609000 -25.711300
O -2.988800 -18.588000 -26.179600
O -2.940400 -20.172400 -24.734200
O -3.699900 -27.624900 -22.079300
O -3.651500 -26.040500 -20.633900
N -3.198600 -27.061500 -21.102200
H -2.973900 -29.197400 -23.069700
H -2.859100 -24.697600 -19.294600
N -2.364700 -29.814500 -22.921000
N -2.212400 -24.791500 -18.705500
N -2.135300 -30.866800 -23.719800
C -2.060400 -27.642800 -20.474700
N -1.869600 -23.874800 -17.788200
C -1.539600 -29.830900 -21.862600
C -1.417900 -25.881000 -18.592400
C -1.413200 -28.844200 -20.787100
C -1.394200 -27.095800 -19.388300
C -1.161100 -31.458500 -23.071600
C -0.878900 -24.484400 -17.176800
N -0.761500 -30.907000 -21.929100
O -0.634800 -22.812100 -15.626300
N -0.547400 -25.693200 -17.610700
N -0.547300 -32.628500 -23.614600
O -0.528200 -32.744800 -24.829900
N -0.443300 -27.996100 -19.093700
N -0.415400 -29.049800 -19.925500
N -0.181700 -23.855500 -16.077600
O -0.032100 -33.417000 -22.843100
H 0.099400 -27.857400 -18.444500
O 0.819700 -24.393500 -15.656500
