27
Fragment
O -7.460000 -16.941000 -31.157000
H -6.739700 -20.404900 -28.369000
O -6.608200 -25.964500 -23.970400
N -6.458600 -16.403000 -30.735900
N -6.224900 -21.597300 -26.888000
N -6.197000 -20.543600 -27.719800
O -6.112100 -25.292300 -21.983600
N -6.093000 -25.176000 -23.198900
N -6.092900 -18.240700 -29.202800
O -6.005400 -15.359600 -31.187100
N -5.878800 -23.454500 -24.884400
C -5.761400 -17.031900 -29.636700
C -5.479200 -24.006000 -23.741900
C -5.246100 -19.643300 -27.425200
C -5.227100 -21.391700 -26.026400
C -5.222400 -18.428500 -28.221000
C -5.100700 -22.378400 -24.950800
N -4.770700 -16.422300 -29.025300
C -4.579900 -20.190300 -26.338800
N -4.505000 -23.414300 -23.093600
N -4.427900 -17.339000 -28.107900
N -4.275600 -22.362000 -23.892500
H -3.781200 -17.245100 -27.518800
H -3.666400 -21.744900 -23.743800
N -3.441700 -19.609000 -25.711300
O -2.988800 -18.588000 -26.179600
O -2.940400 -20.172400 -24.734200
3
Fragment
H -3.172000 -25.100000 -26.099400
O -2.988200 -24.365200 -26.485800
H -2.325100 -23.998500 -26.101300
30
Fragment
O -7.460000 -16.941000 -31.157000
H -6.739700 -20.404900 -28.369000
O -6.608200 -25.964500 -23.970400
N -6.458600 -16.403000 -30.735900
N -6.224900 -21.597300 -26.888000
N -6.197000 -20.543600 -27.719800
O -6.112100 -25.292300 -21.983600
N -6.093000 -25.176000 -23.198900
N -6.092900 -18.240700 -29.202800
O -6.005400 -15.359600 -31.187100
N -5.878800 -23.454500 -24.884400
C -5.761400 -17.031900 -29.636700
C -5.479200 -24.006000 -23.741900
C -5.246100 -19.643300 -27.425200
C -5.227100 -21.391700 -26.026400
C -5.222400 -18.428500 -28.221000
C -5.100700 -22.378400 -24.950800
N -4.770700 -16.422300 -29.025300
C -4.579900 -20.190300 -26.338800
N -4.505000 -23.414300 -23.093600
N -4.427900 -17.339000 -28.107900
N -4.275600 -22.362000 -23.892500
H -3.781200 -17.245100 -27.518800
H -3.666400 -21.744900 -23.743800
N -3.441700 -19.609000 -25.711300
O -2.988800 -18.588000 -26.179600
O -2.940400 -20.172400 -24.734200
H -3.172000 -25.100000 -26.099400
O -2.988200 -24.365200 -26.485800
H -2.325100 -23.998500 -26.101300
