36
Fragment
H -5.706900 -32.801500 -29.161500
H -5.381300 -31.474900 -29.995100
H -5.204800 -36.037500 -27.932000
C -4.998300 -32.181500 -29.435100
H -4.873900 -37.494400 -27.358300
H -4.734400 -30.100400 -25.845000
H -4.529000 -29.566700 -28.148200
C -4.491200 -36.628500 -27.613700
H -4.429400 -34.150500 -28.172600
N -4.385800 -31.586900 -28.248000
H -4.317500 -32.669400 -29.944600
C -4.106100 -33.786300 -27.356200
C -4.031700 -32.372300 -27.206700
C -3.862500 -30.219100 -28.448700
C -3.853400 -30.389800 -25.527300
H -3.833700 -36.761200 -28.328800
N -3.832400 -36.019900 -26.449400
H -3.815200 -30.306700 -24.551300
C -3.719300 -34.642000 -26.345200
H -3.674000 -30.078700 -29.400200
C -3.621000 -31.840000 -25.923000
N -3.451500 -38.149000 -25.648500
C -3.333200 -36.839400 -25.466700
H -3.160100 -29.825200 -25.929800
C -3.154200 -32.703700 -24.983900
C -3.143300 -34.117700 -25.150600
H -3.037600 -30.105600 -27.932200
O -2.999800 -40.199300 -24.792700
C -2.952300 -38.964400 -24.688600
H -2.816900 -32.343600 -24.171200
C -2.724600 -36.214700 -24.336400
N -2.646900 -34.895100 -24.177400
N -2.362900 -38.426100 -23.548800
C -2.179400 -37.094500 -23.308400
H -2.061900 -39.046800 -22.946800
O -1.585300 -36.722300 -22.286000
36
Fragment
H -9.396500 -21.351200 -23.969100
O -9.002100 -23.498200 -24.934300
N -8.958800 -21.903600 -23.333000
O -8.902500 -20.229600 -21.820400
C -8.676200 -23.165000 -23.804400
C -8.593400 -21.395400 -22.087200
C -8.003600 -24.016600 -22.821800
N -7.919500 -22.182800 -21.204900
N -7.751200 -25.290000 -23.145600
C -7.651700 -23.432100 -21.566500
C -7.165600 -26.063300 -22.217800
H -7.105400 -27.762000 -23.379200
H -7.052700 -24.116200 -18.645800
N -6.988200 -24.229500 -20.665300
C -6.879800 -27.429200 -22.518900
H -6.768800 -22.707200 -19.349300
C -6.763700 -25.571200 -20.939900
H -6.652800 -30.254200 -19.838000
C -6.568800 -23.667100 -19.368400
H -6.548100 -30.303000 -21.900000
H -6.301200 -30.221500 -18.277100
C -6.297100 -28.282800 -21.623300
C -6.186100 -26.418900 -20.012100
C -6.038700 -27.798700 -20.275300
C -5.960000 -30.042300 -19.177200
H -5.882800 -26.066300 -19.184200
C -5.855100 -29.640600 -22.106100
H -5.846500 -27.705300 -17.508800
H -5.710100 -29.612100 -23.075300
H -5.605200 -23.801500 -19.251200
N -5.589600 -28.604200 -19.292700
H -5.169600 -30.596900 -19.344600
C -5.092800 -28.041800 -18.037400
H -5.020300 -29.892100 -21.658700
H -4.623300 -28.737000 -17.531200
H -4.475500 -27.305400 -18.231100
72
Fragment
H -5.706900 -32.801500 -29.161500
H -5.381300 -31.474900 -29.995100
H -5.204800 -36.037500 -27.932000
C -4.998300 -32.181500 -29.435100
H -4.873900 -37.494400 -27.358300
H -4.734400 -30.100400 -25.845000
H -4.529000 -29.566700 -28.148200
C -4.491200 -36.628500 -27.613700
H -4.429400 -34.150500 -28.172600
N -4.385800 -31.586900 -28.248000
H -4.317500 -32.669400 -29.944600
C -4.106100 -33.786300 -27.356200
C -4.031700 -32.372300 -27.206700
C -3.862500 -30.219100 -28.448700
C -3.853400 -30.389800 -25.527300
H -3.833700 -36.761200 -28.328800
N -3.832400 -36.019900 -26.449400
H -3.815200 -30.306700 -24.551300
C -3.719300 -34.642000 -26.345200
H -3.674000 -30.078700 -29.400200
C -3.621000 -31.840000 -25.923000
N -3.451500 -38.149000 -25.648500
C -3.333200 -36.839400 -25.466700
H -3.160100 -29.825200 -25.929800
C -3.154200 -32.703700 -24.983900
C -3.143300 -34.117700 -25.150600
H -3.037600 -30.105600 -27.932200
O -2.999800 -40.199300 -24.792700
C -2.952300 -38.964400 -24.688600
H -2.816900 -32.343600 -24.171200
C -2.724600 -36.214700 -24.336400
N -2.646900 -34.895100 -24.177400
N -2.362900 -38.426100 -23.548800
C -2.179400 -37.094500 -23.308400
H -2.061900 -39.046800 -22.946800
O -1.585300 -36.722300 -22.286000
H -9.396500 -21.351200 -23.969100
O -9.002100 -23.498200 -24.934300
N -8.958800 -21.903600 -23.333000
O -8.902500 -20.229600 -21.820400
C -8.676200 -23.165000 -23.804400
C -8.593400 -21.395400 -22.087200
C -8.003600 -24.016600 -22.821800
N -7.919500 -22.182800 -21.204900
N -7.751200 -25.290000 -23.145600
C -7.651700 -23.432100 -21.566500
C -7.165600 -26.063300 -22.217800
H -7.105400 -27.762000 -23.379200
H -7.052700 -24.116200 -18.645800
N -6.988200 -24.229500 -20.665300
C -6.879800 -27.429200 -22.518900
H -6.768800 -22.707200 -19.349300
C -6.763700 -25.571200 -20.939900
H -6.652800 -30.254200 -19.838000
C -6.568800 -23.667100 -19.368400
H -6.548100 -30.303000 -21.900000
H -6.301200 -30.221500 -18.277100
C -6.297100 -28.282800 -21.623300
C -6.186100 -26.418900 -20.012100
C -6.038700 -27.798700 -20.275300
C -5.960000 -30.042300 -19.177200
H -5.882800 -26.066300 -19.184200
C -5.855100 -29.640600 -22.106100
H -5.846500 -27.705300 -17.508800
H -5.710100 -29.612100 -23.075300
H -5.605200 -23.801500 -19.251200
N -5.589600 -28.604200 -19.292700
H -5.169600 -30.596900 -19.344600
C -5.092800 -28.041800 -18.037400
H -5.020300 -29.892100 -21.658700
H -4.623300 -28.737000 -17.531200
H -4.475500 -27.305400 -18.231100
