36
Fragment
H -5.706900 -32.801500 -29.161500
H -5.381300 -31.474900 -29.995100
H -5.204800 -36.037500 -27.932000
C -4.998300 -32.181500 -29.435100
H -4.873900 -37.494400 -27.358300
H -4.734400 -30.100400 -25.845000
H -4.529000 -29.566700 -28.148200
C -4.491200 -36.628500 -27.613700
H -4.429400 -34.150500 -28.172600
N -4.385800 -31.586900 -28.248000
H -4.317500 -32.669400 -29.944600
C -4.106100 -33.786300 -27.356200
C -4.031700 -32.372300 -27.206700
C -3.862500 -30.219100 -28.448700
C -3.853400 -30.389800 -25.527300
H -3.833700 -36.761200 -28.328800
N -3.832400 -36.019900 -26.449400
H -3.815200 -30.306700 -24.551300
C -3.719300 -34.642000 -26.345200
H -3.674000 -30.078700 -29.400200
C -3.621000 -31.840000 -25.923000
N -3.451500 -38.149000 -25.648500
C -3.333200 -36.839400 -25.466700
H -3.160100 -29.825200 -25.929800
C -3.154200 -32.703700 -24.983900
C -3.143300 -34.117700 -25.150600
H -3.037600 -30.105600 -27.932200
O -2.999800 -40.199300 -24.792700
C -2.952300 -38.964400 -24.688600
H -2.816900 -32.343600 -24.171200
C -2.724600 -36.214700 -24.336400
N -2.646900 -34.895100 -24.177400
N -2.362900 -38.426100 -23.548800
C -2.179400 -37.094500 -23.308400
H -2.061900 -39.046800 -22.946800
O -1.585300 -36.722300 -22.286000
36
Fragment
H -5.600800 -41.437000 -23.969100
O -5.206400 -43.584000 -24.934300
N -5.163100 -41.989400 -23.333000
O -5.106800 -40.315400 -21.820400
C -4.880500 -43.250800 -23.804400
C -4.797700 -41.481200 -22.087200
C -4.207900 -44.102400 -22.821800
N -4.123800 -42.268600 -21.204900
N -3.955500 -45.375800 -23.145600
C -3.856000 -43.517900 -21.566500
C -3.369900 -46.149100 -22.217800
H -3.309700 -47.847800 -23.379200
H -3.257000 -44.202000 -18.645800
N -3.192500 -44.315300 -20.665300
C -3.084100 -47.515000 -22.518900
H -2.973100 -42.793000 -19.349300
C -2.968000 -45.657000 -20.939900
H -2.857100 -50.340000 -19.838000
C -2.773100 -43.752900 -19.368400
H -2.752400 -50.388800 -21.900000
H -2.505500 -50.307300 -18.277100
C -2.501400 -48.368600 -21.623300
C -2.390400 -46.504700 -20.012100
C -2.243000 -47.884500 -20.275300
C -2.164300 -50.128100 -19.177200
H -2.087100 -46.152100 -19.184200
C -2.059400 -49.726400 -22.106100
H -2.050800 -47.791100 -17.508800
H -1.914400 -49.697900 -23.075300
H -1.809500 -43.887300 -19.251200
N -1.793900 -48.690000 -19.292700
H -1.373900 -50.682700 -19.344600
C -1.297100 -48.127600 -18.037400
H -1.224600 -49.977900 -21.658700
H -0.827600 -48.822800 -17.531200
H -0.679800 -47.391200 -18.231100
72
Fragment
H -5.706900 -32.801500 -29.161500
H -5.381300 -31.474900 -29.995100
H -5.204800 -36.037500 -27.932000
C -4.998300 -32.181500 -29.435100
H -4.873900 -37.494400 -27.358300
H -4.734400 -30.100400 -25.845000
H -4.529000 -29.566700 -28.148200
C -4.491200 -36.628500 -27.613700
H -4.429400 -34.150500 -28.172600
N -4.385800 -31.586900 -28.248000
H -4.317500 -32.669400 -29.944600
C -4.106100 -33.786300 -27.356200
C -4.031700 -32.372300 -27.206700
C -3.862500 -30.219100 -28.448700
C -3.853400 -30.389800 -25.527300
H -3.833700 -36.761200 -28.328800
N -3.832400 -36.019900 -26.449400
H -3.815200 -30.306700 -24.551300
C -3.719300 -34.642000 -26.345200
H -3.674000 -30.078700 -29.400200
C -3.621000 -31.840000 -25.923000
N -3.451500 -38.149000 -25.648500
C -3.333200 -36.839400 -25.466700
H -3.160100 -29.825200 -25.929800
C -3.154200 -32.703700 -24.983900
C -3.143300 -34.117700 -25.150600
H -3.037600 -30.105600 -27.932200
O -2.999800 -40.199300 -24.792700
C -2.952300 -38.964400 -24.688600
H -2.816900 -32.343600 -24.171200
C -2.724600 -36.214700 -24.336400
N -2.646900 -34.895100 -24.177400
N -2.362900 -38.426100 -23.548800
C -2.179400 -37.094500 -23.308400
H -2.061900 -39.046800 -22.946800
O -1.585300 -36.722300 -22.286000
H -5.600800 -41.437000 -23.969100
O -5.206400 -43.584000 -24.934300
N -5.163100 -41.989400 -23.333000
O -5.106800 -40.315400 -21.820400
C -4.880500 -43.250800 -23.804400
C -4.797700 -41.481200 -22.087200
C -4.207900 -44.102400 -22.821800
N -4.123800 -42.268600 -21.204900
N -3.955500 -45.375800 -23.145600
C -3.856000 -43.517900 -21.566500
C -3.369900 -46.149100 -22.217800
H -3.309700 -47.847800 -23.379200
H -3.257000 -44.202000 -18.645800
N -3.192500 -44.315300 -20.665300
C -3.084100 -47.515000 -22.518900
H -2.973100 -42.793000 -19.349300
C -2.968000 -45.657000 -20.939900
H -2.857100 -50.340000 -19.838000
C -2.773100 -43.752900 -19.368400
H -2.752400 -50.388800 -21.900000
H -2.505500 -50.307300 -18.277100
C -2.501400 -48.368600 -21.623300
C -2.390400 -46.504700 -20.012100
C -2.243000 -47.884500 -20.275300
C -2.164300 -50.128100 -19.177200
H -2.087100 -46.152100 -19.184200
C -2.059400 -49.726400 -22.106100
H -2.050800 -47.791100 -17.508800
H -1.914400 -49.697900 -23.075300
H -1.809500 -43.887300 -19.251200
N -1.793900 -48.690000 -19.292700
H -1.373900 -50.682700 -19.344600
C -1.297100 -48.127600 -18.037400
H -1.224600 -49.977900 -21.658700
H -0.827600 -48.822800 -17.531200
H -0.679800 -47.391200 -18.231100
