3
Fragment
H -15.033600 -18.109100 -17.806200
H -15.001800 -17.553700 -16.794900
O -14.515900 -17.695100 -17.371600
36
Fragment
H -17.254400 -13.368900 -27.900200
H -17.223800 -14.922600 -28.282800
H -16.769500 -16.853300 -28.799400
C -16.679700 -14.155700 -28.005900
H -16.577500 -15.495700 -21.627000
H -16.459300 -13.038900 -25.362600
N -16.021600 -14.458000 -26.727400
C -16.019200 -15.685700 -26.120600
C -16.006700 -18.094700 -26.216900
C -16.004500 -16.914700 -26.897100
H -16.000100 -13.974300 -28.688700
C -15.975700 -18.185900 -24.802300
H -15.958600 -18.869100 -26.691200
N -15.953800 -19.408500 -24.218400
C -15.951600 -15.751200 -24.722800
C -15.925000 -16.971900 -24.052200
C -15.914300 -19.451700 -22.896400
N -15.903500 -18.311700 -20.718500
C -15.894400 -18.287300 -22.052500
H -15.893500 -14.938200 -24.199100
C -15.884000 -16.971500 -28.396000
O -15.877900 -21.856500 -22.807100
C -15.861500 -20.772700 -22.227000
N -15.848800 -17.077100 -22.673700
C -15.834200 -19.529200 -20.106900
O -15.810400 -19.620400 -18.865100
N -15.763300 -20.695500 -20.859400
C -15.701700 -13.261000 -25.943600
C -15.693400 -15.864500 -21.834600
H -15.592700 -21.529700 -20.346500
H -15.523700 -12.511700 -26.549100
H -15.517900 -17.841200 -28.661800
H -15.287000 -16.258100 -28.703400
H -15.233900 -16.100200 -21.002000
H -15.166900 -15.196300 -22.321000
H -14.908400 -13.432600 -25.393800
39
Fragment
H -15.033600 -18.109100 -17.806200
H -15.001800 -17.553700 -16.794900
O -14.515900 -17.695100 -17.371600
H -17.254400 -13.368900 -27.900200
H -17.223800 -14.922600 -28.282800
H -16.769500 -16.853300 -28.799400
C -16.679700 -14.155700 -28.005900
H -16.577500 -15.495700 -21.627000
H -16.459300 -13.038900 -25.362600
N -16.021600 -14.458000 -26.727400
C -16.019200 -15.685700 -26.120600
C -16.006700 -18.094700 -26.216900
C -16.004500 -16.914700 -26.897100
H -16.000100 -13.974300 -28.688700
C -15.975700 -18.185900 -24.802300
H -15.958600 -18.869100 -26.691200
N -15.953800 -19.408500 -24.218400
C -15.951600 -15.751200 -24.722800
C -15.925000 -16.971900 -24.052200
C -15.914300 -19.451700 -22.896400
N -15.903500 -18.311700 -20.718500
C -15.894400 -18.287300 -22.052500
H -15.893500 -14.938200 -24.199100
C -15.884000 -16.971500 -28.396000
O -15.877900 -21.856500 -22.807100
C -15.861500 -20.772700 -22.227000
N -15.848800 -17.077100 -22.673700
C -15.834200 -19.529200 -20.106900
O -15.810400 -19.620400 -18.865100
N -15.763300 -20.695500 -20.859400
C -15.701700 -13.261000 -25.943600
C -15.693400 -15.864500 -21.834600
H -15.592700 -21.529700 -20.346500
H -15.523700 -12.511700 -26.549100
H -15.517900 -17.841200 -28.661800
H -15.287000 -16.258100 -28.703400
H -15.233900 -16.100200 -21.002000
H -15.166900 -15.196300 -22.321000
H -14.908400 -13.432600 -25.393800
