36
Fragment
H -5.706900 -32.801500 -29.161500
H -5.381300 -31.474900 -29.995100
H -5.204800 -36.037500 -27.932000
C -4.998300 -32.181500 -29.435100
H -4.873900 -37.494400 -27.358300
H -4.734400 -30.100400 -25.845000
H -4.529000 -29.566700 -28.148200
C -4.491200 -36.628500 -27.613700
H -4.429400 -34.150500 -28.172600
N -4.385800 -31.586900 -28.248000
H -4.317500 -32.669400 -29.944600
C -4.106100 -33.786300 -27.356200
C -4.031700 -32.372300 -27.206700
C -3.862500 -30.219100 -28.448700
C -3.853400 -30.389800 -25.527300
H -3.833700 -36.761200 -28.328800
N -3.832400 -36.019900 -26.449400
H -3.815200 -30.306700 -24.551300
C -3.719300 -34.642000 -26.345200
H -3.674000 -30.078700 -29.400200
C -3.621000 -31.840000 -25.923000
N -3.451500 -38.149000 -25.648500
C -3.333200 -36.839400 -25.466700
H -3.160100 -29.825200 -25.929800
C -3.154200 -32.703700 -24.983900
C -3.143300 -34.117700 -25.150600
H -3.037600 -30.105600 -27.932200
O -2.999800 -40.199300 -24.792700
C -2.952300 -38.964400 -24.688600
H -2.816900 -32.343600 -24.171200
C -2.724600 -36.214700 -24.336400
N -2.646900 -34.895100 -24.177400
N -2.362900 -38.426100 -23.548800
C -2.179400 -37.094500 -23.308400
H -2.061900 -39.046800 -22.946800
O -1.585300 -36.722300 -22.286000
36
Fragment
H -1.911200 -32.801500 -29.161500
H -1.585600 -31.474900 -29.995100
H -1.409100 -36.037500 -27.932000
C -1.202600 -32.181500 -29.435100
H -1.078200 -37.494400 -27.358300
H -0.938700 -30.100400 -25.845000
H -0.733300 -29.566700 -28.148200
C -0.695500 -36.628500 -27.613700
H -0.633700 -34.150500 -28.172600
N -0.590100 -31.586900 -28.248000
H -0.521800 -32.669400 -29.944600
C -0.310400 -33.786300 -27.356200
C -0.236000 -32.372300 -27.206700
C -0.066800 -30.219100 -28.448700
C -0.057700 -30.389800 -25.527300
H -0.038000 -36.761200 -28.328800
N -0.036700 -36.019900 -26.449400
H -0.019500 -30.306700 -24.551300
C 0.076400 -34.642000 -26.345200
H 0.121700 -30.078700 -29.400200
C 0.174700 -31.840000 -25.923000
N 0.344200 -38.149000 -25.648500
C 0.462500 -36.839400 -25.466700
H 0.635600 -29.825200 -25.929800
C 0.641500 -32.703700 -24.983900
C 0.652400 -34.117700 -25.150600
H 0.758100 -30.105600 -27.932200
O 0.795900 -40.199300 -24.792700
C 0.843400 -38.964400 -24.688600
H 0.978800 -32.343600 -24.171200
C 1.071100 -36.214700 -24.336400
N 1.148800 -34.895100 -24.177400
N 1.432800 -38.426100 -23.548800
C 1.616300 -37.094500 -23.308400
H 1.733800 -39.046800 -22.946800
O 2.210400 -36.722300 -22.286000
72
Fragment
H -5.706900 -32.801500 -29.161500
H -5.381300 -31.474900 -29.995100
H -5.204800 -36.037500 -27.932000
C -4.998300 -32.181500 -29.435100
H -4.873900 -37.494400 -27.358300
H -4.734400 -30.100400 -25.845000
H -4.529000 -29.566700 -28.148200
C -4.491200 -36.628500 -27.613700
H -4.429400 -34.150500 -28.172600
N -4.385800 -31.586900 -28.248000
H -4.317500 -32.669400 -29.944600
C -4.106100 -33.786300 -27.356200
C -4.031700 -32.372300 -27.206700
C -3.862500 -30.219100 -28.448700
C -3.853400 -30.389800 -25.527300
H -3.833700 -36.761200 -28.328800
N -3.832400 -36.019900 -26.449400
H -3.815200 -30.306700 -24.551300
C -3.719300 -34.642000 -26.345200
H -3.674000 -30.078700 -29.400200
C -3.621000 -31.840000 -25.923000
N -3.451500 -38.149000 -25.648500
C -3.333200 -36.839400 -25.466700
H -3.160100 -29.825200 -25.929800
C -3.154200 -32.703700 -24.983900
C -3.143300 -34.117700 -25.150600
H -3.037600 -30.105600 -27.932200
O -2.999800 -40.199300 -24.792700
C -2.952300 -38.964400 -24.688600
H -2.816900 -32.343600 -24.171200
C -2.724600 -36.214700 -24.336400
N -2.646900 -34.895100 -24.177400
N -2.362900 -38.426100 -23.548800
C -2.179400 -37.094500 -23.308400
H -2.061900 -39.046800 -22.946800
O -1.585300 -36.722300 -22.286000
H -1.911200 -32.801500 -29.161500
H -1.585600 -31.474900 -29.995100
H -1.409100 -36.037500 -27.932000
C -1.202600 -32.181500 -29.435100
H -1.078200 -37.494400 -27.358300
H -0.938700 -30.100400 -25.845000
H -0.733300 -29.566700 -28.148200
C -0.695500 -36.628500 -27.613700
H -0.633700 -34.150500 -28.172600
N -0.590100 -31.586900 -28.248000
H -0.521800 -32.669400 -29.944600
C -0.310400 -33.786300 -27.356200
C -0.236000 -32.372300 -27.206700
C -0.066800 -30.219100 -28.448700
C -0.057700 -30.389800 -25.527300
H -0.038000 -36.761200 -28.328800
N -0.036700 -36.019900 -26.449400
H -0.019500 -30.306700 -24.551300
C 0.076400 -34.642000 -26.345200
H 0.121700 -30.078700 -29.400200
C 0.174700 -31.840000 -25.923000
N 0.344200 -38.149000 -25.648500
C 0.462500 -36.839400 -25.466700
H 0.635600 -29.825200 -25.929800
C 0.641500 -32.703700 -24.983900
C 0.652400 -34.117700 -25.150600
H 0.758100 -30.105600 -27.932200
O 0.795900 -40.199300 -24.792700
C 0.843400 -38.964400 -24.688600
H 0.978800 -32.343600 -24.171200
C 1.071100 -36.214700 -24.336400
N 1.148800 -34.895100 -24.177400
N 1.432800 -38.426100 -23.548800
C 1.616300 -37.094500 -23.308400
H 1.733800 -39.046800 -22.946800
O 2.210400 -36.722300 -22.286000
