36
Fragment
O -24.600100 -13.697600 -20.584000
H -24.441300 -13.994000 -23.032200
C -23.984500 -14.570800 -21.180200
N -23.956900 -14.633100 -22.549300
O -23.356900 -15.490400 -24.535600
C -23.299000 -15.587200 -23.296900
C -23.238100 -15.654500 -20.524300
N -23.205000 -15.684100 -19.205700
H -22.919200 -16.026400 -16.769700
N -22.626700 -16.591400 -22.694900
C -22.595200 -16.607600 -21.371000
C -22.532400 -16.692100 -18.620100
C -22.471300 -16.749800 -17.210300
H -22.392900 -18.085700 -14.504000
H -22.020000 -20.070500 -15.223500
N -21.886600 -17.605800 -20.749600
C -21.845800 -17.686000 -19.364600
C -21.837400 -17.738600 -16.527700
H -21.780600 -16.682800 -14.824200
C -21.690100 -17.605800 -15.034100
H -21.540800 -19.469200 -21.423000
H -21.294900 -18.333100 -22.474800
H -21.262800 -21.431500 -15.689700
C -21.220800 -18.799200 -17.296200
C -21.191800 -18.715500 -18.699300
C -21.190400 -20.488100 -15.474000
C -21.171500 -18.595100 -21.557000
H -20.811300 -17.908400 -14.731700
H -20.759100 -19.413900 -19.174700
N -20.627300 -19.857400 -16.669200
H -20.608400 -20.357900 -14.640600
H -20.220000 -18.595400 -21.281000
H -20.212000 -21.404500 -17.912600
C -19.729600 -20.729700 -17.413600
H -19.226500 -21.238500 -16.785700
H -19.096800 -20.213500 -18.022400
36
Fragment
H -25.933700 -19.572000 -22.173300
H -25.804100 -18.546900 -23.410000
C -25.301000 -19.055700 -22.782100
H -24.818600 -18.381000 -22.283200
H -24.810600 -21.190100 -18.914800
H -24.422200 -19.427600 -25.555100
N -24.403300 -19.928100 -23.526600
H -24.271400 -20.371500 -21.021000
H -24.219300 -21.877100 -25.464000
C -23.859100 -21.190400 -18.638800
C -23.840100 -19.297400 -24.721700
C -23.838800 -21.069900 -21.496400
C -23.809800 -20.986200 -22.899500
H -23.767700 -18.354000 -24.506000
H -23.735600 -21.452400 -17.721000
H -23.489800 -20.316300 -18.772800
C -23.340400 -22.179700 -25.161600
H -23.250000 -23.102600 -25.371600
C -23.193100 -22.046900 -23.668100
C -23.184700 -22.099500 -20.831200
N -23.144000 -22.179700 -19.446200
H -23.010500 -19.714900 -24.972300
H -22.637700 -21.699800 -25.691800
C -22.559200 -23.035700 -22.985400
C -22.498200 -23.093400 -21.575600
C -22.435400 -23.177900 -18.824700
N -22.403900 -23.194000 -17.500800
H -22.111400 -23.759100 -23.426100
N -21.825600 -24.101400 -20.990100
C -21.792500 -24.131000 -19.671400
C -21.731600 -24.198300 -16.898800
O -21.673600 -24.295100 -15.660100
N -21.073600 -25.152400 -17.646500
C -21.046000 -25.214600 -19.015500
H -20.589300 -25.791500 -17.163600
O -20.430500 -26.087900 -19.611800
72
Fragment
O -24.600100 -13.697600 -20.584000
H -24.441300 -13.994000 -23.032200
C -23.984500 -14.570800 -21.180200
N -23.956900 -14.633100 -22.549300
O -23.356900 -15.490400 -24.535600
C -23.299000 -15.587200 -23.296900
C -23.238100 -15.654500 -20.524300
N -23.205000 -15.684100 -19.205700
H -22.919200 -16.026400 -16.769700
N -22.626700 -16.591400 -22.694900
C -22.595200 -16.607600 -21.371000
C -22.532400 -16.692100 -18.620100
C -22.471300 -16.749800 -17.210300
H -22.392900 -18.085700 -14.504000
H -22.020000 -20.070500 -15.223500
N -21.886600 -17.605800 -20.749600
C -21.845800 -17.686000 -19.364600
C -21.837400 -17.738600 -16.527700
H -21.780600 -16.682800 -14.824200
C -21.690100 -17.605800 -15.034100
H -21.540800 -19.469200 -21.423000
H -21.294900 -18.333100 -22.474800
H -21.262800 -21.431500 -15.689700
C -21.220800 -18.799200 -17.296200
C -21.191800 -18.715500 -18.699300
C -21.190400 -20.488100 -15.474000
C -21.171500 -18.595100 -21.557000
H -20.811300 -17.908400 -14.731700
H -20.759100 -19.413900 -19.174700
N -20.627300 -19.857400 -16.669200
H -20.608400 -20.357900 -14.640600
H -20.220000 -18.595400 -21.281000
H -20.212000 -21.404500 -17.912600
C -19.729600 -20.729700 -17.413600
H -19.226500 -21.238500 -16.785700
H -19.096800 -20.213500 -18.022400
H -25.933700 -19.572000 -22.173300
H -25.804100 -18.546900 -23.410000
C -25.301000 -19.055700 -22.782100
H -24.818600 -18.381000 -22.283200
H -24.810600 -21.190100 -18.914800
H -24.422200 -19.427600 -25.555100
N -24.403300 -19.928100 -23.526600
H -24.271400 -20.371500 -21.021000
H -24.219300 -21.877100 -25.464000
C -23.859100 -21.190400 -18.638800
C -23.840100 -19.297400 -24.721700
C -23.838800 -21.069900 -21.496400
C -23.809800 -20.986200 -22.899500
H -23.767700 -18.354000 -24.506000
H -23.735600 -21.452400 -17.721000
H -23.489800 -20.316300 -18.772800
C -23.340400 -22.179700 -25.161600
H -23.250000 -23.102600 -25.371600
C -23.193100 -22.046900 -23.668100
C -23.184700 -22.099500 -20.831200
N -23.144000 -22.179700 -19.446200
H -23.010500 -19.714900 -24.972300
H -22.637700 -21.699800 -25.691800
C -22.559200 -23.035700 -22.985400
C -22.498200 -23.093400 -21.575600
C -22.435400 -23.177900 -18.824700
N -22.403900 -23.194000 -17.500800
H -22.111400 -23.759100 -23.426100
N -21.825600 -24.101400 -20.990100
C -21.792500 -24.131000 -19.671400
C -21.731600 -24.198300 -16.898800
O -21.673600 -24.295100 -15.660100
N -21.073600 -25.152400 -17.646500
C -21.046000 -25.214600 -19.015500
H -20.589300 -25.791500 -17.163600
O -20.430500 -26.087900 -19.611800
