3
Fragment
H -15.033600 -18.109100 -17.806200
H -15.001800 -17.553700 -16.794900
O -14.515900 -17.695100 -17.371600
3
Fragment
H -13.659200 -16.548400 -18.853600
O -13.283700 -16.054500 -19.402600
H -12.388000 -16.183600 -19.190700
6
Fragment
H -15.033600 -18.109100 -17.806200
H -15.001800 -17.553700 -16.794900
O -14.515900 -17.695100 -17.371600
H -13.659200 -16.548400 -18.853600
O -13.283700 -16.054500 -19.402600
H -12.388000 -16.183600 -19.190700
