36
Fragment
O -24.600100 -13.697600 -20.584000
H -24.441300 -13.994000 -23.032200
C -23.984500 -14.570800 -21.180200
N -23.956900 -14.633100 -22.549300
O -23.356900 -15.490400 -24.535600
C -23.299000 -15.587200 -23.296900
C -23.238100 -15.654500 -20.524300
N -23.205000 -15.684100 -19.205700
H -22.919200 -16.026400 -16.769700
N -22.626700 -16.591400 -22.694900
C -22.595200 -16.607600 -21.371000
C -22.532400 -16.692100 -18.620100
C -22.471300 -16.749800 -17.210300
H -22.392900 -18.085700 -14.504000
H -22.020000 -20.070500 -15.223500
N -21.886600 -17.605800 -20.749600
C -21.845800 -17.686000 -19.364600
C -21.837400 -17.738600 -16.527700
H -21.780600 -16.682800 -14.824200
C -21.690100 -17.605800 -15.034100
H -21.540800 -19.469200 -21.423000
H -21.294900 -18.333100 -22.474800
H -21.262800 -21.431500 -15.689700
C -21.220800 -18.799200 -17.296200
C -21.191800 -18.715500 -18.699300
C -21.190400 -20.488100 -15.474000
C -21.171500 -18.595100 -21.557000
H -20.811300 -17.908400 -14.731700
H -20.759100 -19.413900 -19.174700
N -20.627300 -19.857400 -16.669200
H -20.608400 -20.357900 -14.640600
H -20.220000 -18.595400 -21.281000
H -20.212000 -21.404500 -17.912600
C -19.729600 -20.729700 -17.413600
H -19.226500 -21.238500 -16.785700
H -19.096800 -20.213500 -18.022400
36
Fragment
H -22.762300 -11.923700 -22.173300
H -22.632600 -10.898700 -23.410000
C -22.129500 -11.407500 -22.782100
H -21.647200 -10.732800 -22.283200
H -21.639100 -13.541800 -18.914800
H -21.250700 -11.779300 -25.555100
N -21.231900 -12.279900 -23.526600
H -21.100000 -12.723300 -21.021000
H -21.047900 -14.228900 -25.464000
C -20.687600 -13.542200 -18.638800
C -20.668700 -11.649200 -24.721700
C -20.667300 -13.421700 -21.496400
C -20.638300 -13.338000 -22.899500
H -20.596300 -10.705800 -24.506000
H -20.564200 -13.804200 -17.721000
H -20.318400 -12.668000 -18.772800
C -20.169000 -14.531400 -25.161600
H -20.078600 -15.454400 -25.371600
C -20.021700 -14.398700 -23.668100
C -20.013300 -14.451200 -20.831200
N -19.972500 -14.531400 -19.446200
H -19.839100 -12.066700 -24.972300
H -19.466200 -14.051500 -25.691800
C -19.387800 -15.387500 -22.985400
C -19.326800 -15.445200 -21.575600
C -19.263900 -15.529700 -18.824700
N -19.232500 -15.545800 -17.500800
H -18.940000 -16.110800 -23.426100
N -18.654100 -16.453200 -20.990100
C -18.621000 -16.482800 -19.671400
C -18.560100 -16.550000 -16.898800
O -18.502200 -16.646900 -15.660100
N -17.902200 -17.504200 -17.646500
C -17.874600 -17.566400 -19.015500
H -17.417900 -18.143300 -17.163600
O -17.259100 -18.439700 -19.611800
72
Fragment
O -24.600100 -13.697600 -20.584000
H -24.441300 -13.994000 -23.032200
C -23.984500 -14.570800 -21.180200
N -23.956900 -14.633100 -22.549300
O -23.356900 -15.490400 -24.535600
C -23.299000 -15.587200 -23.296900
C -23.238100 -15.654500 -20.524300
N -23.205000 -15.684100 -19.205700
H -22.919200 -16.026400 -16.769700
N -22.626700 -16.591400 -22.694900
C -22.595200 -16.607600 -21.371000
C -22.532400 -16.692100 -18.620100
C -22.471300 -16.749800 -17.210300
H -22.392900 -18.085700 -14.504000
H -22.020000 -20.070500 -15.223500
N -21.886600 -17.605800 -20.749600
C -21.845800 -17.686000 -19.364600
C -21.837400 -17.738600 -16.527700
H -21.780600 -16.682800 -14.824200
C -21.690100 -17.605800 -15.034100
H -21.540800 -19.469200 -21.423000
H -21.294900 -18.333100 -22.474800
H -21.262800 -21.431500 -15.689700
C -21.220800 -18.799200 -17.296200
C -21.191800 -18.715500 -18.699300
C -21.190400 -20.488100 -15.474000
C -21.171500 -18.595100 -21.557000
H -20.811300 -17.908400 -14.731700
H -20.759100 -19.413900 -19.174700
N -20.627300 -19.857400 -16.669200
H -20.608400 -20.357900 -14.640600
H -20.220000 -18.595400 -21.281000
H -20.212000 -21.404500 -17.912600
C -19.729600 -20.729700 -17.413600
H -19.226500 -21.238500 -16.785700
H -19.096800 -20.213500 -18.022400
H -22.762300 -11.923700 -22.173300
H -22.632600 -10.898700 -23.410000
C -22.129500 -11.407500 -22.782100
H -21.647200 -10.732800 -22.283200
H -21.639100 -13.541800 -18.914800
H -21.250700 -11.779300 -25.555100
N -21.231900 -12.279900 -23.526600
H -21.100000 -12.723300 -21.021000
H -21.047900 -14.228900 -25.464000
C -20.687600 -13.542200 -18.638800
C -20.668700 -11.649200 -24.721700
C -20.667300 -13.421700 -21.496400
C -20.638300 -13.338000 -22.899500
H -20.596300 -10.705800 -24.506000
H -20.564200 -13.804200 -17.721000
H -20.318400 -12.668000 -18.772800
C -20.169000 -14.531400 -25.161600
H -20.078600 -15.454400 -25.371600
C -20.021700 -14.398700 -23.668100
C -20.013300 -14.451200 -20.831200
N -19.972500 -14.531400 -19.446200
H -19.839100 -12.066700 -24.972300
H -19.466200 -14.051500 -25.691800
C -19.387800 -15.387500 -22.985400
C -19.326800 -15.445200 -21.575600
C -19.263900 -15.529700 -18.824700
N -19.232500 -15.545800 -17.500800
H -18.940000 -16.110800 -23.426100
N -18.654100 -16.453200 -20.990100
C -18.621000 -16.482800 -19.671400
C -18.560100 -16.550000 -16.898800
O -18.502200 -16.646900 -15.660100
N -17.902200 -17.504200 -17.646500
C -17.874600 -17.566400 -19.015500
H -17.417900 -18.143300 -17.163600
O -17.259100 -18.439700 -19.611800
