14
Fragment
H -21.784500 -7.681600 -23.402100
H -21.629700 -6.265300 -25.914700
C -21.110600 -7.026300 -23.189500
N -21.048900 -5.868200 -25.442900
H -20.728500 -7.553300 -21.297800
C -20.694300 -6.103200 -24.152100
C -20.481000 -6.950300 -21.974100
N -20.357300 -4.851600 -25.953100
C -19.711800 -5.152900 -23.892500
N -19.541400 -4.409300 -25.034800
C -19.489700 -5.993900 -21.698800
H -19.093600 -5.983100 -20.830000
C -19.088100 -5.082000 -22.641000
H -18.492100 -4.412900 -22.439400
17
Fragment
O -19.011000 -7.754900 -27.897800
O -18.940400 -5.826600 -30.342400
H -18.721900 -8.220300 -25.584100
C -18.201400 -7.253600 -27.154000
O -18.066900 -7.538400 -25.882700
N -17.955100 -6.429000 -29.996100
O -17.571800 -7.448100 -30.510900
C -17.223700 -6.212000 -27.609700
C -17.111600 -5.827100 -28.942000
H -16.406000 -5.824000 -25.762900
C -16.364800 -5.586400 -26.701700
C -16.211200 -4.879900 -29.386700
H -16.111300 -4.649000 -30.336400
C -15.456700 -4.624300 -27.109200
C -15.391900 -4.281600 -28.448300
H -14.854300 -4.192300 -26.472800
Cl -14.267600 -3.082700 -28.983500
31
Fragment
H -21.784500 -7.681600 -23.402100
H -21.629700 -6.265300 -25.914700
C -21.110600 -7.026300 -23.189500
N -21.048900 -5.868200 -25.442900
H -20.728500 -7.553300 -21.297800
C -20.694300 -6.103200 -24.152100
C -20.481000 -6.950300 -21.974100
N -20.357300 -4.851600 -25.953100
C -19.711800 -5.152900 -23.892500
N -19.541400 -4.409300 -25.034800
C -19.489700 -5.993900 -21.698800
H -19.093600 -5.983100 -20.830000
C -19.088100 -5.082000 -22.641000
H -18.492100 -4.412900 -22.439400
O -19.011000 -7.754900 -27.897800
O -18.940400 -5.826600 -30.342400
H -18.721900 -8.220300 -25.584100
C -18.201400 -7.253600 -27.154000
O -18.066900 -7.538400 -25.882700
N -17.955100 -6.429000 -29.996100
O -17.571800 -7.448100 -30.510900
C -17.223700 -6.212000 -27.609700
C -17.111600 -5.827100 -28.942000
H -16.406000 -5.824000 -25.762900
C -16.364800 -5.586400 -26.701700
C -16.211200 -4.879900 -29.386700
H -16.111300 -4.649000 -30.336400
C -15.456700 -4.624300 -27.109200
C -15.391900 -4.281600 -28.448300
H -14.854300 -4.192300 -26.472800
Cl -14.267600 -3.082700 -28.983500
