14
Fragment
H -21.784500 -7.681600 -23.402100
H -21.629700 -6.265300 -25.914700
C -21.110600 -7.026300 -23.189500
N -21.048900 -5.868200 -25.442900
H -20.728500 -7.553300 -21.297800
C -20.694300 -6.103200 -24.152100
C -20.481000 -6.950300 -21.974100
N -20.357300 -4.851600 -25.953100
C -19.711800 -5.152900 -23.892500
N -19.541400 -4.409300 -25.034800
C -19.489700 -5.993900 -21.698800
H -19.093600 -5.983100 -20.830000
C -19.088100 -5.082000 -22.641000
H -18.492100 -4.412900 -22.439400
14
Fragment
H -21.784500 -12.812900 -23.402100
H -21.629700 -11.396600 -25.914700
C -21.110600 -12.157600 -23.189500
N -21.048900 -10.999500 -25.442900
H -20.728500 -12.684600 -21.297800
C -20.694300 -11.234500 -24.152100
C -20.481000 -12.081600 -21.974100
N -20.357300 -9.982900 -25.953100
C -19.711800 -10.284200 -23.892500
N -19.541400 -9.540600 -25.034800
C -19.489700 -11.125200 -21.698800
H -19.093600 -11.114400 -20.830000
C -19.088100 -10.213300 -22.641000
H -18.492100 -9.544200 -22.439400
28
Fragment
H -21.784500 -7.681600 -23.402100
H -21.629700 -6.265300 -25.914700
C -21.110600 -7.026300 -23.189500
N -21.048900 -5.868200 -25.442900
H -20.728500 -7.553300 -21.297800
C -20.694300 -6.103200 -24.152100
C -20.481000 -6.950300 -21.974100
N -20.357300 -4.851600 -25.953100
C -19.711800 -5.152900 -23.892500
N -19.541400 -4.409300 -25.034800
C -19.489700 -5.993900 -21.698800
H -19.093600 -5.983100 -20.830000
C -19.088100 -5.082000 -22.641000
H -18.492100 -4.412900 -22.439400
H -21.784500 -12.812900 -23.402100
H -21.629700 -11.396600 -25.914700
C -21.110600 -12.157600 -23.189500
N -21.048900 -10.999500 -25.442900
H -20.728500 -12.684600 -21.297800
C -20.694300 -11.234500 -24.152100
C -20.481000 -12.081600 -21.974100
N -20.357300 -9.982900 -25.953100
C -19.711800 -10.284200 -23.892500
N -19.541400 -9.540600 -25.034800
C -19.489700 -11.125200 -21.698800
H -19.093600 -11.114400 -20.830000
C -19.088100 -10.213300 -22.641000
H -18.492100 -9.544200 -22.439400
