14
Fragment
H -21.784500 -7.681600 -23.402100
H -21.629700 -6.265300 -25.914700
C -21.110600 -7.026300 -23.189500
N -21.048900 -5.868200 -25.442900
H -20.728500 -7.553300 -21.297800
C -20.694300 -6.103200 -24.152100
C -20.481000 -6.950300 -21.974100
N -20.357300 -4.851600 -25.953100
C -19.711800 -5.152900 -23.892500
N -19.541400 -4.409300 -25.034800
C -19.489700 -5.993900 -21.698800
H -19.093600 -5.983100 -20.830000
C -19.088100 -5.082000 -22.641000
H -18.492100 -4.412900 -22.439400
17
Fragment
Cl -28.040500 -7.179900 -25.204800
H -27.453900 -6.070300 -27.715500
C -26.916200 -5.981000 -25.740000
C -26.851400 -5.638300 -27.079200
H -26.196800 -5.613600 -23.851900
C -26.096900 -5.382700 -24.801600
C -25.943300 -4.676200 -27.486700
H -25.902100 -4.438600 -28.425400
C -25.196500 -4.435500 -25.246300
C -25.084400 -4.050600 -26.578700
O -24.736300 -2.814500 -23.677400
N -24.353000 -3.833600 -24.192200
O -24.241200 -2.724200 -28.305600
C -24.106700 -3.009000 -27.034400
H -23.586200 -2.042300 -28.604200
O -23.367700 -4.436000 -23.845900
O -23.297100 -2.507700 -26.290600
31
Fragment
H -21.784500 -7.681600 -23.402100
H -21.629700 -6.265300 -25.914700
C -21.110600 -7.026300 -23.189500
N -21.048900 -5.868200 -25.442900
H -20.728500 -7.553300 -21.297800
C -20.694300 -6.103200 -24.152100
C -20.481000 -6.950300 -21.974100
N -20.357300 -4.851600 -25.953100
C -19.711800 -5.152900 -23.892500
N -19.541400 -4.409300 -25.034800
C -19.489700 -5.993900 -21.698800
H -19.093600 -5.983100 -20.830000
C -19.088100 -5.082000 -22.641000
H -18.492100 -4.412900 -22.439400
Cl -28.040500 -7.179900 -25.204800
H -27.453900 -6.070300 -27.715500
C -26.916200 -5.981000 -25.740000
C -26.851400 -5.638300 -27.079200
H -26.196800 -5.613600 -23.851900
C -26.096900 -5.382700 -24.801600
C -25.943300 -4.676200 -27.486700
H -25.902100 -4.438600 -28.425400
C -25.196500 -4.435500 -25.246300
C -25.084400 -4.050600 -26.578700
O -24.736300 -2.814500 -23.677400
N -24.353000 -3.833600 -24.192200
O -24.241200 -2.724200 -28.305600
C -24.106700 -3.009000 -27.034400
H -23.586200 -2.042300 -28.604200
O -23.367700 -4.436000 -23.845900
O -23.297100 -2.507700 -26.290600
