20
Fragment
H -14.568200 -14.356200 -13.698600
H -14.285400 -12.088100 -14.157400
H -14.254200 -17.035900 -17.529200
C -14.200800 -14.089400 -14.533100
C -14.045300 -12.745000 -14.801600
H -13.962500 -15.972100 -15.240700
C -13.835600 -15.053900 -15.447900
C -13.532900 -12.377600 -16.027800
H -13.439600 -11.455400 -16.234700
C -13.281400 -17.014200 -17.415300
C -13.276800 -14.689100 -16.683800
H -13.245700 -15.004800 -19.404400
C -13.149800 -13.322100 -16.964600
H -13.049700 -17.347900 -16.523600
H -12.859700 -17.580200 -18.095500
N -12.808000 -15.653100 -17.559200
H -12.799900 -13.042200 -17.802700
C -12.441600 -15.265100 -18.909000
H -12.010500 -16.021100 -19.360300
H -11.819800 -14.509000 -18.874400
16
Fragment
N -13.018900 -21.266400 -12.095000
C -12.586100 -21.405900 -13.140800
H -12.281800 -23.623100 -14.476200
C -12.011800 -21.599600 -14.439400
C -11.943200 -22.883300 -14.967600
N -11.653400 -18.146600 -14.159100
C -11.592600 -19.191700 -14.605100
C -11.514800 -20.514800 -15.168200
C -11.376900 -23.073700 -16.214100
C -11.290700 -24.399400 -16.760500
N -11.204100 -25.452800 -17.188300
C -10.960800 -20.699900 -16.421000
C -10.891000 -21.981000 -16.945400
H -10.632400 -19.958800 -16.916300
C -10.330200 -22.188800 -18.249700
N -9.910800 -22.359200 -19.296200
36
Fragment
H -14.568200 -14.356200 -13.698600
H -14.285400 -12.088100 -14.157400
H -14.254200 -17.035900 -17.529200
C -14.200800 -14.089400 -14.533100
C -14.045300 -12.745000 -14.801600
H -13.962500 -15.972100 -15.240700
C -13.835600 -15.053900 -15.447900
C -13.532900 -12.377600 -16.027800
H -13.439600 -11.455400 -16.234700
C -13.281400 -17.014200 -17.415300
C -13.276800 -14.689100 -16.683800
H -13.245700 -15.004800 -19.404400
C -13.149800 -13.322100 -16.964600
H -13.049700 -17.347900 -16.523600
H -12.859700 -17.580200 -18.095500
N -12.808000 -15.653100 -17.559200
H -12.799900 -13.042200 -17.802700
C -12.441600 -15.265100 -18.909000
H -12.010500 -16.021100 -19.360300
H -11.819800 -14.509000 -18.874400
N -13.018900 -21.266400 -12.095000
C -12.586100 -21.405900 -13.140800
H -12.281800 -23.623100 -14.476200
C -12.011800 -21.599600 -14.439400
C -11.943200 -22.883300 -14.967600
N -11.653400 -18.146600 -14.159100
C -11.592600 -19.191700 -14.605100
C -11.514800 -20.514800 -15.168200
C -11.376900 -23.073700 -16.214100
C -11.290700 -24.399400 -16.760500
N -11.204100 -25.452800 -17.188300
C -10.960800 -20.699900 -16.421000
C -10.891000 -21.981000 -16.945400
H -10.632400 -19.958800 -16.916300
C -10.330200 -22.188800 -18.249700
N -9.910800 -22.359200 -19.296200
