20
Fragment
H -14.568200 -14.356200 -13.698600
H -14.285400 -12.088100 -14.157400
H -14.254200 -17.035900 -17.529200
C -14.200800 -14.089400 -14.533100
C -14.045300 -12.745000 -14.801600
H -13.962500 -15.972100 -15.240700
C -13.835600 -15.053900 -15.447900
C -13.532900 -12.377600 -16.027800
H -13.439600 -11.455400 -16.234700
C -13.281400 -17.014200 -17.415300
C -13.276800 -14.689100 -16.683800
H -13.245700 -15.004800 -19.404400
C -13.149800 -13.322100 -16.964600
H -13.049700 -17.347900 -16.523600
H -12.859700 -17.580200 -18.095500
N -12.808000 -15.653100 -17.559200
H -12.799900 -13.042200 -17.802700
C -12.441600 -15.265100 -18.909000
H -12.010500 -16.021100 -19.360300
H -11.819800 -14.509000 -18.874400
20
Fragment
H -16.266700 -19.722000 -20.001800
H -16.076000 -18.210000 -19.515800
C -15.645000 -18.965900 -19.967200
H -15.286700 -21.188900 -21.073400
N -15.278600 -18.577900 -21.316900
H -15.226900 -16.650900 -20.780600
H -15.036800 -16.883100 -22.352500
C -14.936800 -20.908900 -21.911500
H -14.840900 -19.226200 -19.471700
C -14.809800 -19.541900 -22.192300
C -14.805200 -17.216800 -21.460800
H -14.646900 -22.775700 -22.641400
C -14.553700 -21.853500 -22.848300
C -14.251000 -19.177200 -23.428200
H -14.124000 -18.259000 -23.635400
C -14.041300 -21.486100 -24.074500
C -13.885800 -20.141700 -24.343100
H -13.832300 -17.195200 -21.346900
H -13.801100 -22.142900 -24.718700
H -13.518400 -19.874900 -25.177500
40
Fragment
H -14.568200 -14.356200 -13.698600
H -14.285400 -12.088100 -14.157400
H -14.254200 -17.035900 -17.529200
C -14.200800 -14.089400 -14.533100
C -14.045300 -12.745000 -14.801600
H -13.962500 -15.972100 -15.240700
C -13.835600 -15.053900 -15.447900
C -13.532900 -12.377600 -16.027800
H -13.439600 -11.455400 -16.234700
C -13.281400 -17.014200 -17.415300
C -13.276800 -14.689100 -16.683800
H -13.245700 -15.004800 -19.404400
C -13.149800 -13.322100 -16.964600
H -13.049700 -17.347900 -16.523600
H -12.859700 -17.580200 -18.095500
N -12.808000 -15.653100 -17.559200
H -12.799900 -13.042200 -17.802700
C -12.441600 -15.265100 -18.909000
H -12.010500 -16.021100 -19.360300
H -11.819800 -14.509000 -18.874400
H -16.266700 -19.722000 -20.001800
H -16.076000 -18.210000 -19.515800
C -15.645000 -18.965900 -19.967200
H -15.286700 -21.188900 -21.073400
N -15.278600 -18.577900 -21.316900
H -15.226900 -16.650900 -20.780600
H -15.036800 -16.883100 -22.352500
C -14.936800 -20.908900 -21.911500
H -14.840900 -19.226200 -19.471700
C -14.809800 -19.541900 -22.192300
C -14.805200 -17.216800 -21.460800
H -14.646900 -22.775700 -22.641400
C -14.553700 -21.853500 -22.848300
C -14.251000 -19.177200 -23.428200
H -14.124000 -18.259000 -23.635400
C -14.041300 -21.486100 -24.074500
C -13.885800 -20.141700 -24.343100
H -13.832300 -17.195200 -21.346900
H -13.801100 -22.142900 -24.718700
H -13.518400 -19.874900 -25.177500
