20
Fragment
H -14.568200 -14.356200 -13.698600
H -14.285400 -12.088100 -14.157400
H -14.254200 -17.035900 -17.529200
C -14.200800 -14.089400 -14.533100
C -14.045300 -12.745000 -14.801600
H -13.962500 -15.972100 -15.240700
C -13.835600 -15.053900 -15.447900
C -13.532900 -12.377600 -16.027800
H -13.439600 -11.455400 -16.234700
C -13.281400 -17.014200 -17.415300
C -13.276800 -14.689100 -16.683800
H -13.245700 -15.004800 -19.404400
C -13.149800 -13.322100 -16.964600
H -13.049700 -17.347900 -16.523600
H -12.859700 -17.580200 -18.095500
N -12.808000 -15.653100 -17.559200
H -12.799900 -13.042200 -17.802700
C -12.441600 -15.265100 -18.909000
H -12.010500 -16.021100 -19.360300
H -11.819800 -14.509000 -18.874400
20
Fragment
H -14.921800 -11.854200 -20.001800
H -14.731200 -10.342100 -19.515800
C -14.300100 -11.098000 -19.967200
H -13.941800 -13.321000 -21.073400
N -13.933700 -10.710000 -21.316900
H -13.882000 -8.783000 -20.780600
H -13.692000 -9.015200 -22.352500
C -13.591900 -13.041000 -21.911500
H -13.496000 -11.358400 -19.471700
C -13.464900 -11.674100 -22.192300
C -13.460300 -9.349000 -21.460800
H -13.302100 -14.907800 -22.641400
C -13.208800 -13.985600 -22.848300
C -12.906100 -11.309300 -23.428200
H -12.779100 -10.391100 -23.635400
C -12.696400 -13.618200 -24.074500
C -12.540900 -12.273800 -24.343100
H -12.487500 -9.327300 -21.346900
H -12.456300 -14.275000 -24.718700
H -12.173500 -12.007000 -25.177500
40
Fragment
H -14.568200 -14.356200 -13.698600
H -14.285400 -12.088100 -14.157400
H -14.254200 -17.035900 -17.529200
C -14.200800 -14.089400 -14.533100
C -14.045300 -12.745000 -14.801600
H -13.962500 -15.972100 -15.240700
C -13.835600 -15.053900 -15.447900
C -13.532900 -12.377600 -16.027800
H -13.439600 -11.455400 -16.234700
C -13.281400 -17.014200 -17.415300
C -13.276800 -14.689100 -16.683800
H -13.245700 -15.004800 -19.404400
C -13.149800 -13.322100 -16.964600
H -13.049700 -17.347900 -16.523600
H -12.859700 -17.580200 -18.095500
N -12.808000 -15.653100 -17.559200
H -12.799900 -13.042200 -17.802700
C -12.441600 -15.265100 -18.909000
H -12.010500 -16.021100 -19.360300
H -11.819800 -14.509000 -18.874400
H -14.921800 -11.854200 -20.001800
H -14.731200 -10.342100 -19.515800
C -14.300100 -11.098000 -19.967200
H -13.941800 -13.321000 -21.073400
N -13.933700 -10.710000 -21.316900
H -13.882000 -8.783000 -20.780600
H -13.692000 -9.015200 -22.352500
C -13.591900 -13.041000 -21.911500
H -13.496000 -11.358400 -19.471700
C -13.464900 -11.674100 -22.192300
C -13.460300 -9.349000 -21.460800
H -13.302100 -14.907800 -22.641400
C -13.208800 -13.985600 -22.848300
C -12.906100 -11.309300 -23.428200
H -12.779100 -10.391100 -23.635400
C -12.696400 -13.618200 -24.074500
C -12.540900 -12.273800 -24.343100
H -12.487500 -9.327300 -21.346900
H -12.456300 -14.275000 -24.718700
H -12.173500 -12.007000 -25.177500
