20
Fragment
H -14.568200 -14.356200 -13.698600
H -14.285400 -12.088100 -14.157400
H -14.254200 -17.035900 -17.529200
C -14.200800 -14.089400 -14.533100
C -14.045300 -12.745000 -14.801600
H -13.962500 -15.972100 -15.240700
C -13.835600 -15.053900 -15.447900
C -13.532900 -12.377600 -16.027800
H -13.439600 -11.455400 -16.234700
C -13.281400 -17.014200 -17.415300
C -13.276800 -14.689100 -16.683800
H -13.245700 -15.004800 -19.404400
C -13.149800 -13.322100 -16.964600
H -13.049700 -17.347900 -16.523600
H -12.859700 -17.580200 -18.095500
N -12.808000 -15.653100 -17.559200
H -12.799900 -13.042200 -17.802700
C -12.441600 -15.265100 -18.909000
H -12.010500 -16.021100 -19.360300
H -11.819800 -14.509000 -18.874400
16
Fragment
N -17.483500 -8.329400 -6.621200
C -17.064000 -8.499700 -7.667700
H -16.761900 -10.729700 -9.001100
C -16.503200 -8.707600 -8.972000
C -16.433400 -9.988700 -9.496400
N -16.190100 -5.235800 -8.729100
C -16.103500 -6.289200 -9.156900
C -16.017300 -7.614800 -9.703300
C -15.879400 -10.173800 -10.749200
C -15.801700 -11.496900 -11.312300
N -15.740900 -12.541900 -11.758300
C -15.451000 -7.805300 -10.949800
C -15.382400 -9.089000 -11.478000
H -15.112500 -7.065500 -11.441200
C -14.808200 -9.282700 -12.776600
N -14.375400 -9.422200 -13.822400
36
Fragment
H -14.568200 -14.356200 -13.698600
H -14.285400 -12.088100 -14.157400
H -14.254200 -17.035900 -17.529200
C -14.200800 -14.089400 -14.533100
C -14.045300 -12.745000 -14.801600
H -13.962500 -15.972100 -15.240700
C -13.835600 -15.053900 -15.447900
C -13.532900 -12.377600 -16.027800
H -13.439600 -11.455400 -16.234700
C -13.281400 -17.014200 -17.415300
C -13.276800 -14.689100 -16.683800
H -13.245700 -15.004800 -19.404400
C -13.149800 -13.322100 -16.964600
H -13.049700 -17.347900 -16.523600
H -12.859700 -17.580200 -18.095500
N -12.808000 -15.653100 -17.559200
H -12.799900 -13.042200 -17.802700
C -12.441600 -15.265100 -18.909000
H -12.010500 -16.021100 -19.360300
H -11.819800 -14.509000 -18.874400
N -17.483500 -8.329400 -6.621200
C -17.064000 -8.499700 -7.667700
H -16.761900 -10.729700 -9.001100
C -16.503200 -8.707600 -8.972000
C -16.433400 -9.988700 -9.496400
N -16.190100 -5.235800 -8.729100
C -16.103500 -6.289200 -9.156900
C -16.017300 -7.614800 -9.703300
C -15.879400 -10.173800 -10.749200
C -15.801700 -11.496900 -11.312300
N -15.740900 -12.541900 -11.758300
C -15.451000 -7.805300 -10.949800
C -15.382400 -9.089000 -11.478000
H -15.112500 -7.065500 -11.441200
C -14.808200 -9.282700 -12.776600
N -14.375400 -9.422200 -13.822400
