12
Fragment
H -19.398500 -17.809200 -12.670900
C -18.565100 -18.221100 -12.429500
H -18.523100 -18.321500 -11.475600
H -18.501500 -19.083800 -12.845400
H -17.926900 -15.920500 -11.680900
N -17.459800 -17.381000 -12.878900
C -17.303100 -16.146600 -12.454800
H -16.810200 -18.803800 -14.092300
H -16.662500 -17.363400 -14.690800
C -16.576900 -17.893300 -13.895200
O -16.425600 -15.376800 -12.837300
H -15.671600 -17.856900 -13.581400
20
Fragment
H -26.106300 -16.299800 -12.338200
O -26.079200 -18.864000 -10.652800
H -25.420100 -16.216900 -9.323700
N -25.255200 -16.301000 -12.241400
C -25.007600 -18.418200 -10.976500
N -24.672400 -16.218100 -9.868000
C -24.637100 -16.941500 -11.115800
O -24.611100 -15.365500 -14.254100
C -24.354900 -15.924300 -13.175400
H -23.883400 -19.896300 -11.302000
N -23.883400 -19.136500 -11.302000
C -23.411900 -15.924300 -9.428600
O -23.155700 -15.365500 -8.349900
C -23.129800 -16.941500 -11.488300
N -23.094400 -16.218100 -12.736000
C -22.759300 -18.418200 -11.627500
N -22.511700 -16.301000 -10.362600
H -22.346800 -16.216900 -13.280300
O -21.687600 -18.864000 -11.951200
H -21.660500 -16.299800 -10.265900
32
Fragment
H -19.398500 -17.809200 -12.670900
C -18.565100 -18.221100 -12.429500
H -18.523100 -18.321500 -11.475600
H -18.501500 -19.083800 -12.845400
H -17.926900 -15.920500 -11.680900
N -17.459800 -17.381000 -12.878900
C -17.303100 -16.146600 -12.454800
H -16.810200 -18.803800 -14.092300
H -16.662500 -17.363400 -14.690800
C -16.576900 -17.893300 -13.895200
O -16.425600 -15.376800 -12.837300
H -15.671600 -17.856900 -13.581400
H -26.106300 -16.299800 -12.338200
O -26.079200 -18.864000 -10.652800
H -25.420100 -16.216900 -9.323700
N -25.255200 -16.301000 -12.241400
C -25.007600 -18.418200 -10.976500
N -24.672400 -16.218100 -9.868000
C -24.637100 -16.941500 -11.115800
O -24.611100 -15.365500 -14.254100
C -24.354900 -15.924300 -13.175400
H -23.883400 -19.896300 -11.302000
N -23.883400 -19.136500 -11.302000
C -23.411900 -15.924300 -9.428600
O -23.155700 -15.365500 -8.349900
C -23.129800 -16.941500 -11.488300
N -23.094400 -16.218100 -12.736000
C -22.759300 -18.418200 -11.627500
N -22.511700 -16.301000 -10.362600
H -22.346800 -16.216900 -13.280300
O -21.687600 -18.864000 -11.951200
H -21.660500 -16.299800 -10.265900
