12
Fragment
H -19.398500 -17.809200 -12.670900
C -18.565100 -18.221100 -12.429500
H -18.523100 -18.321500 -11.475600
H -18.501500 -19.083800 -12.845400
H -17.926900 -15.920500 -11.680900
N -17.459800 -17.381000 -12.878900
C -17.303100 -16.146600 -12.454800
H -16.810200 -18.803800 -14.092300
H -16.662500 -17.363400 -14.690800
C -16.576900 -17.893300 -13.895200
O -16.425600 -15.376800 -12.837300
H -15.671600 -17.856900 -13.581400
20
Fragment
H -23.216800 -21.373000 -16.859000
O -23.189700 -18.808800 -15.173600
H -22.530600 -21.455900 -13.844500
N -22.365700 -21.371800 -16.762300
C -22.118100 -19.254600 -15.497300
N -21.782900 -21.454700 -14.388800
C -21.747500 -20.731300 -15.636600
O -21.721600 -22.307300 -18.774900
C -21.465400 -21.748500 -17.696300
N -20.993900 -18.536300 -15.822800
H -20.993900 -17.776500 -15.822800
C -20.522400 -21.748500 -13.949400
O -20.266200 -22.307300 -12.870700
C -20.240300 -20.731300 -16.009100
N -20.204900 -21.454700 -17.256800
C -19.869800 -19.254600 -16.148300
N -19.622200 -21.371800 -14.883400
H -19.457300 -21.455900 -17.801100
O -18.798100 -18.808800 -16.472000
H -18.771000 -21.373000 -14.786700
32
Fragment
H -19.398500 -17.809200 -12.670900
C -18.565100 -18.221100 -12.429500
H -18.523100 -18.321500 -11.475600
H -18.501500 -19.083800 -12.845400
H -17.926900 -15.920500 -11.680900
N -17.459800 -17.381000 -12.878900
C -17.303100 -16.146600 -12.454800
H -16.810200 -18.803800 -14.092300
H -16.662500 -17.363400 -14.690800
C -16.576900 -17.893300 -13.895200
O -16.425600 -15.376800 -12.837300
H -15.671600 -17.856900 -13.581400
H -23.216800 -21.373000 -16.859000
O -23.189700 -18.808800 -15.173600
H -22.530600 -21.455900 -13.844500
N -22.365700 -21.371800 -16.762300
C -22.118100 -19.254600 -15.497300
N -21.782900 -21.454700 -14.388800
C -21.747500 -20.731300 -15.636600
O -21.721600 -22.307300 -18.774900
C -21.465400 -21.748500 -17.696300
N -20.993900 -18.536300 -15.822800
H -20.993900 -17.776500 -15.822800
C -20.522400 -21.748500 -13.949400
O -20.266200 -22.307300 -12.870700
C -20.240300 -20.731300 -16.009100
N -20.204900 -21.454700 -17.256800
C -19.869800 -19.254600 -16.148300
N -19.622200 -21.371800 -14.883400
H -19.457300 -21.455900 -17.801100
O -18.798100 -18.808800 -16.472000
H -18.771000 -21.373000 -14.786700
