12
Fragment
H -19.398500 -17.809200 -12.670900
C -18.565100 -18.221100 -12.429500
H -18.523100 -18.321500 -11.475600
H -18.501500 -19.083800 -12.845400
H -17.926900 -15.920500 -11.680900
N -17.459800 -17.381000 -12.878900
C -17.303100 -16.146600 -12.454800
H -16.810200 -18.803800 -14.092300
H -16.662500 -17.363400 -14.690800
C -16.576900 -17.893300 -13.895200
O -16.425600 -15.376800 -12.837300
H -15.671600 -17.856900 -13.581400
12
Fragment
H -16.541600 -17.856900 -9.022600
O -15.787600 -15.376800 -9.766800
C -15.636300 -17.893300 -8.708900
H -15.550700 -17.363400 -7.913200
H -15.403000 -18.803800 -8.511800
C -14.910100 -16.146600 -10.149200
N -14.753400 -17.381000 -9.725200
H -14.286400 -15.920500 -10.923200
H -13.711800 -19.083800 -9.758600
H -13.690100 -18.321500 -11.128400
C -13.648100 -18.221100 -10.174500
H -12.814800 -17.809200 -9.933100
24
Fragment
H -19.398500 -17.809200 -12.670900
C -18.565100 -18.221100 -12.429500
H -18.523100 -18.321500 -11.475600
H -18.501500 -19.083800 -12.845400
H -17.926900 -15.920500 -11.680900
N -17.459800 -17.381000 -12.878900
C -17.303100 -16.146600 -12.454800
H -16.810200 -18.803800 -14.092300
H -16.662500 -17.363400 -14.690800
C -16.576900 -17.893300 -13.895200
O -16.425600 -15.376800 -12.837300
H -15.671600 -17.856900 -13.581400
H -16.541600 -17.856900 -9.022600
O -15.787600 -15.376800 -9.766800
C -15.636300 -17.893300 -8.708900
H -15.550700 -17.363400 -7.913200
H -15.403000 -18.803800 -8.511800
C -14.910100 -16.146600 -10.149200
N -14.753400 -17.381000 -9.725200
H -14.286400 -15.920500 -10.923200
H -13.711800 -19.083800 -9.758600
H -13.690100 -18.321500 -11.128400
C -13.648100 -18.221100 -10.174500
H -12.814800 -17.809200 -9.933100
