12
Fragment
H -19.398500 -17.809200 -12.670900
C -18.565100 -18.221100 -12.429500
H -18.523100 -18.321500 -11.475600
H -18.501500 -19.083800 -12.845400
H -17.926900 -15.920500 -11.680900
N -17.459800 -17.381000 -12.878900
C -17.303100 -16.146600 -12.454800
H -16.810200 -18.803800 -14.092300
H -16.662500 -17.363400 -14.690800
C -16.576900 -17.893300 -13.895200
O -16.425600 -15.376800 -12.837300
H -15.671600 -17.856900 -13.581400
20
Fragment
H -18.329500 -22.578600 -12.338200
O -18.302400 -25.142800 -10.652800
H -17.643300 -22.495700 -9.323700
N -17.478400 -22.579800 -12.241400
C -17.230800 -24.697000 -10.976500
N -16.895600 -22.496900 -9.868000
C -16.860300 -23.220300 -11.115800
O -16.834300 -21.644300 -14.254100
C -16.578100 -22.203100 -13.175400
H -16.106600 -26.175100 -11.302000
N -16.106600 -25.415300 -11.302000
C -15.635100 -22.203100 -9.428600
O -15.378900 -21.644300 -8.349900
C -15.353000 -23.220300 -11.488300
N -15.317600 -22.496900 -12.736000
C -14.982500 -24.697000 -11.627500
N -14.734900 -22.579800 -10.362600
H -14.570000 -22.495700 -13.280300
O -13.910800 -25.142800 -11.951200
H -13.883700 -22.578600 -10.265900
32
Fragment
H -19.398500 -17.809200 -12.670900
C -18.565100 -18.221100 -12.429500
H -18.523100 -18.321500 -11.475600
H -18.501500 -19.083800 -12.845400
H -17.926900 -15.920500 -11.680900
N -17.459800 -17.381000 -12.878900
C -17.303100 -16.146600 -12.454800
H -16.810200 -18.803800 -14.092300
H -16.662500 -17.363400 -14.690800
C -16.576900 -17.893300 -13.895200
O -16.425600 -15.376800 -12.837300
H -15.671600 -17.856900 -13.581400
H -18.329500 -22.578600 -12.338200
O -18.302400 -25.142800 -10.652800
H -17.643300 -22.495700 -9.323700
N -17.478400 -22.579800 -12.241400
C -17.230800 -24.697000 -10.976500
N -16.895600 -22.496900 -9.868000
C -16.860300 -23.220300 -11.115800
O -16.834300 -21.644300 -14.254100
C -16.578100 -22.203100 -13.175400
H -16.106600 -26.175100 -11.302000
N -16.106600 -25.415300 -11.302000
C -15.635100 -22.203100 -9.428600
O -15.378900 -21.644300 -8.349900
C -15.353000 -23.220300 -11.488300
N -15.317600 -22.496900 -12.736000
C -14.982500 -24.697000 -11.627500
N -14.734900 -22.579800 -10.362600
H -14.570000 -22.495700 -13.280300
O -13.910800 -25.142800 -11.951200
H -13.883700 -22.578600 -10.265900
