18
Fragment
H -6.292400 -13.739900 -14.703900
O -6.019400 -11.703100 -15.985900
H -5.958500 -10.787400 -16.312900
O -5.771000 -14.308000 -15.069300
C -5.087800 -12.524700 -16.581100
C -5.004700 -13.824900 -16.100100
H -4.546800 -16.120600 -15.567300
H -4.331200 -11.213000 -17.941600
C -4.266200 -12.095600 -17.609700
C -4.085700 -14.691900 -16.676400
O -3.971600 -15.991000 -16.212900
C -3.364800 -12.981800 -18.194100
C -3.259300 -14.284100 -17.713600
O -2.720100 -11.426500 -19.883600
H -2.623600 -14.918100 -18.119500
C -2.531300 -12.499700 -19.327100
O -1.587500 -13.365200 -19.706500
H -1.100300 -13.027900 -20.512200
18
Fragment
H -13.920200 -12.088700 -11.446500
O -13.816400 -10.091900 -12.863700
H -13.718800 -9.291000 -13.238700
O -13.504200 -12.669300 -11.962200
C -12.809300 -10.849900 -13.412500
C -12.680700 -12.150400 -12.929500
H -12.181600 -14.439000 -12.447300
H -12.055800 -9.447000 -14.779800
C -11.955300 -10.380500 -14.398600
C -11.720600 -12.996700 -13.492800
O -11.604800 -14.302000 -13.071300
C -10.999200 -11.230900 -14.948800
C -10.885900 -12.543500 -14.492100
O -10.229500 -9.581000 -16.500900
H -10.202100 -13.160200 -14.900100
C -10.147400 -10.720500 -16.050900
O -9.286600 -11.613500 -16.523600
H -8.775800 -11.257000 -17.385700
36
Fragment
H -6.292400 -13.739900 -14.703900
O -6.019400 -11.703100 -15.985900
H -5.958500 -10.787400 -16.312900
O -5.771000 -14.308000 -15.069300
C -5.087800 -12.524700 -16.581100
C -5.004700 -13.824900 -16.100100
H -4.546800 -16.120600 -15.567300
H -4.331200 -11.213000 -17.941600
C -4.266200 -12.095600 -17.609700
C -4.085700 -14.691900 -16.676400
O -3.971600 -15.991000 -16.212900
C -3.364800 -12.981800 -18.194100
C -3.259300 -14.284100 -17.713600
O -2.720100 -11.426500 -19.883600
H -2.623600 -14.918100 -18.119500
C -2.531300 -12.499700 -19.327100
O -1.587500 -13.365200 -19.706500
H -1.100300 -13.027900 -20.512200
H -13.920200 -12.088700 -11.446500
O -13.816400 -10.091900 -12.863700
H -13.718800 -9.291000 -13.238700
O -13.504200 -12.669300 -11.962200
C -12.809300 -10.849900 -13.412500
C -12.680700 -12.150400 -12.929500
H -12.181600 -14.439000 -12.447300
H -12.055800 -9.447000 -14.779800
C -11.955300 -10.380500 -14.398600
C -11.720600 -12.996700 -13.492800
O -11.604800 -14.302000 -13.071300
C -10.999200 -11.230900 -14.948800
C -10.885900 -12.543500 -14.492100
O -10.229500 -9.581000 -16.500900
H -10.202100 -13.160200 -14.900100
C -10.147400 -10.720500 -16.050900
O -9.286600 -11.613500 -16.523600
H -8.775800 -11.257000 -17.385700
