18
Fragment
H -6.292400 -13.739900 -14.703900
O -6.019400 -11.703100 -15.985900
H -5.958500 -10.787400 -16.312900
O -5.771000 -14.308000 -15.069300
C -5.087800 -12.524700 -16.581100
C -5.004700 -13.824900 -16.100100
H -4.546800 -16.120600 -15.567300
H -4.331200 -11.213000 -17.941600
C -4.266200 -12.095600 -17.609700
C -4.085700 -14.691900 -16.676400
O -3.971600 -15.991000 -16.212900
C -3.364800 -12.981800 -18.194100
C -3.259300 -14.284100 -17.713600
O -2.720100 -11.426500 -19.883600
H -2.623600 -14.918100 -18.119500
C -2.531300 -12.499700 -19.327100
O -1.587500 -13.365200 -19.706500
H -1.100300 -13.027900 -20.512200
17
Fragment
H -9.230500 -9.133600 -18.869100
C -8.440300 -9.566700 -19.260500
N -8.112500 -10.755800 -18.719600
H -8.000000 -8.142900 -20.632500
C -7.705700 -8.976100 -20.267000
C -7.029200 -11.379100 -19.193800
H -6.837400 -12.248900 -18.832500
C -6.561600 -9.622300 -20.730000
C -6.213400 -10.843000 -20.172700
O -6.009600 -7.786500 -22.149400
C -5.738300 -8.935500 -21.796200
H -5.412500 -11.305700 -20.418000
N -4.726400 -9.629500 -22.336600
H -4.616000 -10.548700 -22.202400
H -4.577600 -8.664300 -23.909500
N -3.952200 -9.085500 -23.396900
H -3.218400 -8.431400 -22.997700
35
Fragment
H -6.292400 -13.739900 -14.703900
O -6.019400 -11.703100 -15.985900
H -5.958500 -10.787400 -16.312900
O -5.771000 -14.308000 -15.069300
C -5.087800 -12.524700 -16.581100
C -5.004700 -13.824900 -16.100100
H -4.546800 -16.120600 -15.567300
H -4.331200 -11.213000 -17.941600
C -4.266200 -12.095600 -17.609700
C -4.085700 -14.691900 -16.676400
O -3.971600 -15.991000 -16.212900
C -3.364800 -12.981800 -18.194100
C -3.259300 -14.284100 -17.713600
O -2.720100 -11.426500 -19.883600
H -2.623600 -14.918100 -18.119500
C -2.531300 -12.499700 -19.327100
O -1.587500 -13.365200 -19.706500
H -1.100300 -13.027900 -20.512200
H -9.230500 -9.133600 -18.869100
C -8.440300 -9.566700 -19.260500
N -8.112500 -10.755800 -18.719600
H -8.000000 -8.142900 -20.632500
C -7.705700 -8.976100 -20.267000
C -7.029200 -11.379100 -19.193800
H -6.837400 -12.248900 -18.832500
C -6.561600 -9.622300 -20.730000
C -6.213400 -10.843000 -20.172700
O -6.009600 -7.786500 -22.149400
C -5.738300 -8.935500 -21.796200
H -5.412500 -11.305700 -20.418000
N -4.726400 -9.629500 -22.336600
H -4.616000 -10.548700 -22.202400
H -4.577600 -8.664300 -23.909500
N -3.952200 -9.085500 -23.396900
H -3.218400 -8.431400 -22.997700
