18
Fragment
H -6.292400 -13.739900 -14.703900
O -6.019400 -11.703100 -15.985900
H -5.958500 -10.787400 -16.312900
O -5.771000 -14.308000 -15.069300
C -5.087800 -12.524700 -16.581100
C -5.004700 -13.824900 -16.100100
H -4.546800 -16.120600 -15.567300
H -4.331200 -11.213000 -17.941600
C -4.266200 -12.095600 -17.609700
C -4.085700 -14.691900 -16.676400
O -3.971600 -15.991000 -16.212900
C -3.364800 -12.981800 -18.194100
C -3.259300 -14.284100 -17.713600
O -2.720100 -11.426500 -19.883600
H -2.623600 -14.918100 -18.119500
C -2.531300 -12.499700 -19.327100
O -1.587500 -13.365200 -19.706500
H -1.100300 -13.027900 -20.512200
18
Fragment
H -6.725100 -15.282900 -18.733100
O -6.237900 -14.945600 -19.538800
C -5.294100 -15.811100 -19.918100
H -5.201800 -13.392700 -21.125700
O -5.105300 -16.884300 -19.361700
C -4.566200 -14.026600 -21.531700
C -4.460600 -15.329000 -21.051200
O -3.853900 -12.319700 -23.032400
C -3.739700 -13.618800 -22.568900
C -3.559200 -16.215200 -21.635500
H -3.494200 -17.097800 -21.303600
H -3.278600 -12.190100 -23.678000
C -2.820800 -14.485800 -23.145200
C -2.737700 -15.786000 -22.664100
O -2.054400 -14.002700 -24.176000
H -1.866900 -17.523300 -22.932300
O -1.806000 -16.607700 -23.259400
H -1.533000 -14.570900 -24.541400
36
Fragment
H -6.292400 -13.739900 -14.703900
O -6.019400 -11.703100 -15.985900
H -5.958500 -10.787400 -16.312900
O -5.771000 -14.308000 -15.069300
C -5.087800 -12.524700 -16.581100
C -5.004700 -13.824900 -16.100100
H -4.546800 -16.120600 -15.567300
H -4.331200 -11.213000 -17.941600
C -4.266200 -12.095600 -17.609700
C -4.085700 -14.691900 -16.676400
O -3.971600 -15.991000 -16.212900
C -3.364800 -12.981800 -18.194100
C -3.259300 -14.284100 -17.713600
O -2.720100 -11.426500 -19.883600
H -2.623600 -14.918100 -18.119500
C -2.531300 -12.499700 -19.327100
O -1.587500 -13.365200 -19.706500
H -1.100300 -13.027900 -20.512200
H -6.725100 -15.282900 -18.733100
O -6.237900 -14.945600 -19.538800
C -5.294100 -15.811100 -19.918100
H -5.201800 -13.392700 -21.125700
O -5.105300 -16.884300 -19.361700
C -4.566200 -14.026600 -21.531700
C -4.460600 -15.329000 -21.051200
O -3.853900 -12.319700 -23.032400
C -3.739700 -13.618800 -22.568900
C -3.559200 -16.215200 -21.635500
H -3.494200 -17.097800 -21.303600
H -3.278600 -12.190100 -23.678000
C -2.820800 -14.485800 -23.145200
C -2.737700 -15.786000 -22.664100
O -2.054400 -14.002700 -24.176000
H -1.866900 -17.523300 -22.932300
O -1.806000 -16.607700 -23.259400
H -1.533000 -14.570900 -24.541400
