13
Fragment
O -13.156400 -17.896500 -41.703500
H -13.050800 -16.164600 -39.718700
O -12.585300 -14.183700 -37.929700
N -12.393200 -17.143700 -42.260500
C -12.356500 -15.777400 -40.201200
O -11.964100 -17.195800 -43.382900
N -11.924800 -16.067500 -41.460900
N -11.560200 -14.091200 -38.577800
C -11.521700 -14.786500 -39.832900
C -10.850500 -15.268000 -41.768900
N -10.585000 -14.469400 -40.783100
O -10.552900 -13.486600 -38.217400
H -10.380800 -15.296000 -42.571000
36
Fragment
O -14.672300 -21.983900 -35.588300
O -14.278100 -20.659800 -32.992400
H -14.221800 -19.724500 -35.549600
N -13.496100 -22.152800 -35.333400
N -13.443300 -19.782100 -32.843200
C -13.271700 -19.705800 -35.310900
N -13.060800 -19.083200 -33.978500
H -13.052900 -18.301500 -36.902500
O -12.946400 -23.202100 -35.071400
O -12.922300 -19.430900 -31.794200
N -12.677400 -21.017300 -35.420200
C -12.464700 -18.729300 -36.245700
N -11.956100 -17.746500 -35.262100
O -11.882800 -18.559500 -38.871900
C -11.790700 -18.352900 -33.947900
H -11.789400 -17.673200 -33.241300
N -11.416300 -19.474900 -36.893200
C -11.279500 -21.148500 -35.111200
N -11.061400 -19.169500 -38.224300
N -11.047100 -16.786200 -35.655600
O -11.008700 -16.535600 -36.848100
N -10.987200 -20.675100 -33.745400
H -10.981400 -22.074500 -35.230800
O -10.535900 -22.745700 -33.019600
C -10.510900 -19.294300 -33.844800
C -10.474200 -20.174700 -36.052600
O -10.382100 -16.267900 -34.766000
N -10.257000 -21.574300 -32.900200
O -9.990700 -19.599800 -38.595000
H -9.930300 -19.048700 -33.094300
H -9.820900 -20.666900 -36.591600
N -9.803900 -19.240400 -35.132700
O -9.475000 -21.077500 -32.119900
N -8.381000 -19.302400 -35.094200
O -7.847400 -18.941300 -34.075000
O -7.835800 -19.630300 -36.126000
49
Fragment
O -13.156400 -17.896500 -41.703500
H -13.050800 -16.164600 -39.718700
O -12.585300 -14.183700 -37.929700
N -12.393200 -17.143700 -42.260500
C -12.356500 -15.777400 -40.201200
O -11.964100 -17.195800 -43.382900
N -11.924800 -16.067500 -41.460900
N -11.560200 -14.091200 -38.577800
C -11.521700 -14.786500 -39.832900
C -10.850500 -15.268000 -41.768900
N -10.585000 -14.469400 -40.783100
O -10.552900 -13.486600 -38.217400
H -10.380800 -15.296000 -42.571000
O -14.672300 -21.983900 -35.588300
O -14.278100 -20.659800 -32.992400
H -14.221800 -19.724500 -35.549600
N -13.496100 -22.152800 -35.333400
N -13.443300 -19.782100 -32.843200
C -13.271700 -19.705800 -35.310900
N -13.060800 -19.083200 -33.978500
H -13.052900 -18.301500 -36.902500
O -12.946400 -23.202100 -35.071400
O -12.922300 -19.430900 -31.794200
N -12.677400 -21.017300 -35.420200
C -12.464700 -18.729300 -36.245700
N -11.956100 -17.746500 -35.262100
O -11.882800 -18.559500 -38.871900
C -11.790700 -18.352900 -33.947900
H -11.789400 -17.673200 -33.241300
N -11.416300 -19.474900 -36.893200
C -11.279500 -21.148500 -35.111200
N -11.061400 -19.169500 -38.224300
N -11.047100 -16.786200 -35.655600
O -11.008700 -16.535600 -36.848100
N -10.987200 -20.675100 -33.745400
H -10.981400 -22.074500 -35.230800
O -10.535900 -22.745700 -33.019600
C -10.510900 -19.294300 -33.844800
C -10.474200 -20.174700 -36.052600
O -10.382100 -16.267900 -34.766000
N -10.257000 -21.574300 -32.900200
O -9.990700 -19.599800 -38.595000
H -9.930300 -19.048700 -33.094300
H -9.820900 -20.666900 -36.591600
N -9.803900 -19.240400 -35.132700
O -9.475000 -21.077500 -32.119900
N -8.381000 -19.302400 -35.094200
O -7.847400 -18.941300 -34.075000
O -7.835800 -19.630300 -36.126000
