13
Fragment
O -13.156400 -17.896500 -41.703500
H -13.050800 -16.164600 -39.718700
O -12.585300 -14.183700 -37.929700
N -12.393200 -17.143700 -42.260500
C -12.356500 -15.777400 -40.201200
O -11.964100 -17.195800 -43.382900
N -11.924800 -16.067500 -41.460900
N -11.560200 -14.091200 -38.577800
C -11.521700 -14.786500 -39.832900
C -10.850500 -15.268000 -41.768900
N -10.585000 -14.469400 -40.783100
O -10.552900 -13.486600 -38.217400
H -10.380800 -15.296000 -42.571000
36
Fragment
O -19.141200 -9.457600 -41.412700
O -18.747000 -10.781800 -44.008600
H -18.690700 -11.717100 -41.451400
N -17.965000 -9.288700 -41.667600
N -17.912200 -11.659400 -44.157800
C -17.740600 -11.735800 -41.690100
N -17.529700 -12.358300 -43.022500
H -17.521800 -13.140100 -40.098500
O -17.415300 -8.239500 -41.929600
O -17.391200 -12.010700 -45.206800
N -17.146300 -10.424200 -41.580800
C -16.933600 -12.712300 -40.755300
N -16.425000 -13.695000 -41.738900
O -16.351700 -12.882100 -38.129100
C -16.259600 -13.088700 -43.053100
H -16.258300 -13.768300 -43.759700
N -15.885200 -11.966700 -40.107800
C -15.748400 -10.293100 -41.889800
N -15.530300 -12.272100 -38.776700
N -15.516000 -14.655400 -41.345400
O -15.477600 -14.906000 -40.152900
N -15.456100 -10.766500 -43.255600
H -15.450300 -9.367100 -41.770200
O -15.004800 -8.695800 -43.981400
C -14.979800 -12.147200 -43.156200
C -14.943100 -11.266900 -40.948400
O -14.851000 -15.173700 -42.235000
N -14.725900 -9.867300 -44.100800
O -14.459600 -11.841800 -38.406000
H -14.399200 -12.392800 -43.906700
H -14.289800 -10.774700 -40.409400
N -14.272800 -12.201100 -41.868300
O -13.943900 -10.364000 -44.881100
N -12.849900 -12.139100 -41.906800
O -12.316300 -12.500300 -42.926000
O -12.304700 -11.811200 -40.875000
49
Fragment
O -13.156400 -17.896500 -41.703500
H -13.050800 -16.164600 -39.718700
O -12.585300 -14.183700 -37.929700
N -12.393200 -17.143700 -42.260500
C -12.356500 -15.777400 -40.201200
O -11.964100 -17.195800 -43.382900
N -11.924800 -16.067500 -41.460900
N -11.560200 -14.091200 -38.577800
C -11.521700 -14.786500 -39.832900
C -10.850500 -15.268000 -41.768900
N -10.585000 -14.469400 -40.783100
O -10.552900 -13.486600 -38.217400
H -10.380800 -15.296000 -42.571000
O -19.141200 -9.457600 -41.412700
O -18.747000 -10.781800 -44.008600
H -18.690700 -11.717100 -41.451400
N -17.965000 -9.288700 -41.667600
N -17.912200 -11.659400 -44.157800
C -17.740600 -11.735800 -41.690100
N -17.529700 -12.358300 -43.022500
H -17.521800 -13.140100 -40.098500
O -17.415300 -8.239500 -41.929600
O -17.391200 -12.010700 -45.206800
N -17.146300 -10.424200 -41.580800
C -16.933600 -12.712300 -40.755300
N -16.425000 -13.695000 -41.738900
O -16.351700 -12.882100 -38.129100
C -16.259600 -13.088700 -43.053100
H -16.258300 -13.768300 -43.759700
N -15.885200 -11.966700 -40.107800
C -15.748400 -10.293100 -41.889800
N -15.530300 -12.272100 -38.776700
N -15.516000 -14.655400 -41.345400
O -15.477600 -14.906000 -40.152900
N -15.456100 -10.766500 -43.255600
H -15.450300 -9.367100 -41.770200
O -15.004800 -8.695800 -43.981400
C -14.979800 -12.147200 -43.156200
C -14.943100 -11.266900 -40.948400
O -14.851000 -15.173700 -42.235000
N -14.725900 -9.867300 -44.100800
O -14.459600 -11.841800 -38.406000
H -14.399200 -12.392800 -43.906700
H -14.289800 -10.774700 -40.409400
N -14.272800 -12.201100 -41.868300
O -13.943900 -10.364000 -44.881100
N -12.849900 -12.139100 -41.906800
O -12.316300 -12.500300 -42.926000
O -12.304700 -11.811200 -40.875000
