13
Fragment
O -13.156400 -17.896500 -41.703500
H -13.050800 -16.164600 -39.718700
O -12.585300 -14.183700 -37.929700
N -12.393200 -17.143700 -42.260500
C -12.356500 -15.777400 -40.201200
O -11.964100 -17.195800 -43.382900
N -11.924800 -16.067500 -41.460900
N -11.560200 -14.091200 -38.577800
C -11.521700 -14.786500 -39.832900
C -10.850500 -15.268000 -41.768900
N -10.585000 -14.469400 -40.783100
O -10.552900 -13.486600 -38.217400
H -10.380800 -15.296000 -42.571000
36
Fragment
O -19.141200 -18.440900 -41.412700
O -18.747000 -19.765100 -44.008600
H -18.690700 -20.700400 -41.451400
N -17.965000 -18.272000 -41.667600
N -17.912200 -20.642700 -44.157800
C -17.740600 -20.719100 -41.690100
N -17.529700 -21.341600 -43.022500
H -17.521800 -22.123400 -40.098500
O -17.415300 -17.222800 -41.929600
O -17.391200 -20.994000 -45.206800
N -17.146300 -19.407500 -41.580800
C -16.933600 -21.695600 -40.755300
N -16.425000 -22.678300 -41.738900
O -16.351700 -21.865400 -38.129100
C -16.259600 -22.072000 -43.053100
H -16.258300 -22.751600 -43.759700
N -15.885200 -20.950000 -40.107800
C -15.748400 -19.276400 -41.889800
N -15.530300 -21.255400 -38.776700
N -15.516000 -23.638700 -41.345400
O -15.477600 -23.889300 -40.152900
N -15.456100 -19.749800 -43.255600
H -15.450300 -18.350400 -41.770200
O -15.004800 -17.679100 -43.981400
C -14.979800 -21.130500 -43.156200
C -14.943100 -20.250200 -40.948400
O -14.851000 -24.157000 -42.235000
N -14.725900 -18.850600 -44.100800
O -14.459600 -20.825100 -38.406000
H -14.399200 -21.376100 -43.906700
H -14.289800 -19.758000 -40.409400
N -14.272800 -21.184400 -41.868300
O -13.943900 -19.347300 -44.881100
N -12.849900 -21.122400 -41.906800
O -12.316300 -21.483600 -42.926000
O -12.304700 -20.794500 -40.875000
49
Fragment
O -13.156400 -17.896500 -41.703500
H -13.050800 -16.164600 -39.718700
O -12.585300 -14.183700 -37.929700
N -12.393200 -17.143700 -42.260500
C -12.356500 -15.777400 -40.201200
O -11.964100 -17.195800 -43.382900
N -11.924800 -16.067500 -41.460900
N -11.560200 -14.091200 -38.577800
C -11.521700 -14.786500 -39.832900
C -10.850500 -15.268000 -41.768900
N -10.585000 -14.469400 -40.783100
O -10.552900 -13.486600 -38.217400
H -10.380800 -15.296000 -42.571000
O -19.141200 -18.440900 -41.412700
O -18.747000 -19.765100 -44.008600
H -18.690700 -20.700400 -41.451400
N -17.965000 -18.272000 -41.667600
N -17.912200 -20.642700 -44.157800
C -17.740600 -20.719100 -41.690100
N -17.529700 -21.341600 -43.022500
H -17.521800 -22.123400 -40.098500
O -17.415300 -17.222800 -41.929600
O -17.391200 -20.994000 -45.206800
N -17.146300 -19.407500 -41.580800
C -16.933600 -21.695600 -40.755300
N -16.425000 -22.678300 -41.738900
O -16.351700 -21.865400 -38.129100
C -16.259600 -22.072000 -43.053100
H -16.258300 -22.751600 -43.759700
N -15.885200 -20.950000 -40.107800
C -15.748400 -19.276400 -41.889800
N -15.530300 -21.255400 -38.776700
N -15.516000 -23.638700 -41.345400
O -15.477600 -23.889300 -40.152900
N -15.456100 -19.749800 -43.255600
H -15.450300 -18.350400 -41.770200
O -15.004800 -17.679100 -43.981400
C -14.979800 -21.130500 -43.156200
C -14.943100 -20.250200 -40.948400
O -14.851000 -24.157000 -42.235000
N -14.725900 -18.850600 -44.100800
O -14.459600 -20.825100 -38.406000
H -14.399200 -21.376100 -43.906700
H -14.289800 -19.758000 -40.409400
N -14.272800 -21.184400 -41.868300
O -13.943900 -19.347300 -44.881100
N -12.849900 -21.122400 -41.906800
O -12.316300 -21.483600 -42.926000
O -12.304700 -20.794500 -40.875000
