13
Fragment
O -13.156400 -17.896500 -41.703500
H -13.050800 -16.164600 -39.718700
O -12.585300 -14.183700 -37.929700
N -12.393200 -17.143700 -42.260500
C -12.356500 -15.777400 -40.201200
O -11.964100 -17.195800 -43.382900
N -11.924800 -16.067500 -41.460900
N -11.560200 -14.091200 -38.577800
C -11.521700 -14.786500 -39.832900
C -10.850500 -15.268000 -41.768900
N -10.585000 -14.469400 -40.783100
O -10.552900 -13.486600 -38.217400
H -10.380800 -15.296000 -42.571000
36
Fragment
O -14.672300 -13.000600 -35.588300
O -14.278100 -11.676500 -32.992400
H -14.221800 -10.741200 -35.549600
N -13.496100 -13.169500 -35.333400
N -13.443300 -10.798800 -32.843200
C -13.271700 -10.722500 -35.310900
N -13.060800 -10.099900 -33.978500
H -13.052900 -9.318200 -36.902500
O -12.946400 -14.218800 -35.071400
O -12.922300 -10.447600 -31.794200
N -12.677400 -12.034000 -35.420200
C -12.464700 -9.746000 -36.245700
N -11.956100 -8.763200 -35.262100
O -11.882800 -9.576200 -38.871900
C -11.790700 -9.369600 -33.947900
H -11.789400 -8.689900 -33.241300
N -11.416300 -10.491600 -36.893200
C -11.279500 -12.165200 -35.111200
N -11.061400 -10.186200 -38.224300
N -11.047100 -7.802900 -35.655600
O -11.008700 -7.552300 -36.848100
N -10.987200 -11.691800 -33.745400
H -10.981400 -13.091200 -35.230800
O -10.535900 -13.762400 -33.019600
C -10.510900 -10.311000 -33.844800
C -10.474200 -11.191400 -36.052600
O -10.382100 -7.284600 -34.766000
N -10.257000 -12.591000 -32.900200
O -9.990700 -10.616500 -38.595000
H -9.930300 -10.065400 -33.094300
H -9.820900 -11.683600 -36.591600
N -9.803900 -10.257100 -35.132700
O -9.475000 -12.094200 -32.119900
N -8.381000 -10.319100 -35.094200
O -7.847400 -9.958000 -34.075000
O -7.835800 -10.647000 -36.126000
49
Fragment
O -13.156400 -17.896500 -41.703500
H -13.050800 -16.164600 -39.718700
O -12.585300 -14.183700 -37.929700
N -12.393200 -17.143700 -42.260500
C -12.356500 -15.777400 -40.201200
O -11.964100 -17.195800 -43.382900
N -11.924800 -16.067500 -41.460900
N -11.560200 -14.091200 -38.577800
C -11.521700 -14.786500 -39.832900
C -10.850500 -15.268000 -41.768900
N -10.585000 -14.469400 -40.783100
O -10.552900 -13.486600 -38.217400
H -10.380800 -15.296000 -42.571000
O -14.672300 -13.000600 -35.588300
O -14.278100 -11.676500 -32.992400
H -14.221800 -10.741200 -35.549600
N -13.496100 -13.169500 -35.333400
N -13.443300 -10.798800 -32.843200
C -13.271700 -10.722500 -35.310900
N -13.060800 -10.099900 -33.978500
H -13.052900 -9.318200 -36.902500
O -12.946400 -14.218800 -35.071400
O -12.922300 -10.447600 -31.794200
N -12.677400 -12.034000 -35.420200
C -12.464700 -9.746000 -36.245700
N -11.956100 -8.763200 -35.262100
O -11.882800 -9.576200 -38.871900
C -11.790700 -9.369600 -33.947900
H -11.789400 -8.689900 -33.241300
N -11.416300 -10.491600 -36.893200
C -11.279500 -12.165200 -35.111200
N -11.061400 -10.186200 -38.224300
N -11.047100 -7.802900 -35.655600
O -11.008700 -7.552300 -36.848100
N -10.987200 -11.691800 -33.745400
H -10.981400 -13.091200 -35.230800
O -10.535900 -13.762400 -33.019600
C -10.510900 -10.311000 -33.844800
C -10.474200 -11.191400 -36.052600
O -10.382100 -7.284600 -34.766000
N -10.257000 -12.591000 -32.900200
O -9.990700 -10.616500 -38.595000
H -9.930300 -10.065400 -33.094300
H -9.820900 -11.683600 -36.591600
N -9.803900 -10.257100 -35.132700
O -9.475000 -12.094200 -32.119900
N -8.381000 -10.319100 -35.094200
O -7.847400 -9.958000 -34.075000
O -7.835800 -10.647000 -36.126000
