13
Fragment
O -13.156400 -17.896500 -41.703500
H -13.050800 -16.164600 -39.718700
O -12.585300 -14.183700 -37.929700
N -12.393200 -17.143700 -42.260500
C -12.356500 -15.777400 -40.201200
O -11.964100 -17.195800 -43.382900
N -11.924800 -16.067500 -41.460900
N -11.560200 -14.091200 -38.577800
C -11.521700 -14.786500 -39.832900
C -10.850500 -15.268000 -41.768900
N -10.585000 -14.469400 -40.783100
O -10.552900 -13.486600 -38.217400
H -10.380800 -15.296000 -42.571000
36
Fragment
O -14.508700 -16.302900 -48.959500
O -14.497100 -16.991900 -46.908500
N -13.963500 -16.630800 -47.927700
O -12.869500 -14.855700 -44.953400
N -12.540600 -16.692800 -47.966200
H -12.523600 -15.266300 -49.425100
H -12.414200 -16.884500 -45.927800
O -12.353800 -16.333400 -51.428500
N -12.087500 -14.358900 -45.733700
O -11.962400 -19.665300 -47.599500
C -11.870300 -15.758500 -48.886100
C -11.833600 -16.638900 -46.678300
O -11.808600 -13.187500 -45.853100
H -11.363100 -13.858700 -48.064300
N -11.357300 -15.258100 -46.578900
O -11.335800 -19.397600 -49.681600
N -11.297400 -19.147000 -48.489100
N -11.283100 -16.763700 -51.057800
C -11.065000 -14.784700 -47.944700
N -10.928200 -16.458300 -49.726700
H -10.555100 -18.260000 -46.074800
C -10.553800 -17.580300 -46.781400
O -10.461700 -17.373700 -51.705400
N -10.388400 -18.186700 -48.095600
C -9.879800 -17.203900 -49.079200
N -9.667100 -14.915900 -48.253700
O -9.422200 -16.502300 -44.627700
O -9.398100 -12.731100 -47.904900
H -9.291600 -17.631700 -49.736000
N -9.283700 -16.850000 -46.812000
C -9.072800 -16.227400 -48.144400
N -8.901200 -16.151100 -45.676700
N -8.848400 -13.780400 -48.166900
H -8.122700 -16.208700 -48.383100
O -8.066400 -15.273400 -45.825900
O -7.672200 -13.949300 -48.421800
49
Fragment
O -13.156400 -17.896500 -41.703500
H -13.050800 -16.164600 -39.718700
O -12.585300 -14.183700 -37.929700
N -12.393200 -17.143700 -42.260500
C -12.356500 -15.777400 -40.201200
O -11.964100 -17.195800 -43.382900
N -11.924800 -16.067500 -41.460900
N -11.560200 -14.091200 -38.577800
C -11.521700 -14.786500 -39.832900
C -10.850500 -15.268000 -41.768900
N -10.585000 -14.469400 -40.783100
O -10.552900 -13.486600 -38.217400
H -10.380800 -15.296000 -42.571000
O -14.508700 -16.302900 -48.959500
O -14.497100 -16.991900 -46.908500
N -13.963500 -16.630800 -47.927700
O -12.869500 -14.855700 -44.953400
N -12.540600 -16.692800 -47.966200
H -12.523600 -15.266300 -49.425100
H -12.414200 -16.884500 -45.927800
O -12.353800 -16.333400 -51.428500
N -12.087500 -14.358900 -45.733700
O -11.962400 -19.665300 -47.599500
C -11.870300 -15.758500 -48.886100
C -11.833600 -16.638900 -46.678300
O -11.808600 -13.187500 -45.853100
H -11.363100 -13.858700 -48.064300
N -11.357300 -15.258100 -46.578900
O -11.335800 -19.397600 -49.681600
N -11.297400 -19.147000 -48.489100
N -11.283100 -16.763700 -51.057800
C -11.065000 -14.784700 -47.944700
N -10.928200 -16.458300 -49.726700
H -10.555100 -18.260000 -46.074800
C -10.553800 -17.580300 -46.781400
O -10.461700 -17.373700 -51.705400
N -10.388400 -18.186700 -48.095600
C -9.879800 -17.203900 -49.079200
N -9.667100 -14.915900 -48.253700
O -9.422200 -16.502300 -44.627700
O -9.398100 -12.731100 -47.904900
H -9.291600 -17.631700 -49.736000
N -9.283700 -16.850000 -46.812000
C -9.072800 -16.227400 -48.144400
N -8.901200 -16.151100 -45.676700
N -8.848400 -13.780400 -48.166900
H -8.122700 -16.208700 -48.383100
O -8.066400 -15.273400 -45.825900
O -7.672200 -13.949300 -48.421800
