13
Fragment
O -13.156400 -17.896500 -41.703500
H -13.050800 -16.164600 -39.718700
O -12.585300 -14.183700 -37.929700
N -12.393200 -17.143700 -42.260500
C -12.356500 -15.777400 -40.201200
O -11.964100 -17.195800 -43.382900
N -11.924800 -16.067500 -41.460900
N -11.560200 -14.091200 -38.577800
C -11.521700 -14.786500 -39.832900
C -10.850500 -15.268000 -41.768900
N -10.585000 -14.469400 -40.783100
O -10.552900 -13.486600 -38.217400
H -10.380800 -15.296000 -42.571000
13
Fragment
O -17.625300 -13.545000 -35.297500
H -17.519700 -15.277000 -37.282300
O -17.054200 -17.257800 -39.071300
N -16.862100 -14.297800 -34.740500
C -16.825400 -15.664200 -36.799800
O -16.433000 -14.245700 -33.618100
N -16.393700 -15.374000 -35.540100
N -16.029100 -17.350300 -38.423200
C -15.990600 -16.655000 -37.168100
C -15.319400 -16.173500 -35.232100
N -15.053900 -16.972100 -36.217900
O -15.021800 -17.954900 -38.783600
H -14.849700 -16.145500 -34.430000
26
Fragment
O -13.156400 -17.896500 -41.703500
H -13.050800 -16.164600 -39.718700
O -12.585300 -14.183700 -37.929700
N -12.393200 -17.143700 -42.260500
C -12.356500 -15.777400 -40.201200
O -11.964100 -17.195800 -43.382900
N -11.924800 -16.067500 -41.460900
N -11.560200 -14.091200 -38.577800
C -11.521700 -14.786500 -39.832900
C -10.850500 -15.268000 -41.768900
N -10.585000 -14.469400 -40.783100
O -10.552900 -13.486600 -38.217400
H -10.380800 -15.296000 -42.571000
O -17.625300 -13.545000 -35.297500
H -17.519700 -15.277000 -37.282300
O -17.054200 -17.257800 -39.071300
N -16.862100 -14.297800 -34.740500
C -16.825400 -15.664200 -36.799800
O -16.433000 -14.245700 -33.618100
N -16.393700 -15.374000 -35.540100
N -16.029100 -17.350300 -38.423200
C -15.990600 -16.655000 -37.168100
C -15.319400 -16.173500 -35.232100
N -15.053900 -16.972100 -36.217900
O -15.021800 -17.954900 -38.783600
H -14.849700 -16.145500 -34.430000
