13
Fragment
O -13.156400 -17.896500 -41.703500
H -13.050800 -16.164600 -39.718700
O -12.585300 -14.183700 -37.929700
N -12.393200 -17.143700 -42.260500
C -12.356500 -15.777400 -40.201200
O -11.964100 -17.195800 -43.382900
N -11.924800 -16.067500 -41.460900
N -11.560200 -14.091200 -38.577800
C -11.521700 -14.786500 -39.832900
C -10.850500 -15.268000 -41.768900
N -10.585000 -14.469400 -40.783100
O -10.552900 -13.486600 -38.217400
H -10.380800 -15.296000 -42.571000
36
Fragment
O -10.203400 -9.457600 -41.412700
O -9.809200 -10.781800 -44.008600
H -9.752900 -11.717100 -41.451400
N -9.027200 -9.288700 -41.667600
N -8.974400 -11.659400 -44.157800
C -8.802800 -11.735800 -41.690100
N -8.591900 -12.358300 -43.022500
H -8.584000 -13.140100 -40.098500
O -8.477500 -8.239500 -41.929600
O -8.453400 -12.010700 -45.206800
N -8.208500 -10.424200 -41.580800
C -7.995800 -12.712300 -40.755300
N -7.487200 -13.695000 -41.738900
O -7.413900 -12.882100 -38.129100
C -7.321800 -13.088700 -43.053100
H -7.320500 -13.768300 -43.759700
N -6.947400 -11.966700 -40.107800
C -6.810600 -10.293100 -41.889800
N -6.592500 -12.272100 -38.776700
N -6.578200 -14.655400 -41.345400
O -6.539800 -14.906000 -40.152900
N -6.518300 -10.766500 -43.255600
H -6.512500 -9.367100 -41.770200
O -6.067000 -8.695800 -43.981400
C -6.042000 -12.147200 -43.156200
C -6.005300 -11.266900 -40.948400
O -5.913200 -15.173700 -42.235000
N -5.788100 -9.867300 -44.100800
O -5.521800 -11.841800 -38.406000
H -5.461400 -12.392800 -43.906700
H -5.352000 -10.774700 -40.409400
N -5.335000 -12.201100 -41.868300
O -5.006100 -10.364000 -44.881100
N -3.912100 -12.139100 -41.906800
O -3.378500 -12.500300 -42.926000
O -3.366900 -11.811200 -40.875000
49
Fragment
O -13.156400 -17.896500 -41.703500
H -13.050800 -16.164600 -39.718700
O -12.585300 -14.183700 -37.929700
N -12.393200 -17.143700 -42.260500
C -12.356500 -15.777400 -40.201200
O -11.964100 -17.195800 -43.382900
N -11.924800 -16.067500 -41.460900
N -11.560200 -14.091200 -38.577800
C -11.521700 -14.786500 -39.832900
C -10.850500 -15.268000 -41.768900
N -10.585000 -14.469400 -40.783100
O -10.552900 -13.486600 -38.217400
H -10.380800 -15.296000 -42.571000
O -10.203400 -9.457600 -41.412700
O -9.809200 -10.781800 -44.008600
H -9.752900 -11.717100 -41.451400
N -9.027200 -9.288700 -41.667600
N -8.974400 -11.659400 -44.157800
C -8.802800 -11.735800 -41.690100
N -8.591900 -12.358300 -43.022500
H -8.584000 -13.140100 -40.098500
O -8.477500 -8.239500 -41.929600
O -8.453400 -12.010700 -45.206800
N -8.208500 -10.424200 -41.580800
C -7.995800 -12.712300 -40.755300
N -7.487200 -13.695000 -41.738900
O -7.413900 -12.882100 -38.129100
C -7.321800 -13.088700 -43.053100
H -7.320500 -13.768300 -43.759700
N -6.947400 -11.966700 -40.107800
C -6.810600 -10.293100 -41.889800
N -6.592500 -12.272100 -38.776700
N -6.578200 -14.655400 -41.345400
O -6.539800 -14.906000 -40.152900
N -6.518300 -10.766500 -43.255600
H -6.512500 -9.367100 -41.770200
O -6.067000 -8.695800 -43.981400
C -6.042000 -12.147200 -43.156200
C -6.005300 -11.266900 -40.948400
O -5.913200 -15.173700 -42.235000
N -5.788100 -9.867300 -44.100800
O -5.521800 -11.841800 -38.406000
H -5.461400 -12.392800 -43.906700
H -5.352000 -10.774700 -40.409400
N -5.335000 -12.201100 -41.868300
O -5.006100 -10.364000 -44.881100
N -3.912100 -12.139100 -41.906800
O -3.378500 -12.500300 -42.926000
O -3.366900 -11.811200 -40.875000
