33
Fragment
H -9.229400 -48.649600 -12.570400
H -8.907000 -44.530900 -11.514900
N -8.877000 -46.895200 -11.931900
C -8.663100 -48.166300 -12.013500
H -8.395000 -50.686400 -11.914500
N -8.268000 -44.877600 -11.055700
C -8.044800 -46.165400 -11.113400
H -7.921700 -50.829600 -13.926100
H -7.775300 -44.377700 -10.558700
N -7.702200 -48.866800 -11.373900
H -7.663500 -48.385900 -15.108600
C -7.556800 -50.324000 -11.588200
H -7.352300 -50.754700 -10.743500
O -7.075500 -48.484700 -14.545600
C -7.016400 -46.818700 -10.388100
C -6.942900 -50.827200 -13.877100
C -6.832300 -48.196800 -10.524100
H -6.791500 -52.854100 -13.672800
H -6.761300 -52.396800 -15.171900
O -6.547100 -50.601300 -12.503100
H -6.530300 -49.991400 -15.686400
C -6.434500 -52.189200 -14.282700
C -6.419200 -49.730700 -14.759100
O -6.154000 -44.900300 -9.299200
C -6.133800 -46.118200 -9.498700
N -5.903600 -48.932900 -9.930600
H -5.469800 -49.619500 -14.594000
N -5.219700 -46.923300 -8.874700
C -5.070000 -48.279500 -9.079100
O -5.012000 -52.271400 -14.278500
H -4.730400 -52.172900 -15.042500
H -4.692800 -46.551700 -8.305400
O -4.149300 -48.865600 -8.486500
33
Fragment
O -10.113900 -41.755400 -16.241100
H -9.570500 -44.069300 -16.422200
H -9.532900 -38.448100 -9.685100
O -9.251300 -38.349600 -10.449100
C -9.193200 -42.341500 -15.648400
N -9.043600 -43.697700 -15.852900
H -8.793400 -41.001500 -10.133600
N -8.359600 -41.688100 -14.797000
C -8.129500 -44.502800 -15.228900
O -8.109300 -45.720700 -15.428400
C -7.844100 -40.890300 -9.968500
C -7.828700 -38.431800 -10.444900
H -7.732900 -40.629600 -9.041100
O -7.716100 -40.019700 -12.224500
H -7.502000 -38.224200 -9.555700
H -7.471700 -37.766900 -11.054800
C -7.430900 -42.424200 -14.203500
C -7.320300 -39.793800 -10.850500
C -7.246800 -43.802300 -14.339500
O -7.187700 -42.136300 -10.182000
H -6.910900 -39.866300 -13.984100
C -6.706500 -40.297000 -13.139400
H -6.599700 -42.235100 -9.618900
N -6.561000 -41.754200 -13.353700
H -6.488000 -46.243300 -14.168900
H -6.341600 -39.791400 -10.801500
C -6.218400 -44.455600 -13.614200
N -5.995200 -45.743400 -13.671900
H -5.868200 -39.934600 -12.813100
C -5.600200 -42.454700 -12.714100
N -5.386300 -43.725800 -12.795700
H -5.356200 -46.090100 -13.212700
H -5.033900 -41.971400 -12.157200
66
Fragment
H -9.229400 -48.649600 -12.570400
H -8.907000 -44.530900 -11.514900
N -8.877000 -46.895200 -11.931900
C -8.663100 -48.166300 -12.013500
H -8.395000 -50.686400 -11.914500
N -8.268000 -44.877600 -11.055700
C -8.044800 -46.165400 -11.113400
H -7.921700 -50.829600 -13.926100
H -7.775300 -44.377700 -10.558700
N -7.702200 -48.866800 -11.373900
H -7.663500 -48.385900 -15.108600
C -7.556800 -50.324000 -11.588200
H -7.352300 -50.754700 -10.743500
O -7.075500 -48.484700 -14.545600
C -7.016400 -46.818700 -10.388100
C -6.942900 -50.827200 -13.877100
C -6.832300 -48.196800 -10.524100
H -6.791500 -52.854100 -13.672800
H -6.761300 -52.396800 -15.171900
O -6.547100 -50.601300 -12.503100
H -6.530300 -49.991400 -15.686400
C -6.434500 -52.189200 -14.282700
C -6.419200 -49.730700 -14.759100
O -6.154000 -44.900300 -9.299200
C -6.133800 -46.118200 -9.498700
N -5.903600 -48.932900 -9.930600
H -5.469800 -49.619500 -14.594000
N -5.219700 -46.923300 -8.874700
C -5.070000 -48.279500 -9.079100
O -5.012000 -52.271400 -14.278500
H -4.730400 -52.172900 -15.042500
H -4.692800 -46.551700 -8.305400
O -4.149300 -48.865600 -8.486500
O -10.113900 -41.755400 -16.241100
H -9.570500 -44.069300 -16.422200
H -9.532900 -38.448100 -9.685100
O -9.251300 -38.349600 -10.449100
C -9.193200 -42.341500 -15.648400
N -9.043600 -43.697700 -15.852900
H -8.793400 -41.001500 -10.133600
N -8.359600 -41.688100 -14.797000
C -8.129500 -44.502800 -15.228900
O -8.109300 -45.720700 -15.428400
C -7.844100 -40.890300 -9.968500
C -7.828700 -38.431800 -10.444900
H -7.732900 -40.629600 -9.041100
O -7.716100 -40.019700 -12.224500
H -7.502000 -38.224200 -9.555700
H -7.471700 -37.766900 -11.054800
C -7.430900 -42.424200 -14.203500
C -7.320300 -39.793800 -10.850500
C -7.246800 -43.802300 -14.339500
O -7.187700 -42.136300 -10.182000
H -6.910900 -39.866300 -13.984100
C -6.706500 -40.297000 -13.139400
H -6.599700 -42.235100 -9.618900
N -6.561000 -41.754200 -13.353700
H -6.488000 -46.243300 -14.168900
H -6.341600 -39.791400 -10.801500
C -6.218400 -44.455600 -13.614200
N -5.995200 -45.743400 -13.671900
H -5.868200 -39.934600 -12.813100
C -5.600200 -42.454700 -12.714100
N -5.386300 -43.725800 -12.795700
H -5.356200 -46.090100 -13.212700
H -5.033900 -41.971400 -12.157200
