33
Fragment
H -9.229400 -48.649600 -12.570400
H -8.907000 -44.530900 -11.514900
N -8.877000 -46.895200 -11.931900
C -8.663100 -48.166300 -12.013500
H -8.395000 -50.686400 -11.914500
N -8.268000 -44.877600 -11.055700
C -8.044800 -46.165400 -11.113400
H -7.921700 -50.829600 -13.926100
H -7.775300 -44.377700 -10.558700
N -7.702200 -48.866800 -11.373900
H -7.663500 -48.385900 -15.108600
C -7.556800 -50.324000 -11.588200
H -7.352300 -50.754700 -10.743500
O -7.075500 -48.484700 -14.545600
C -7.016400 -46.818700 -10.388100
C -6.942900 -50.827200 -13.877100
C -6.832300 -48.196800 -10.524100
H -6.791500 -52.854100 -13.672800
H -6.761300 -52.396800 -15.171900
O -6.547100 -50.601300 -12.503100
H -6.530300 -49.991400 -15.686400
C -6.434500 -52.189200 -14.282700
C -6.419200 -49.730700 -14.759100
O -6.154000 -44.900300 -9.299200
C -6.133800 -46.118200 -9.498700
N -5.903600 -48.932900 -9.930600
H -5.469800 -49.619500 -14.594000
N -5.219700 -46.923300 -8.874700
C -5.070000 -48.279500 -9.079100
O -5.012000 -52.271400 -14.278500
H -4.730400 -52.172900 -15.042500
H -4.692800 -46.551700 -8.305400
O -4.149300 -48.865600 -8.486500
33
Fragment
H -9.366700 -57.074900 -8.449200
H -9.044300 -61.193600 -7.393600
N -9.014300 -58.829300 -7.810600
C -8.800300 -57.558200 -7.892200
H -8.532300 -55.038100 -7.793200
N -8.405300 -60.846900 -6.934400
C -8.182100 -59.559100 -6.992100
H -8.059000 -54.894900 -9.804800
H -7.912600 -61.346800 -6.437400
N -7.839500 -56.857700 -7.252600
H -7.800800 -57.338600 -10.987400
C -7.694100 -55.400500 -7.466900
H -7.489600 -54.969800 -6.622200
O -7.212800 -57.239800 -10.424300
C -7.153700 -58.905800 -6.266800
C -7.080200 -54.897300 -9.755900
C -6.969600 -57.527700 -6.402800
H -6.928800 -52.870400 -9.551500
H -6.898600 -53.327700 -11.050600
O -6.684400 -55.123200 -8.381800
H -6.667600 -55.733100 -11.565200
C -6.571800 -53.535300 -10.161400
C -6.556500 -55.993800 -10.637800
O -6.291300 -60.824200 -5.178000
C -6.271100 -59.606300 -5.377400
N -6.040900 -56.791600 -5.809300
H -5.607100 -56.105000 -10.472700
N -5.357000 -58.801200 -4.753500
C -5.207300 -57.445000 -4.957900
O -5.149300 -53.453100 -10.157300
H -4.867600 -53.551600 -10.921300
H -4.830100 -59.172800 -4.184200
O -4.286600 -56.858900 -4.365200
66
Fragment
H -9.229400 -48.649600 -12.570400
H -8.907000 -44.530900 -11.514900
N -8.877000 -46.895200 -11.931900
C -8.663100 -48.166300 -12.013500
H -8.395000 -50.686400 -11.914500
N -8.268000 -44.877600 -11.055700
C -8.044800 -46.165400 -11.113400
H -7.921700 -50.829600 -13.926100
H -7.775300 -44.377700 -10.558700
N -7.702200 -48.866800 -11.373900
H -7.663500 -48.385900 -15.108600
C -7.556800 -50.324000 -11.588200
H -7.352300 -50.754700 -10.743500
O -7.075500 -48.484700 -14.545600
C -7.016400 -46.818700 -10.388100
C -6.942900 -50.827200 -13.877100
C -6.832300 -48.196800 -10.524100
H -6.791500 -52.854100 -13.672800
H -6.761300 -52.396800 -15.171900
O -6.547100 -50.601300 -12.503100
H -6.530300 -49.991400 -15.686400
C -6.434500 -52.189200 -14.282700
C -6.419200 -49.730700 -14.759100
O -6.154000 -44.900300 -9.299200
C -6.133800 -46.118200 -9.498700
N -5.903600 -48.932900 -9.930600
H -5.469800 -49.619500 -14.594000
N -5.219700 -46.923300 -8.874700
C -5.070000 -48.279500 -9.079100
O -5.012000 -52.271400 -14.278500
H -4.730400 -52.172900 -15.042500
H -4.692800 -46.551700 -8.305400
O -4.149300 -48.865600 -8.486500
H -9.366700 -57.074900 -8.449200
H -9.044300 -61.193600 -7.393600
N -9.014300 -58.829300 -7.810600
C -8.800300 -57.558200 -7.892200
H -8.532300 -55.038100 -7.793200
N -8.405300 -60.846900 -6.934400
C -8.182100 -59.559100 -6.992100
H -8.059000 -54.894900 -9.804800
H -7.912600 -61.346800 -6.437400
N -7.839500 -56.857700 -7.252600
H -7.800800 -57.338600 -10.987400
C -7.694100 -55.400500 -7.466900
H -7.489600 -54.969800 -6.622200
O -7.212800 -57.239800 -10.424300
C -7.153700 -58.905800 -6.266800
C -7.080200 -54.897300 -9.755900
C -6.969600 -57.527700 -6.402800
H -6.928800 -52.870400 -9.551500
H -6.898600 -53.327700 -11.050600
O -6.684400 -55.123200 -8.381800
H -6.667600 -55.733100 -11.565200
C -6.571800 -53.535300 -10.161400
C -6.556500 -55.993800 -10.637800
O -6.291300 -60.824200 -5.178000
C -6.271100 -59.606300 -5.377400
N -6.040900 -56.791600 -5.809300
H -5.607100 -56.105000 -10.472700
N -5.357000 -58.801200 -4.753500
C -5.207300 -57.445000 -4.957900
O -5.149300 -53.453100 -10.157300
H -4.867600 -53.551600 -10.921300
H -4.830100 -59.172800 -4.184200
O -4.286600 -56.858900 -4.365200
