33
Fragment
H -9.229400 -48.649600 -12.570400
H -8.907000 -44.530900 -11.514900
N -8.877000 -46.895200 -11.931900
C -8.663100 -48.166300 -12.013500
H -8.395000 -50.686400 -11.914500
N -8.268000 -44.877600 -11.055700
C -8.044800 -46.165400 -11.113400
H -7.921700 -50.829600 -13.926100
H -7.775300 -44.377700 -10.558700
N -7.702200 -48.866800 -11.373900
H -7.663500 -48.385900 -15.108600
C -7.556800 -50.324000 -11.588200
H -7.352300 -50.754700 -10.743500
O -7.075500 -48.484700 -14.545600
C -7.016400 -46.818700 -10.388100
C -6.942900 -50.827200 -13.877100
C -6.832300 -48.196800 -10.524100
H -6.791500 -52.854100 -13.672800
H -6.761300 -52.396800 -15.171900
O -6.547100 -50.601300 -12.503100
H -6.530300 -49.991400 -15.686400
C -6.434500 -52.189200 -14.282700
C -6.419200 -49.730700 -14.759100
O -6.154000 -44.900300 -9.299200
C -6.133800 -46.118200 -9.498700
N -5.903600 -48.932900 -9.930600
H -5.469800 -49.619500 -14.594000
N -5.219700 -46.923300 -8.874700
C -5.070000 -48.279500 -9.079100
O -5.012000 -52.271400 -14.278500
H -4.730400 -52.172900 -15.042500
H -4.692800 -46.551700 -8.305400
O -4.149300 -48.865600 -8.486500
33
Fragment
O -10.388500 -41.755400 -7.998500
H -9.845100 -44.069300 -8.179600
H -9.807500 -38.448100 -1.442500
O -9.525800 -38.349600 -2.206500
C -9.467800 -42.341500 -7.405900
N -9.318200 -43.697700 -7.610300
H -9.068000 -41.001500 -1.891100
N -8.634200 -41.688100 -6.554500
C -8.404100 -44.502800 -6.986400
O -8.383800 -45.720700 -7.185800
C -8.118700 -40.890300 -1.726000
C -8.103300 -38.431800 -2.202400
H -8.007500 -40.629600 -0.798600
O -7.990700 -40.019700 -3.982000
H -7.776500 -38.224200 -1.313200
H -7.746300 -37.766900 -2.812300
C -7.705500 -42.424200 -5.961000
C -7.594900 -39.793800 -2.607900
C -7.521400 -43.802300 -6.097000
O -7.462300 -42.136300 -1.939500
H -7.185500 -39.866300 -5.741600
C -6.981100 -40.297000 -4.896900
H -6.874300 -42.235100 -1.376400
N -6.835600 -41.754200 -5.111200
H -6.762600 -46.243300 -5.926400
H -6.616100 -39.791400 -2.559000
C -6.493000 -44.455600 -5.371700
N -6.269800 -45.743400 -5.429400
H -6.142800 -39.934600 -4.570600
C -5.874800 -42.454700 -4.471600
N -5.660800 -43.725800 -4.553200
H -5.630800 -46.090100 -4.970200
H -5.308500 -41.971400 -3.914600
66
Fragment
H -9.229400 -48.649600 -12.570400
H -8.907000 -44.530900 -11.514900
N -8.877000 -46.895200 -11.931900
C -8.663100 -48.166300 -12.013500
H -8.395000 -50.686400 -11.914500
N -8.268000 -44.877600 -11.055700
C -8.044800 -46.165400 -11.113400
H -7.921700 -50.829600 -13.926100
H -7.775300 -44.377700 -10.558700
N -7.702200 -48.866800 -11.373900
H -7.663500 -48.385900 -15.108600
C -7.556800 -50.324000 -11.588200
H -7.352300 -50.754700 -10.743500
O -7.075500 -48.484700 -14.545600
C -7.016400 -46.818700 -10.388100
C -6.942900 -50.827200 -13.877100
C -6.832300 -48.196800 -10.524100
H -6.791500 -52.854100 -13.672800
H -6.761300 -52.396800 -15.171900
O -6.547100 -50.601300 -12.503100
H -6.530300 -49.991400 -15.686400
C -6.434500 -52.189200 -14.282700
C -6.419200 -49.730700 -14.759100
O -6.154000 -44.900300 -9.299200
C -6.133800 -46.118200 -9.498700
N -5.903600 -48.932900 -9.930600
H -5.469800 -49.619500 -14.594000
N -5.219700 -46.923300 -8.874700
C -5.070000 -48.279500 -9.079100
O -5.012000 -52.271400 -14.278500
H -4.730400 -52.172900 -15.042500
H -4.692800 -46.551700 -8.305400
O -4.149300 -48.865600 -8.486500
O -10.388500 -41.755400 -7.998500
H -9.845100 -44.069300 -8.179600
H -9.807500 -38.448100 -1.442500
O -9.525800 -38.349600 -2.206500
C -9.467800 -42.341500 -7.405900
N -9.318200 -43.697700 -7.610300
H -9.068000 -41.001500 -1.891100
N -8.634200 -41.688100 -6.554500
C -8.404100 -44.502800 -6.986400
O -8.383800 -45.720700 -7.185800
C -8.118700 -40.890300 -1.726000
C -8.103300 -38.431800 -2.202400
H -8.007500 -40.629600 -0.798600
O -7.990700 -40.019700 -3.982000
H -7.776500 -38.224200 -1.313200
H -7.746300 -37.766900 -2.812300
C -7.705500 -42.424200 -5.961000
C -7.594900 -39.793800 -2.607900
C -7.521400 -43.802300 -6.097000
O -7.462300 -42.136300 -1.939500
H -7.185500 -39.866300 -5.741600
C -6.981100 -40.297000 -4.896900
H -6.874300 -42.235100 -1.376400
N -6.835600 -41.754200 -5.111200
H -6.762600 -46.243300 -5.926400
H -6.616100 -39.791400 -2.559000
C -6.493000 -44.455600 -5.371700
N -6.269800 -45.743400 -5.429400
H -6.142800 -39.934600 -4.570600
C -5.874800 -42.454700 -4.471600
N -5.660800 -43.725800 -4.553200
H -5.630800 -46.090100 -4.970200
H -5.308500 -41.971400 -3.914600
