33
Fragment
H -9.229400 -48.649600 -12.570400
H -8.907000 -44.530900 -11.514900
N -8.877000 -46.895200 -11.931900
C -8.663100 -48.166300 -12.013500
H -8.395000 -50.686400 -11.914500
N -8.268000 -44.877600 -11.055700
C -8.044800 -46.165400 -11.113400
H -7.921700 -50.829600 -13.926100
H -7.775300 -44.377700 -10.558700
N -7.702200 -48.866800 -11.373900
H -7.663500 -48.385900 -15.108600
C -7.556800 -50.324000 -11.588200
H -7.352300 -50.754700 -10.743500
O -7.075500 -48.484700 -14.545600
C -7.016400 -46.818700 -10.388100
C -6.942900 -50.827200 -13.877100
C -6.832300 -48.196800 -10.524100
H -6.791500 -52.854100 -13.672800
H -6.761300 -52.396800 -15.171900
O -6.547100 -50.601300 -12.503100
H -6.530300 -49.991400 -15.686400
C -6.434500 -52.189200 -14.282700
C -6.419200 -49.730700 -14.759100
O -6.154000 -44.900300 -9.299200
C -6.133800 -46.118200 -9.498700
N -5.903600 -48.932900 -9.930600
H -5.469800 -49.619500 -14.594000
N -5.219700 -46.923300 -8.874700
C -5.070000 -48.279500 -9.079100
O -5.012000 -52.271400 -14.278500
H -4.730400 -52.172900 -15.042500
H -4.692800 -46.551700 -8.305400
O -4.149300 -48.865600 -8.486500
33
Fragment
H -8.954800 -48.649600 -20.813000
H -8.632400 -44.530900 -19.757400
N -8.602400 -46.895200 -20.174400
C -8.388500 -48.166300 -20.256000
H -8.120500 -50.686400 -20.157000
N -7.993400 -44.877600 -19.298200
C -7.770200 -46.165400 -19.355900
H -7.647100 -50.829600 -22.168600
H -7.500700 -44.377700 -18.801200
N -7.427600 -48.866800 -19.616400
H -7.388900 -48.385900 -23.351200
C -7.282200 -50.324000 -19.830700
H -7.077700 -50.754700 -18.986000
O -6.801000 -48.484700 -22.788100
C -6.741800 -46.818700 -18.630600
C -6.668300 -50.827200 -22.119600
C -6.557700 -48.196800 -18.766600
H -6.516900 -52.854100 -21.915300
H -6.486700 -52.396800 -23.414400
O -6.272600 -50.601300 -20.745600
H -6.255700 -49.991400 -23.929000
C -6.160000 -52.189200 -22.525200
C -6.144600 -49.730700 -23.001600
O -5.879400 -44.900300 -17.541700
C -5.859200 -46.118200 -17.741200
N -5.629000 -48.932900 -18.173100
H -5.195200 -49.619500 -22.836500
N -4.945100 -46.923300 -17.117300
C -4.795400 -48.279500 -17.321700
O -4.737400 -52.271400 -22.521100
H -4.455800 -52.172900 -23.285100
H -4.418200 -46.551700 -16.547900
O -3.874800 -48.865600 -16.729000
66
Fragment
H -9.229400 -48.649600 -12.570400
H -8.907000 -44.530900 -11.514900
N -8.877000 -46.895200 -11.931900
C -8.663100 -48.166300 -12.013500
H -8.395000 -50.686400 -11.914500
N -8.268000 -44.877600 -11.055700
C -8.044800 -46.165400 -11.113400
H -7.921700 -50.829600 -13.926100
H -7.775300 -44.377700 -10.558700
N -7.702200 -48.866800 -11.373900
H -7.663500 -48.385900 -15.108600
C -7.556800 -50.324000 -11.588200
H -7.352300 -50.754700 -10.743500
O -7.075500 -48.484700 -14.545600
C -7.016400 -46.818700 -10.388100
C -6.942900 -50.827200 -13.877100
C -6.832300 -48.196800 -10.524100
H -6.791500 -52.854100 -13.672800
H -6.761300 -52.396800 -15.171900
O -6.547100 -50.601300 -12.503100
H -6.530300 -49.991400 -15.686400
C -6.434500 -52.189200 -14.282700
C -6.419200 -49.730700 -14.759100
O -6.154000 -44.900300 -9.299200
C -6.133800 -46.118200 -9.498700
N -5.903600 -48.932900 -9.930600
H -5.469800 -49.619500 -14.594000
N -5.219700 -46.923300 -8.874700
C -5.070000 -48.279500 -9.079100
O -5.012000 -52.271400 -14.278500
H -4.730400 -52.172900 -15.042500
H -4.692800 -46.551700 -8.305400
O -4.149300 -48.865600 -8.486500
H -8.954800 -48.649600 -20.813000
H -8.632400 -44.530900 -19.757400
N -8.602400 -46.895200 -20.174400
C -8.388500 -48.166300 -20.256000
H -8.120500 -50.686400 -20.157000
N -7.993400 -44.877600 -19.298200
C -7.770200 -46.165400 -19.355900
H -7.647100 -50.829600 -22.168600
H -7.500700 -44.377700 -18.801200
N -7.427600 -48.866800 -19.616400
H -7.388900 -48.385900 -23.351200
C -7.282200 -50.324000 -19.830700
H -7.077700 -50.754700 -18.986000
O -6.801000 -48.484700 -22.788100
C -6.741800 -46.818700 -18.630600
C -6.668300 -50.827200 -22.119600
C -6.557700 -48.196800 -18.766600
H -6.516900 -52.854100 -21.915300
H -6.486700 -52.396800 -23.414400
O -6.272600 -50.601300 -20.745600
H -6.255700 -49.991400 -23.929000
C -6.160000 -52.189200 -22.525200
C -6.144600 -49.730700 -23.001600
O -5.879400 -44.900300 -17.541700
C -5.859200 -46.118200 -17.741200
N -5.629000 -48.932900 -18.173100
H -5.195200 -49.619500 -22.836500
N -4.945100 -46.923300 -17.117300
C -4.795400 -48.279500 -17.321700
O -4.737400 -52.271400 -22.521100
H -4.455800 -52.172900 -23.285100
H -4.418200 -46.551700 -16.547900
O -3.874800 -48.865600 -16.729000
