33
Fragment
H -9.229400 -48.649600 -12.570400
H -8.907000 -44.530900 -11.514900
N -8.877000 -46.895200 -11.931900
C -8.663100 -48.166300 -12.013500
H -8.395000 -50.686400 -11.914500
N -8.268000 -44.877600 -11.055700
C -8.044800 -46.165400 -11.113400
H -7.921700 -50.829600 -13.926100
H -7.775300 -44.377700 -10.558700
N -7.702200 -48.866800 -11.373900
H -7.663500 -48.385900 -15.108600
C -7.556800 -50.324000 -11.588200
H -7.352300 -50.754700 -10.743500
O -7.075500 -48.484700 -14.545600
C -7.016400 -46.818700 -10.388100
C -6.942900 -50.827200 -13.877100
C -6.832300 -48.196800 -10.524100
H -6.791500 -52.854100 -13.672800
H -6.761300 -52.396800 -15.171900
O -6.547100 -50.601300 -12.503100
H -6.530300 -49.991400 -15.686400
C -6.434500 -52.189200 -14.282700
C -6.419200 -49.730700 -14.759100
O -6.154000 -44.900300 -9.299200
C -6.133800 -46.118200 -9.498700
N -5.903600 -48.932900 -9.930600
H -5.469800 -49.619500 -14.594000
N -5.219700 -46.923300 -8.874700
C -5.070000 -48.279500 -9.079100
O -5.012000 -52.271400 -14.278500
H -4.730400 -52.172900 -15.042500
H -4.692800 -46.551700 -8.305400
O -4.149300 -48.865600 -8.486500
33
Fragment
H -9.092100 -57.074900 -16.691700
H -8.769700 -61.193600 -15.636200
N -8.739700 -58.829300 -16.053100
C -8.525800 -57.558200 -16.134700
H -8.257700 -55.038100 -16.035800
N -8.130700 -60.846900 -15.177000
C -7.907500 -59.559100 -15.234700
H -7.784400 -54.894900 -18.047300
H -7.638000 -61.346800 -14.679900
N -7.564900 -56.857700 -15.495100
H -7.526200 -57.338600 -19.229900
C -7.419500 -55.400500 -15.709400
H -7.215000 -54.969800 -14.864700
O -6.938200 -57.239800 -18.666900
C -6.879100 -58.905800 -14.509300
C -6.805600 -54.897300 -17.998400
C -6.695000 -57.527700 -14.645300
H -6.654200 -52.870400 -17.794100
H -6.624000 -53.327700 -19.293100
O -6.409800 -55.123200 -16.624400
H -6.393000 -55.733100 -19.807700
C -6.297300 -53.535300 -18.403900
C -6.281900 -55.993800 -18.880300
O -6.016700 -60.824200 -13.420500
C -5.996500 -59.606300 -13.620000
N -5.766300 -56.791600 -14.051900
H -5.332500 -56.105000 -18.715200
N -5.082400 -58.801200 -12.996000
C -4.932700 -57.445000 -13.200400
O -4.874700 -53.453100 -18.399800
H -4.593100 -53.551600 -19.163800
H -4.555500 -59.172800 -12.426700
O -4.012100 -56.858900 -12.607800
66
Fragment
H -9.229400 -48.649600 -12.570400
H -8.907000 -44.530900 -11.514900
N -8.877000 -46.895200 -11.931900
C -8.663100 -48.166300 -12.013500
H -8.395000 -50.686400 -11.914500
N -8.268000 -44.877600 -11.055700
C -8.044800 -46.165400 -11.113400
H -7.921700 -50.829600 -13.926100
H -7.775300 -44.377700 -10.558700
N -7.702200 -48.866800 -11.373900
H -7.663500 -48.385900 -15.108600
C -7.556800 -50.324000 -11.588200
H -7.352300 -50.754700 -10.743500
O -7.075500 -48.484700 -14.545600
C -7.016400 -46.818700 -10.388100
C -6.942900 -50.827200 -13.877100
C -6.832300 -48.196800 -10.524100
H -6.791500 -52.854100 -13.672800
H -6.761300 -52.396800 -15.171900
O -6.547100 -50.601300 -12.503100
H -6.530300 -49.991400 -15.686400
C -6.434500 -52.189200 -14.282700
C -6.419200 -49.730700 -14.759100
O -6.154000 -44.900300 -9.299200
C -6.133800 -46.118200 -9.498700
N -5.903600 -48.932900 -9.930600
H -5.469800 -49.619500 -14.594000
N -5.219700 -46.923300 -8.874700
C -5.070000 -48.279500 -9.079100
O -5.012000 -52.271400 -14.278500
H -4.730400 -52.172900 -15.042500
H -4.692800 -46.551700 -8.305400
O -4.149300 -48.865600 -8.486500
H -9.092100 -57.074900 -16.691700
H -8.769700 -61.193600 -15.636200
N -8.739700 -58.829300 -16.053100
C -8.525800 -57.558200 -16.134700
H -8.257700 -55.038100 -16.035800
N -8.130700 -60.846900 -15.177000
C -7.907500 -59.559100 -15.234700
H -7.784400 -54.894900 -18.047300
H -7.638000 -61.346800 -14.679900
N -7.564900 -56.857700 -15.495100
H -7.526200 -57.338600 -19.229900
C -7.419500 -55.400500 -15.709400
H -7.215000 -54.969800 -14.864700
O -6.938200 -57.239800 -18.666900
C -6.879100 -58.905800 -14.509300
C -6.805600 -54.897300 -17.998400
C -6.695000 -57.527700 -14.645300
H -6.654200 -52.870400 -17.794100
H -6.624000 -53.327700 -19.293100
O -6.409800 -55.123200 -16.624400
H -6.393000 -55.733100 -19.807700
C -6.297300 -53.535300 -18.403900
C -6.281900 -55.993800 -18.880300
O -6.016700 -60.824200 -13.420500
C -5.996500 -59.606300 -13.620000
N -5.766300 -56.791600 -14.051900
H -5.332500 -56.105000 -18.715200
N -5.082400 -58.801200 -12.996000
C -4.932700 -57.445000 -13.200400
O -4.874700 -53.453100 -18.399800
H -4.593100 -53.551600 -19.163800
H -4.555500 -59.172800 -12.426700
O -4.012100 -56.858900 -12.607800
