33
Fragment
H -9.229400 -48.649600 -12.570400
H -8.907000 -44.530900 -11.514900
N -8.877000 -46.895200 -11.931900
C -8.663100 -48.166300 -12.013500
H -8.395000 -50.686400 -11.914500
N -8.268000 -44.877600 -11.055700
C -8.044800 -46.165400 -11.113400
H -7.921700 -50.829600 -13.926100
H -7.775300 -44.377700 -10.558700
N -7.702200 -48.866800 -11.373900
H -7.663500 -48.385900 -15.108600
C -7.556800 -50.324000 -11.588200
H -7.352300 -50.754700 -10.743500
O -7.075500 -48.484700 -14.545600
C -7.016400 -46.818700 -10.388100
C -6.942900 -50.827200 -13.877100
C -6.832300 -48.196800 -10.524100
H -6.791500 -52.854100 -13.672800
H -6.761300 -52.396800 -15.171900
O -6.547100 -50.601300 -12.503100
H -6.530300 -49.991400 -15.686400
C -6.434500 -52.189200 -14.282700
C -6.419200 -49.730700 -14.759100
O -6.154000 -44.900300 -9.299200
C -6.133800 -46.118200 -9.498700
N -5.903600 -48.932900 -9.930600
H -5.469800 -49.619500 -14.594000
N -5.219700 -46.923300 -8.874700
C -5.070000 -48.279500 -9.079100
O -5.012000 -52.271400 -14.278500
H -4.730400 -52.172900 -15.042500
H -4.692800 -46.551700 -8.305400
O -4.149300 -48.865600 -8.486500
3
Fragment
H -4.353100 -53.595400 -13.147700
H -4.131100 -54.868600 -12.777500
O -4.025600 -54.065100 -12.519600
36
Fragment
H -9.229400 -48.649600 -12.570400
H -8.907000 -44.530900 -11.514900
N -8.877000 -46.895200 -11.931900
C -8.663100 -48.166300 -12.013500
H -8.395000 -50.686400 -11.914500
N -8.268000 -44.877600 -11.055700
C -8.044800 -46.165400 -11.113400
H -7.921700 -50.829600 -13.926100
H -7.775300 -44.377700 -10.558700
N -7.702200 -48.866800 -11.373900
H -7.663500 -48.385900 -15.108600
C -7.556800 -50.324000 -11.588200
H -7.352300 -50.754700 -10.743500
O -7.075500 -48.484700 -14.545600
C -7.016400 -46.818700 -10.388100
C -6.942900 -50.827200 -13.877100
C -6.832300 -48.196800 -10.524100
H -6.791500 -52.854100 -13.672800
H -6.761300 -52.396800 -15.171900
O -6.547100 -50.601300 -12.503100
H -6.530300 -49.991400 -15.686400
C -6.434500 -52.189200 -14.282700
C -6.419200 -49.730700 -14.759100
O -6.154000 -44.900300 -9.299200
C -6.133800 -46.118200 -9.498700
N -5.903600 -48.932900 -9.930600
H -5.469800 -49.619500 -14.594000
N -5.219700 -46.923300 -8.874700
C -5.070000 -48.279500 -9.079100
O -5.012000 -52.271400 -14.278500
H -4.730400 -52.172900 -15.042500
H -4.692800 -46.551700 -8.305400
O -4.149300 -48.865600 -8.486500
H -4.353100 -53.595400 -13.147700
H -4.131100 -54.868600 -12.777500
O -4.025600 -54.065100 -12.519600
