42
Fragment
H -15.192800 -22.554800 -9.265200
H -14.948200 -26.137700 -17.050800
H -14.752700 -27.051400 -15.752000
C -14.334500 -26.740300 -16.581200
C -14.305200 -22.406700 -8.876400
H -14.237900 -22.887400 -8.025400
H -14.171700 -21.448700 -8.723000
H -14.131800 -27.509500 -17.153400
H -14.042700 -19.385700 -13.268800
H -14.017600 -19.257000 -15.580300
C -13.920000 -20.173900 -13.785600
C -13.917300 -20.101700 -15.158900
O -13.868400 -20.378100 -10.974500
C -13.770900 -21.236800 -15.940900
H -13.765300 -21.158700 -16.888200
C -13.742400 -21.408900 -13.148900
O -13.688100 -23.534600 -17.473200
C -13.683800 -21.526300 -11.717500
C -13.631800 -22.489700 -15.351500
C -13.590800 -22.581100 -13.932700
C -13.508900 -23.699500 -16.136200
C -13.486200 -22.723700 -11.111700
C -13.404300 -23.842200 -13.315100
C -13.363300 -23.933500 -11.896400
C -13.311300 -24.896900 -15.530400
O -13.307000 -22.888600 -9.774700
C -13.252700 -25.014300 -14.099000
H -13.229800 -25.264500 -10.359600
C -13.224200 -25.186400 -11.307000
O -13.126700 -26.045100 -16.273300
C -13.077800 -26.321500 -12.089000
C -13.075100 -26.249300 -13.462300
H -12.977500 -27.166300 -11.667500
H -12.952400 -27.037500 -13.979100
H -12.863300 -18.913700 -10.094400
H -12.823400 -24.974600 -18.524900
H -12.757200 -23.535800 -19.222500
C -12.689900 -24.016500 -18.371400
C -12.660600 -19.682900 -10.666600
H -12.242400 -19.371800 -11.495900
H -12.046900 -20.285500 -10.197100
H -11.802300 -23.868400 -17.982700
20
Fragment
N -16.308300 -8.015800 -14.981800
C -16.160700 -9.132500 -15.176200
F -16.031200 -10.056800 -12.741300
C -15.976500 -10.521100 -15.519500
C -15.925300 -11.310700 -13.177100
F -15.902400 -11.984800 -10.991500
C -15.880000 -11.533900 -14.603000
C -15.860100 -12.295600 -12.289700
C -15.857800 -10.732100 -16.934600
N -15.845400 -14.381300 -9.185300
N -15.752400 -10.837900 -18.062600
C -15.740100 -14.487100 -10.313300
C -15.737700 -12.923500 -14.958200
C -15.717900 -13.685200 -12.644800
F -15.695500 -13.234300 -16.256400
C -15.672600 -13.908400 -14.070800
C -15.621300 -14.698000 -11.728400
F -15.566700 -15.162300 -14.506600
C -15.437100 -16.086600 -12.071700
N -15.289500 -17.203400 -12.266100
62
Fragment
H -15.192800 -22.554800 -9.265200
H -14.948200 -26.137700 -17.050800
H -14.752700 -27.051400 -15.752000
C -14.334500 -26.740300 -16.581200
C -14.305200 -22.406700 -8.876400
H -14.237900 -22.887400 -8.025400
H -14.171700 -21.448700 -8.723000
H -14.131800 -27.509500 -17.153400
H -14.042700 -19.385700 -13.268800
H -14.017600 -19.257000 -15.580300
C -13.920000 -20.173900 -13.785600
C -13.917300 -20.101700 -15.158900
O -13.868400 -20.378100 -10.974500
C -13.770900 -21.236800 -15.940900
H -13.765300 -21.158700 -16.888200
C -13.742400 -21.408900 -13.148900
O -13.688100 -23.534600 -17.473200
C -13.683800 -21.526300 -11.717500
C -13.631800 -22.489700 -15.351500
C -13.590800 -22.581100 -13.932700
C -13.508900 -23.699500 -16.136200
C -13.486200 -22.723700 -11.111700
C -13.404300 -23.842200 -13.315100
C -13.363300 -23.933500 -11.896400
C -13.311300 -24.896900 -15.530400
O -13.307000 -22.888600 -9.774700
C -13.252700 -25.014300 -14.099000
H -13.229800 -25.264500 -10.359600
C -13.224200 -25.186400 -11.307000
O -13.126700 -26.045100 -16.273300
C -13.077800 -26.321500 -12.089000
C -13.075100 -26.249300 -13.462300
H -12.977500 -27.166300 -11.667500
H -12.952400 -27.037500 -13.979100
H -12.863300 -18.913700 -10.094400
H -12.823400 -24.974600 -18.524900
H -12.757200 -23.535800 -19.222500
C -12.689900 -24.016500 -18.371400
C -12.660600 -19.682900 -10.666600
H -12.242400 -19.371800 -11.495900
H -12.046900 -20.285500 -10.197100
H -11.802300 -23.868400 -17.982700
N -16.308300 -8.015800 -14.981800
C -16.160700 -9.132500 -15.176200
F -16.031200 -10.056800 -12.741300
C -15.976500 -10.521100 -15.519500
C -15.925300 -11.310700 -13.177100
F -15.902400 -11.984800 -10.991500
C -15.880000 -11.533900 -14.603000
C -15.860100 -12.295600 -12.289700
C -15.857800 -10.732100 -16.934600
N -15.845400 -14.381300 -9.185300
N -15.752400 -10.837900 -18.062600
C -15.740100 -14.487100 -10.313300
C -15.737700 -12.923500 -14.958200
C -15.717900 -13.685200 -12.644800
F -15.695500 -13.234300 -16.256400
C -15.672600 -13.908400 -14.070800
C -15.621300 -14.698000 -11.728400
F -15.566700 -15.162300 -14.506600
C -15.437100 -16.086600 -12.071700
N -15.289500 -17.203400 -12.266100
