18
Fragment
H -14.475200 -19.388300 -25.449100
H -13.697700 -18.045000 -25.668200
C -13.626000 -18.950800 -25.356900
H -13.561600 -20.186700 -22.443000
H -13.322600 -20.929200 -23.803100
N -13.229800 -18.952000 -23.962300
C -13.040500 -20.197700 -23.249000
N -13.016100 -17.789000 -23.416400
H -12.967100 -19.416100 -25.876600
N -12.653600 -17.823200 -22.188400
N -12.608700 -15.359600 -22.365200
C -12.412600 -16.532500 -21.705100
H -12.226500 -13.550700 -21.614600
C -12.216300 -14.470200 -21.476100
H -12.112000 -20.302600 -23.028100
N -11.930200 -16.402700 -20.477800
N -11.805800 -15.048700 -20.363800
H -11.505300 -14.624200 -19.574500
3
Fragment
O -14.570500 -23.500400 -25.003600
H -14.332900 -23.777300 -24.262700
H -13.885300 -23.185700 -25.331500
21
Fragment
H -14.475200 -19.388300 -25.449100
H -13.697700 -18.045000 -25.668200
C -13.626000 -18.950800 -25.356900
H -13.561600 -20.186700 -22.443000
H -13.322600 -20.929200 -23.803100
N -13.229800 -18.952000 -23.962300
C -13.040500 -20.197700 -23.249000
N -13.016100 -17.789000 -23.416400
H -12.967100 -19.416100 -25.876600
N -12.653600 -17.823200 -22.188400
N -12.608700 -15.359600 -22.365200
C -12.412600 -16.532500 -21.705100
H -12.226500 -13.550700 -21.614600
C -12.216300 -14.470200 -21.476100
H -12.112000 -20.302600 -23.028100
N -11.930200 -16.402700 -20.477800
N -11.805800 -15.048700 -20.363800
H -11.505300 -14.624200 -19.574500
O -14.570500 -23.500400 -25.003600
H -14.332900 -23.777300 -24.262700
H -13.885300 -23.185700 -25.331500
