18
Fragment
H -14.475200 -19.388300 -25.449100
H -13.697700 -18.045000 -25.668200
C -13.626000 -18.950800 -25.356900
H -13.561600 -20.186700 -22.443000
H -13.322600 -20.929200 -23.803100
N -13.229800 -18.952000 -23.962300
C -13.040500 -20.197700 -23.249000
N -13.016100 -17.789000 -23.416400
H -12.967100 -19.416100 -25.876600
N -12.653600 -17.823200 -22.188400
N -12.608700 -15.359600 -22.365200
C -12.412600 -16.532500 -21.705100
H -12.226500 -13.550700 -21.614600
C -12.216300 -14.470200 -21.476100
H -12.112000 -20.302600 -23.028100
N -11.930200 -16.402700 -20.477800
N -11.805800 -15.048700 -20.363800
H -11.505300 -14.624200 -19.574500
18
Fragment
H -17.765400 -16.483200 -25.156500
H -17.170000 -17.889600 -25.509200
C -16.973600 -17.025300 -25.139500
H -16.680000 -15.937500 -22.234500
H -16.573000 -22.741800 -21.523800
N -16.552000 -20.893700 -22.281200
N -16.528400 -18.383600 -23.281100
N -16.522300 -17.177800 -23.773300
C -16.397600 -21.840700 -21.374000
H -16.285500 -16.603900 -25.658800
H -16.209400 -15.232200 -23.553200
C -16.176800 -19.777700 -21.589500
N -16.152500 -18.459300 -22.059000
C -16.121000 -16.019100 -23.010100
N -15.965300 -21.352700 -20.233900
H -15.819000 -21.785600 -19.414100
N -15.806400 -20.004800 -20.344400
H -15.205700 -16.117400 -22.736900
36
Fragment
H -14.475200 -19.388300 -25.449100
H -13.697700 -18.045000 -25.668200
C -13.626000 -18.950800 -25.356900
H -13.561600 -20.186700 -22.443000
H -13.322600 -20.929200 -23.803100
N -13.229800 -18.952000 -23.962300
C -13.040500 -20.197700 -23.249000
N -13.016100 -17.789000 -23.416400
H -12.967100 -19.416100 -25.876600
N -12.653600 -17.823200 -22.188400
N -12.608700 -15.359600 -22.365200
C -12.412600 -16.532500 -21.705100
H -12.226500 -13.550700 -21.614600
C -12.216300 -14.470200 -21.476100
H -12.112000 -20.302600 -23.028100
N -11.930200 -16.402700 -20.477800
N -11.805800 -15.048700 -20.363800
H -11.505300 -14.624200 -19.574500
H -17.765400 -16.483200 -25.156500
H -17.170000 -17.889600 -25.509200
C -16.973600 -17.025300 -25.139500
H -16.680000 -15.937500 -22.234500
H -16.573000 -22.741800 -21.523800
N -16.552000 -20.893700 -22.281200
N -16.528400 -18.383600 -23.281100
N -16.522300 -17.177800 -23.773300
C -16.397600 -21.840700 -21.374000
H -16.285500 -16.603900 -25.658800
H -16.209400 -15.232200 -23.553200
C -16.176800 -19.777700 -21.589500
N -16.152500 -18.459300 -22.059000
C -16.121000 -16.019100 -23.010100
N -15.965300 -21.352700 -20.233900
H -15.819000 -21.785600 -19.414100
N -15.806400 -20.004800 -20.344400
H -15.205700 -16.117400 -22.736900
