18
Fragment
H -14.475200 -19.388300 -25.449100
H -13.697700 -18.045000 -25.668200
C -13.626000 -18.950800 -25.356900
H -13.561600 -20.186700 -22.443000
H -13.322600 -20.929200 -23.803100
N -13.229800 -18.952000 -23.962300
C -13.040500 -20.197700 -23.249000
N -13.016100 -17.789000 -23.416400
H -12.967100 -19.416100 -25.876600
N -12.653600 -17.823200 -22.188400
N -12.608700 -15.359600 -22.365200
C -12.412600 -16.532500 -21.705100
H -12.226500 -13.550700 -21.614600
C -12.216300 -14.470200 -21.476100
H -12.112000 -20.302600 -23.028100
N -11.930200 -16.402700 -20.477800
N -11.805800 -15.048700 -20.363800
H -11.505300 -14.624200 -19.574500
18
Fragment
H -15.571200 -17.323800 -20.507000
N -15.270800 -16.899300 -19.717700
N -15.146400 -15.545300 -19.603700
H -14.964600 -11.645400 -17.053300
C -14.860200 -17.477800 -18.605400
H -14.850100 -18.397300 -18.466900
C -14.663900 -15.415500 -18.376400
N -14.467900 -16.588400 -17.716300
N -14.422900 -14.124800 -17.893000
H -14.109400 -12.531900 -14.204900
N -14.060400 -14.158900 -16.665100
C -14.036000 -11.750300 -16.832500
N -13.846700 -12.996000 -16.119200
H -13.753900 -11.018800 -16.278400
H -13.514900 -11.761300 -17.638500
C -13.450600 -12.997200 -14.724600
H -13.378800 -13.903000 -14.413300
H -12.601400 -12.559700 -14.632400
36
Fragment
H -14.475200 -19.388300 -25.449100
H -13.697700 -18.045000 -25.668200
C -13.626000 -18.950800 -25.356900
H -13.561600 -20.186700 -22.443000
H -13.322600 -20.929200 -23.803100
N -13.229800 -18.952000 -23.962300
C -13.040500 -20.197700 -23.249000
N -13.016100 -17.789000 -23.416400
H -12.967100 -19.416100 -25.876600
N -12.653600 -17.823200 -22.188400
N -12.608700 -15.359600 -22.365200
C -12.412600 -16.532500 -21.705100
H -12.226500 -13.550700 -21.614600
C -12.216300 -14.470200 -21.476100
H -12.112000 -20.302600 -23.028100
N -11.930200 -16.402700 -20.477800
N -11.805800 -15.048700 -20.363800
H -11.505300 -14.624200 -19.574500
H -15.571200 -17.323800 -20.507000
N -15.270800 -16.899300 -19.717700
N -15.146400 -15.545300 -19.603700
H -14.964600 -11.645400 -17.053300
C -14.860200 -17.477800 -18.605400
H -14.850100 -18.397300 -18.466900
C -14.663900 -15.415500 -18.376400
N -14.467900 -16.588400 -17.716300
N -14.422900 -14.124800 -17.893000
H -14.109400 -12.531900 -14.204900
N -14.060400 -14.158900 -16.665100
C -14.036000 -11.750300 -16.832500
N -13.846700 -12.996000 -16.119200
H -13.753900 -11.018800 -16.278400
H -13.514900 -11.761300 -17.638500
C -13.450600 -12.997200 -14.724600
H -13.378800 -13.903000 -14.413300
H -12.601400 -12.559700 -14.632400
