18
Fragment
H -14.475200 -19.388300 -25.449100
H -13.697700 -18.045000 -25.668200
C -13.626000 -18.950800 -25.356900
H -13.561600 -20.186700 -22.443000
H -13.322600 -20.929200 -23.803100
N -13.229800 -18.952000 -23.962300
C -13.040500 -20.197700 -23.249000
N -13.016100 -17.789000 -23.416400
H -12.967100 -19.416100 -25.876600
N -12.653600 -17.823200 -22.188400
N -12.608700 -15.359600 -22.365200
C -12.412600 -16.532500 -21.705100
H -12.226500 -13.550700 -21.614600
C -12.216300 -14.470200 -21.476100
H -12.112000 -20.302600 -23.028100
N -11.930200 -16.402700 -20.477800
N -11.805800 -15.048700 -20.363800
H -11.505300 -14.624200 -19.574500
18
Fragment
H -13.409200 -10.422400 -25.449100
H -12.631800 -9.079100 -25.668200
C -12.560000 -9.984900 -25.356900
H -12.495700 -11.220800 -22.443000
H -12.256700 -11.963300 -23.803100
N -12.163900 -9.986200 -23.962300
C -11.974600 -11.231800 -23.249000
N -11.950200 -8.823200 -23.416400
H -11.901200 -10.450300 -25.876600
N -11.587600 -8.857400 -22.188400
N -11.542700 -6.393800 -22.365200
C -11.346700 -7.566600 -21.705100
H -11.160500 -4.584800 -21.614600
C -11.150300 -5.504300 -21.476100
H -11.046000 -11.336700 -23.028100
N -10.864200 -7.436800 -20.477800
N -10.739800 -6.082900 -20.363800
H -10.439400 -5.658300 -19.574500
36
Fragment
H -14.475200 -19.388300 -25.449100
H -13.697700 -18.045000 -25.668200
C -13.626000 -18.950800 -25.356900
H -13.561600 -20.186700 -22.443000
H -13.322600 -20.929200 -23.803100
N -13.229800 -18.952000 -23.962300
C -13.040500 -20.197700 -23.249000
N -13.016100 -17.789000 -23.416400
H -12.967100 -19.416100 -25.876600
N -12.653600 -17.823200 -22.188400
N -12.608700 -15.359600 -22.365200
C -12.412600 -16.532500 -21.705100
H -12.226500 -13.550700 -21.614600
C -12.216300 -14.470200 -21.476100
H -12.112000 -20.302600 -23.028100
N -11.930200 -16.402700 -20.477800
N -11.805800 -15.048700 -20.363800
H -11.505300 -14.624200 -19.574500
H -13.409200 -10.422400 -25.449100
H -12.631800 -9.079100 -25.668200
C -12.560000 -9.984900 -25.356900
H -12.495700 -11.220800 -22.443000
H -12.256700 -11.963300 -23.803100
N -12.163900 -9.986200 -23.962300
C -11.974600 -11.231800 -23.249000
N -11.950200 -8.823200 -23.416400
H -11.901200 -10.450300 -25.876600
N -11.587600 -8.857400 -22.188400
N -11.542700 -6.393800 -22.365200
C -11.346700 -7.566600 -21.705100
H -11.160500 -4.584800 -21.614600
C -11.150300 -5.504300 -21.476100
H -11.046000 -11.336700 -23.028100
N -10.864200 -7.436800 -20.477800
N -10.739800 -6.082900 -20.363800
H -10.439400 -5.658300 -19.574500
