22
Fragment
H -36.827200 -9.884600 -12.432000
H -36.647400 -9.039800 -9.799600
H -36.214600 -10.860100 -14.972100
N -35.975200 -10.066200 -12.305600
C -35.748200 -9.328000 -9.905100
C -35.356800 -10.957100 -14.574100
C -35.277000 -9.868600 -11.124900
C -35.117400 -10.596000 -13.255800
H -35.088700 -8.902700 -8.019600
C -34.820600 -9.241900 -8.865700
H -34.405700 -11.697700 -16.190900
C -34.277000 -11.467300 -15.277900
C -33.945400 -10.278300 -11.287600
C -33.830700 -10.745800 -12.663600
C -33.484100 -9.656600 -9.064700
C -33.047700 -10.161000 -10.235200
C -33.045200 -11.655500 -14.733100
H -32.868600 -9.576300 -8.344800
C -32.798300 -11.291500 -13.425000
H -32.349700 -12.039200 -15.255500
H -32.143800 -10.431100 -10.338700
H -31.935500 -11.412200 -13.046600
22
Fragment
H -36.827200 -9.884600 -3.134900
H -36.647400 -9.039800 -0.502500
H -36.214600 -10.860100 -5.675000
N -35.975200 -10.066200 -3.008500
C -35.748200 -9.328000 -0.608000
C -35.356800 -10.957100 -5.277000
C -35.277000 -9.868600 -1.827800
C -35.117400 -10.596000 -3.958700
H -35.088700 -8.902700 1.277500
C -34.820600 -9.241900 0.431400
H -34.405700 -11.697700 -6.893800
C -34.277000 -11.467300 -5.980800
C -33.945400 -10.278300 -1.990500
C -33.830700 -10.745800 -3.366500
C -33.484100 -9.656600 0.232400
C -33.047700 -10.161000 -0.938100
C -33.045200 -11.655500 -5.436000
H -32.868600 -9.576300 0.952300
C -32.798300 -11.291500 -4.127900
H -32.349700 -12.039200 -5.958400
H -32.143800 -10.431100 -1.041600
H -31.935500 -11.412200 -3.749500
44
Fragment
H -36.827200 -9.884600 -12.432000
H -36.647400 -9.039800 -9.799600
H -36.214600 -10.860100 -14.972100
N -35.975200 -10.066200 -12.305600
C -35.748200 -9.328000 -9.905100
C -35.356800 -10.957100 -14.574100
C -35.277000 -9.868600 -11.124900
C -35.117400 -10.596000 -13.255800
H -35.088700 -8.902700 -8.019600
C -34.820600 -9.241900 -8.865700
H -34.405700 -11.697700 -16.190900
C -34.277000 -11.467300 -15.277900
C -33.945400 -10.278300 -11.287600
C -33.830700 -10.745800 -12.663600
C -33.484100 -9.656600 -9.064700
C -33.047700 -10.161000 -10.235200
C -33.045200 -11.655500 -14.733100
H -32.868600 -9.576300 -8.344800
C -32.798300 -11.291500 -13.425000
H -32.349700 -12.039200 -15.255500
H -32.143800 -10.431100 -10.338700
H -31.935500 -11.412200 -13.046600
H -36.827200 -9.884600 -3.134900
H -36.647400 -9.039800 -0.502500
H -36.214600 -10.860100 -5.675000
N -35.975200 -10.066200 -3.008500
C -35.748200 -9.328000 -0.608000
C -35.356800 -10.957100 -5.277000
C -35.277000 -9.868600 -1.827800
C -35.117400 -10.596000 -3.958700
H -35.088700 -8.902700 1.277500
C -34.820600 -9.241900 0.431400
H -34.405700 -11.697700 -6.893800
C -34.277000 -11.467300 -5.980800
C -33.945400 -10.278300 -1.990500
C -33.830700 -10.745800 -3.366500
C -33.484100 -9.656600 0.232400
C -33.047700 -10.161000 -0.938100
C -33.045200 -11.655500 -5.436000
H -32.868600 -9.576300 0.952300
C -32.798300 -11.291500 -4.127900
H -32.349700 -12.039200 -5.958400
H -32.143800 -10.431100 -1.041600
H -31.935500 -11.412200 -3.749500
