22
Fragment
H -36.827200 -9.884600 -12.432000
H -36.647400 -9.039800 -9.799600
H -36.214600 -10.860100 -14.972100
N -35.975200 -10.066200 -12.305600
C -35.748200 -9.328000 -9.905100
C -35.356800 -10.957100 -14.574100
C -35.277000 -9.868600 -11.124900
C -35.117400 -10.596000 -13.255800
H -35.088700 -8.902700 -8.019600
C -34.820600 -9.241900 -8.865700
H -34.405700 -11.697700 -16.190900
C -34.277000 -11.467300 -15.277900
C -33.945400 -10.278300 -11.287600
C -33.830700 -10.745800 -12.663600
C -33.484100 -9.656600 -9.064700
C -33.047700 -10.161000 -10.235200
C -33.045200 -11.655500 -14.733100
H -32.868600 -9.576300 -8.344800
C -32.798300 -11.291500 -13.425000
H -32.349700 -12.039200 -15.255500
H -32.143800 -10.431100 -10.338700
H -31.935500 -11.412200 -13.046600
16
Fragment
H -36.546000 -13.548600 -12.158700
N -36.232000 -14.709600 -15.369000
N -36.219500 -12.605800 -8.841500
C -35.643500 -14.512800 -14.412400
C -35.638500 -13.019700 -9.759200
C -35.621100 -13.755000 -12.090900
C -34.940300 -14.267400 -13.178600
C -34.932800 -13.543000 -10.886000
C -33.566300 -14.601800 -13.067100
C -33.561400 -13.862100 -10.799500
C -32.888100 -14.380300 -11.897500
C -32.870600 -15.113400 -14.236600
C -32.865600 -13.593600 -9.555600
N -32.317100 -13.351200 -8.593300
N -32.304600 -15.497700 -15.165400
H -31.961500 -14.579800 -11.837800
38
Fragment
H -36.827200 -9.884600 -12.432000
H -36.647400 -9.039800 -9.799600
H -36.214600 -10.860100 -14.972100
N -35.975200 -10.066200 -12.305600
C -35.748200 -9.328000 -9.905100
C -35.356800 -10.957100 -14.574100
C -35.277000 -9.868600 -11.124900
C -35.117400 -10.596000 -13.255800
H -35.088700 -8.902700 -8.019600
C -34.820600 -9.241900 -8.865700
H -34.405700 -11.697700 -16.190900
C -34.277000 -11.467300 -15.277900
C -33.945400 -10.278300 -11.287600
C -33.830700 -10.745800 -12.663600
C -33.484100 -9.656600 -9.064700
C -33.047700 -10.161000 -10.235200
C -33.045200 -11.655500 -14.733100
H -32.868600 -9.576300 -8.344800
C -32.798300 -11.291500 -13.425000
H -32.349700 -12.039200 -15.255500
H -32.143800 -10.431100 -10.338700
H -31.935500 -11.412200 -13.046600
H -36.546000 -13.548600 -12.158700
N -36.232000 -14.709600 -15.369000
N -36.219500 -12.605800 -8.841500
C -35.643500 -14.512800 -14.412400
C -35.638500 -13.019700 -9.759200
C -35.621100 -13.755000 -12.090900
C -34.940300 -14.267400 -13.178600
C -34.932800 -13.543000 -10.886000
C -33.566300 -14.601800 -13.067100
C -33.561400 -13.862100 -10.799500
C -32.888100 -14.380300 -11.897500
C -32.870600 -15.113400 -14.236600
C -32.865600 -13.593600 -9.555600
N -32.317100 -13.351200 -8.593300
N -32.304600 -15.497700 -15.165400
H -31.961500 -14.579800 -11.837800
