22
Fragment
H -36.827200 -9.884600 -12.432000
H -36.647400 -9.039800 -9.799600
H -36.214600 -10.860100 -14.972100
N -35.975200 -10.066200 -12.305600
C -35.748200 -9.328000 -9.905100
C -35.356800 -10.957100 -14.574100
C -35.277000 -9.868600 -11.124900
C -35.117400 -10.596000 -13.255800
H -35.088700 -8.902700 -8.019600
C -34.820600 -9.241900 -8.865700
H -34.405700 -11.697700 -16.190900
C -34.277000 -11.467300 -15.277900
C -33.945400 -10.278300 -11.287600
C -33.830700 -10.745800 -12.663600
C -33.484100 -9.656600 -9.064700
C -33.047700 -10.161000 -10.235200
C -33.045200 -11.655500 -14.733100
H -32.868600 -9.576300 -8.344800
C -32.798300 -11.291500 -13.425000
H -32.349700 -12.039200 -15.255500
H -32.143800 -10.431100 -10.338700
H -31.935500 -11.412200 -13.046600
22
Fragment
H -30.404500 -11.412200 -8.398100
H -30.196200 -10.431100 -5.690100
H -29.990300 -12.039200 -10.607000
C -29.541700 -11.291500 -8.776500
H -29.471400 -9.576300 -3.696200
C -29.294800 -11.655500 -10.084600
C -29.292300 -10.161000 -5.586600
C -28.855900 -9.656600 -4.416100
C -28.509300 -10.745800 -8.015000
C -28.394600 -10.278300 -6.639100
C -28.063000 -11.467300 -10.629400
H -27.934300 -11.697700 -11.542300
C -27.519400 -9.241900 -4.217200
H -27.251300 -8.902700 -3.371000
C -27.222600 -10.596000 -8.607300
C -27.063000 -9.868600 -6.476400
C -26.983200 -10.957100 -9.925600
C -26.591800 -9.328000 -5.256600
N -26.364800 -10.066200 -7.657100
H -26.125400 -10.860100 -10.323600
H -25.692600 -9.039800 -5.151100
H -25.512800 -9.884600 -7.783400
44
Fragment
H -36.827200 -9.884600 -12.432000
H -36.647400 -9.039800 -9.799600
H -36.214600 -10.860100 -14.972100
N -35.975200 -10.066200 -12.305600
C -35.748200 -9.328000 -9.905100
C -35.356800 -10.957100 -14.574100
C -35.277000 -9.868600 -11.124900
C -35.117400 -10.596000 -13.255800
H -35.088700 -8.902700 -8.019600
C -34.820600 -9.241900 -8.865700
H -34.405700 -11.697700 -16.190900
C -34.277000 -11.467300 -15.277900
C -33.945400 -10.278300 -11.287600
C -33.830700 -10.745800 -12.663600
C -33.484100 -9.656600 -9.064700
C -33.047700 -10.161000 -10.235200
C -33.045200 -11.655500 -14.733100
H -32.868600 -9.576300 -8.344800
C -32.798300 -11.291500 -13.425000
H -32.349700 -12.039200 -15.255500
H -32.143800 -10.431100 -10.338700
H -31.935500 -11.412200 -13.046600
H -30.404500 -11.412200 -8.398100
H -30.196200 -10.431100 -5.690100
H -29.990300 -12.039200 -10.607000
C -29.541700 -11.291500 -8.776500
H -29.471400 -9.576300 -3.696200
C -29.294800 -11.655500 -10.084600
C -29.292300 -10.161000 -5.586600
C -28.855900 -9.656600 -4.416100
C -28.509300 -10.745800 -8.015000
C -28.394600 -10.278300 -6.639100
C -28.063000 -11.467300 -10.629400
H -27.934300 -11.697700 -11.542300
C -27.519400 -9.241900 -4.217200
H -27.251300 -8.902700 -3.371000
C -27.222600 -10.596000 -8.607300
C -27.063000 -9.868600 -6.476400
C -26.983200 -10.957100 -9.925600
C -26.591800 -9.328000 -5.256600
N -26.364800 -10.066200 -7.657100
H -26.125400 -10.860100 -10.323600
H -25.692600 -9.039800 -5.151100
H -25.512800 -9.884600 -7.783400
