14
Fragment
H -17.372500 -2.511400 -17.355900
C -16.535400 -2.912400 -17.400800
H -16.486400 -3.117800 -19.368300
H -16.181200 -2.893500 -15.423400
C -16.017800 -3.267800 -18.578800
C -15.798300 -3.152700 -16.229100
C -14.760400 -3.868000 -18.598800
N -14.621900 -3.708000 -16.179700
N -14.129700 -4.054800 -17.393200
N -14.001300 -4.321000 -19.583900
C -12.933100 -4.647700 -17.640700
C -12.877800 -4.791000 -18.976000
H -12.289900 -4.900300 -17.018600
H -12.158900 -5.166900 -19.430700
14
Fragment
H -20.478500 -3.301100 -11.110100
C -19.641400 -2.900100 -11.155000
H -19.592400 -2.694700 -13.122500
H -19.287300 -2.919000 -9.177600
C -19.123800 -2.544700 -12.333000
C -18.904300 -2.659800 -9.983300
C -17.866500 -1.944500 -12.353000
N -17.727900 -2.104500 -9.933800
N -17.235800 -1.757700 -11.147400
N -17.107300 -1.491500 -13.338100
C -16.039200 -1.164800 -11.394900
C -15.983800 -1.021400 -12.730200
H -15.395900 -0.912200 -10.772800
H -15.265000 -0.645600 -13.184900
28
Fragment
H -17.372500 -2.511400 -17.355900
C -16.535400 -2.912400 -17.400800
H -16.486400 -3.117800 -19.368300
H -16.181200 -2.893500 -15.423400
C -16.017800 -3.267800 -18.578800
C -15.798300 -3.152700 -16.229100
C -14.760400 -3.868000 -18.598800
N -14.621900 -3.708000 -16.179700
N -14.129700 -4.054800 -17.393200
N -14.001300 -4.321000 -19.583900
C -12.933100 -4.647700 -17.640700
C -12.877800 -4.791000 -18.976000
H -12.289900 -4.900300 -17.018600
H -12.158900 -5.166900 -19.430700
H -20.478500 -3.301100 -11.110100
C -19.641400 -2.900100 -11.155000
H -19.592400 -2.694700 -13.122500
H -19.287300 -2.919000 -9.177600
C -19.123800 -2.544700 -12.333000
C -18.904300 -2.659800 -9.983300
C -17.866500 -1.944500 -12.353000
N -17.727900 -2.104500 -9.933800
N -17.235800 -1.757700 -11.147400
N -17.107300 -1.491500 -13.338100
C -16.039200 -1.164800 -11.394900
C -15.983800 -1.021400 -12.730200
H -15.395900 -0.912200 -10.772800
H -15.265000 -0.645600 -13.184900
