14
Fragment
H -17.372500 -2.511400 -17.355900
C -16.535400 -2.912400 -17.400800
H -16.486400 -3.117800 -19.368300
H -16.181200 -2.893500 -15.423400
C -16.017800 -3.267800 -18.578800
C -15.798300 -3.152700 -16.229100
C -14.760400 -3.868000 -18.598800
N -14.621900 -3.708000 -16.179700
N -14.129700 -4.054800 -17.393200
N -14.001300 -4.321000 -19.583900
C -12.933100 -4.647700 -17.640700
C -12.877800 -4.791000 -18.976000
H -12.289900 -4.900300 -17.018600
H -12.158900 -5.166900 -19.430700
3
Fragment
H -21.082500 -3.061300 -16.251600
O -20.356800 -3.038400 -15.589600
H -19.777600 -2.278500 -15.914300
17
Fragment
H -17.372500 -2.511400 -17.355900
C -16.535400 -2.912400 -17.400800
H -16.486400 -3.117800 -19.368300
H -16.181200 -2.893500 -15.423400
C -16.017800 -3.267800 -18.578800
C -15.798300 -3.152700 -16.229100
C -14.760400 -3.868000 -18.598800
N -14.621900 -3.708000 -16.179700
N -14.129700 -4.054800 -17.393200
N -14.001300 -4.321000 -19.583900
C -12.933100 -4.647700 -17.640700
C -12.877800 -4.791000 -18.976000
H -12.289900 -4.900300 -17.018600
H -12.158900 -5.166900 -19.430700
H -21.082500 -3.061300 -16.251600
O -20.356800 -3.038400 -15.589600
H -19.777600 -2.278500 -15.914300
