14
Fragment
H -17.372500 -2.511400 -17.355900
C -16.535400 -2.912400 -17.400800
H -16.486400 -3.117800 -19.368300
H -16.181200 -2.893500 -15.423400
C -16.017800 -3.267800 -18.578800
C -15.798300 -3.152700 -16.229100
C -14.760400 -3.868000 -18.598800
N -14.621900 -3.708000 -16.179700
N -14.129700 -4.054800 -17.393200
N -14.001300 -4.321000 -19.583900
C -12.933100 -4.647700 -17.640700
C -12.877800 -4.791000 -18.976000
H -12.289900 -4.900300 -17.018600
H -12.158900 -5.166900 -19.430700
14
Fragment
H -14.266500 -3.301100 -23.601700
C -13.429300 -2.900100 -23.646700
H -13.380400 -2.694700 -25.614100
H -13.075200 -2.919000 -21.669200
C -12.911800 -2.544700 -24.824600
C -12.692300 -2.659800 -22.474900
C -11.654400 -1.944500 -24.844600
N -11.515900 -2.104500 -22.425500
N -11.023700 -1.757700 -23.639000
N -10.895300 -1.491500 -25.829700
C -9.827100 -1.164800 -23.886500
C -9.771700 -1.021400 -25.221900
H -9.183800 -0.912200 -23.264400
H -9.052900 -0.645600 -25.676600
28
Fragment
H -17.372500 -2.511400 -17.355900
C -16.535400 -2.912400 -17.400800
H -16.486400 -3.117800 -19.368300
H -16.181200 -2.893500 -15.423400
C -16.017800 -3.267800 -18.578800
C -15.798300 -3.152700 -16.229100
C -14.760400 -3.868000 -18.598800
N -14.621900 -3.708000 -16.179700
N -14.129700 -4.054800 -17.393200
N -14.001300 -4.321000 -19.583900
C -12.933100 -4.647700 -17.640700
C -12.877800 -4.791000 -18.976000
H -12.289900 -4.900300 -17.018600
H -12.158900 -5.166900 -19.430700
H -14.266500 -3.301100 -23.601700
C -13.429300 -2.900100 -23.646700
H -13.380400 -2.694700 -25.614100
H -13.075200 -2.919000 -21.669200
C -12.911800 -2.544700 -24.824600
C -12.692300 -2.659800 -22.474900
C -11.654400 -1.944500 -24.844600
N -11.515900 -2.104500 -22.425500
N -11.023700 -1.757700 -23.639000
N -10.895300 -1.491500 -25.829700
C -9.827100 -1.164800 -23.886500
C -9.771700 -1.021400 -25.221900
H -9.183800 -0.912200 -23.264400
H -9.052900 -0.645600 -25.676600
