14
Fragment
H -17.372500 -2.511400 -17.355900
C -16.535400 -2.912400 -17.400800
H -16.486400 -3.117800 -19.368300
H -16.181200 -2.893500 -15.423400
C -16.017800 -3.267800 -18.578800
C -15.798300 -3.152700 -16.229100
C -14.760400 -3.868000 -18.598800
N -14.621900 -3.708000 -16.179700
N -14.129700 -4.054800 -17.393200
N -14.001300 -4.321000 -19.583900
C -12.933100 -4.647700 -17.640700
C -12.877800 -4.791000 -18.976000
H -12.289900 -4.900300 -17.018600
H -12.158900 -5.166900 -19.430700
14
Fragment
H -17.372500 1.363600 -17.355900
C -16.535400 0.962600 -17.400800
H -16.486400 0.757200 -19.368300
H -16.181200 0.981500 -15.423400
C -16.017800 0.607200 -18.578800
C -15.798300 0.722300 -16.229100
C -14.760400 0.007000 -18.598800
N -14.621900 0.167000 -16.179700
N -14.129700 -0.179800 -17.393200
N -14.001300 -0.446000 -19.583900
C -12.933100 -0.772700 -17.640700
C -12.877800 -0.916000 -18.976000
H -12.289900 -1.025300 -17.018600
H -12.158900 -1.291900 -19.430700
28
Fragment
H -17.372500 -2.511400 -17.355900
C -16.535400 -2.912400 -17.400800
H -16.486400 -3.117800 -19.368300
H -16.181200 -2.893500 -15.423400
C -16.017800 -3.267800 -18.578800
C -15.798300 -3.152700 -16.229100
C -14.760400 -3.868000 -18.598800
N -14.621900 -3.708000 -16.179700
N -14.129700 -4.054800 -17.393200
N -14.001300 -4.321000 -19.583900
C -12.933100 -4.647700 -17.640700
C -12.877800 -4.791000 -18.976000
H -12.289900 -4.900300 -17.018600
H -12.158900 -5.166900 -19.430700
H -17.372500 1.363600 -17.355900
C -16.535400 0.962600 -17.400800
H -16.486400 0.757200 -19.368300
H -16.181200 0.981500 -15.423400
C -16.017800 0.607200 -18.578800
C -15.798300 0.722300 -16.229100
C -14.760400 0.007000 -18.598800
N -14.621900 0.167000 -16.179700
N -14.129700 -0.179800 -17.393200
N -14.001300 -0.446000 -19.583900
C -12.933100 -0.772700 -17.640700
C -12.877800 -0.916000 -18.976000
H -12.289900 -1.025300 -17.018600
H -12.158900 -1.291900 -19.430700
