14
Fragment
H -17.372500 -2.511400 -17.355900
C -16.535400 -2.912400 -17.400800
H -16.486400 -3.117800 -19.368300
H -16.181200 -2.893500 -15.423400
C -16.017800 -3.267800 -18.578800
C -15.798300 -3.152700 -16.229100
C -14.760400 -3.868000 -18.598800
N -14.621900 -3.708000 -16.179700
N -14.129700 -4.054800 -17.393200
N -14.001300 -4.321000 -19.583900
C -12.933100 -4.647700 -17.640700
C -12.877800 -4.791000 -18.976000
H -12.289900 -4.900300 -17.018600
H -12.158900 -5.166900 -19.430700
14
Fragment
H -13.254900 -7.104400 -11.798300
H -13.124000 -6.837800 -14.210500
C -12.536100 -6.728600 -12.253000
C -12.480800 -6.585200 -13.588400
N -11.412600 -6.258500 -11.645200
N -11.284100 -5.992300 -13.835900
N -10.792000 -5.645500 -15.049400
C -10.653400 -5.805500 -12.630300
C -9.615600 -5.090200 -15.000000
C -9.396100 -5.205300 -12.650300
H -9.232700 -4.831000 -15.805700
H -8.927500 -5.055300 -11.860800
C -8.878500 -4.849900 -13.828200
H -8.041400 -4.448900 -13.873200
28
Fragment
H -17.372500 -2.511400 -17.355900
C -16.535400 -2.912400 -17.400800
H -16.486400 -3.117800 -19.368300
H -16.181200 -2.893500 -15.423400
C -16.017800 -3.267800 -18.578800
C -15.798300 -3.152700 -16.229100
C -14.760400 -3.868000 -18.598800
N -14.621900 -3.708000 -16.179700
N -14.129700 -4.054800 -17.393200
N -14.001300 -4.321000 -19.583900
C -12.933100 -4.647700 -17.640700
C -12.877800 -4.791000 -18.976000
H -12.289900 -4.900300 -17.018600
H -12.158900 -5.166900 -19.430700
H -13.254900 -7.104400 -11.798300
H -13.124000 -6.837800 -14.210500
C -12.536100 -6.728600 -12.253000
C -12.480800 -6.585200 -13.588400
N -11.412600 -6.258500 -11.645200
N -11.284100 -5.992300 -13.835900
N -10.792000 -5.645500 -15.049400
C -10.653400 -5.805500 -12.630300
C -9.615600 -5.090200 -15.000000
C -9.396100 -5.205300 -12.650300
H -9.232700 -4.831000 -15.805700
H -8.927500 -5.055300 -11.860800
C -8.878500 -4.849900 -13.828200
H -8.041400 -4.448900 -13.873200
