14
Fragment
H -17.372500 -2.511400 -17.355900
C -16.535400 -2.912400 -17.400800
H -16.486400 -3.117800 -19.368300
H -16.181200 -2.893500 -15.423400
C -16.017800 -3.267800 -18.578800
C -15.798300 -3.152700 -16.229100
C -14.760400 -3.868000 -18.598800
N -14.621900 -3.708000 -16.179700
N -14.129700 -4.054800 -17.393200
N -14.001300 -4.321000 -19.583900
C -12.933100 -4.647700 -17.640700
C -12.877800 -4.791000 -18.976000
H -12.289900 -4.900300 -17.018600
H -12.158900 -5.166900 -19.430700
14
Fragment
H -23.796900 -2.583100 -18.044200
H -23.666000 -2.849700 -20.456300
C -23.078100 -2.958900 -18.498900
C -23.022700 -3.102300 -19.834200
N -21.954600 -3.429000 -17.891000
N -21.826100 -3.695200 -20.081700
N -21.334000 -4.042000 -21.295200
C -21.195400 -3.882000 -18.876100
C -20.157600 -4.597300 -21.245800
C -19.938000 -4.482200 -18.896100
H -19.774600 -4.856500 -22.051500
H -19.469500 -4.632200 -18.106600
C -19.420500 -4.837600 -20.074100
H -18.583300 -5.238600 -20.119000
28
Fragment
H -17.372500 -2.511400 -17.355900
C -16.535400 -2.912400 -17.400800
H -16.486400 -3.117800 -19.368300
H -16.181200 -2.893500 -15.423400
C -16.017800 -3.267800 -18.578800
C -15.798300 -3.152700 -16.229100
C -14.760400 -3.868000 -18.598800
N -14.621900 -3.708000 -16.179700
N -14.129700 -4.054800 -17.393200
N -14.001300 -4.321000 -19.583900
C -12.933100 -4.647700 -17.640700
C -12.877800 -4.791000 -18.976000
H -12.289900 -4.900300 -17.018600
H -12.158900 -5.166900 -19.430700
H -23.796900 -2.583100 -18.044200
H -23.666000 -2.849700 -20.456300
C -23.078100 -2.958900 -18.498900
C -23.022700 -3.102300 -19.834200
N -21.954600 -3.429000 -17.891000
N -21.826100 -3.695200 -20.081700
N -21.334000 -4.042000 -21.295200
C -21.195400 -3.882000 -18.876100
C -20.157600 -4.597300 -21.245800
C -19.938000 -4.482200 -18.896100
H -19.774600 -4.856500 -22.051500
H -19.469500 -4.632200 -18.106600
C -19.420500 -4.837600 -20.074100
H -18.583300 -5.238600 -20.119000
