29
Fragment
H -8.967100 -26.565900 -7.965600
H -8.826300 -24.662500 -9.943800
H -8.727900 -25.447500 -11.297400
H -8.478100 -23.898900 -11.267700
C -8.366100 -24.720900 -10.784100
O -8.135400 -26.362000 -7.787300
H -7.954000 -27.321900 -10.214500
H -7.849900 -28.285200 -8.065800
C -7.370100 -27.461600 -8.244700
C -7.091200 -27.349000 -9.750300
H -7.071600 -27.476900 -12.643300
N -6.945600 -24.954600 -10.545200
H -6.529700 -27.492400 -7.762200
C -6.356500 -26.079600 -10.067300
C -6.339900 -28.556000 -10.244700
C -6.165000 -27.793400 -12.648800
H -6.050500 -23.158400 -11.046300
N -6.003600 -29.600500 -9.507200
H -5.987900 -28.242500 -13.479000
N -5.968500 -28.724400 -11.541600
C -5.951400 -24.027200 -10.726200
H -5.565700 -27.050500 -12.551800
C -5.378400 -30.470000 -10.380500
C -5.347100 -29.945500 -11.627000
N -5.050300 -25.917400 -9.935400
H -5.028600 -31.299200 -10.144900
H -4.978800 -30.333900 -12.387400
C -4.800400 -24.623400 -10.349900
H -3.962000 -24.222600 -10.366300
29
Fragment
H -8.863400 -33.913900 -9.195700
C -8.024900 -34.314700 -9.212100
H -7.846600 -40.025300 -7.174600
H -7.796800 -40.990500 -9.417100
N -7.775000 -35.608700 -9.626600
C -7.478200 -39.636800 -7.935000
C -7.447000 -40.161300 -9.181500
H -7.259600 -36.741800 -7.010200
C -6.874000 -33.718500 -8.835800
N -6.856900 -38.415700 -8.020400
H -6.837500 -37.933900 -6.083000
N -6.821800 -39.291800 -10.054800
H -6.774900 -32.849800 -8.515700
C -6.660400 -37.484800 -6.913200
C -6.485400 -38.247300 -9.317300
C -6.468900 -35.771000 -9.494700
H -6.295600 -37.183800 -11.799800
N -5.879800 -34.646000 -9.016800
H -5.753800 -37.168300 -6.918700
C -5.734200 -37.040300 -9.811700
C -5.455200 -37.153000 -11.317300
H -4.975500 -37.976500 -11.496200
H -4.871400 -37.013200 -9.347500
O -4.690000 -36.053400 -11.774700
C -4.459300 -34.412200 -8.777900
H -4.347300 -33.590200 -8.294300
H -4.097500 -35.138900 -8.264600
H -3.999100 -34.353900 -9.618200
H -3.858300 -36.257300 -11.596400
58
Fragment
H -8.967100 -26.565900 -7.965600
H -8.826300 -24.662500 -9.943800
H -8.727900 -25.447500 -11.297400
H -8.478100 -23.898900 -11.267700
C -8.366100 -24.720900 -10.784100
O -8.135400 -26.362000 -7.787300
H -7.954000 -27.321900 -10.214500
H -7.849900 -28.285200 -8.065800
C -7.370100 -27.461600 -8.244700
C -7.091200 -27.349000 -9.750300
H -7.071600 -27.476900 -12.643300
N -6.945600 -24.954600 -10.545200
H -6.529700 -27.492400 -7.762200
C -6.356500 -26.079600 -10.067300
C -6.339900 -28.556000 -10.244700
C -6.165000 -27.793400 -12.648800
H -6.050500 -23.158400 -11.046300
N -6.003600 -29.600500 -9.507200
H -5.987900 -28.242500 -13.479000
N -5.968500 -28.724400 -11.541600
C -5.951400 -24.027200 -10.726200
H -5.565700 -27.050500 -12.551800
C -5.378400 -30.470000 -10.380500
C -5.347100 -29.945500 -11.627000
N -5.050300 -25.917400 -9.935400
H -5.028600 -31.299200 -10.144900
H -4.978800 -30.333900 -12.387400
C -4.800400 -24.623400 -10.349900
H -3.962000 -24.222600 -10.366300
H -8.863400 -33.913900 -9.195700
C -8.024900 -34.314700 -9.212100
H -7.846600 -40.025300 -7.174600
H -7.796800 -40.990500 -9.417100
N -7.775000 -35.608700 -9.626600
C -7.478200 -39.636800 -7.935000
C -7.447000 -40.161300 -9.181500
H -7.259600 -36.741800 -7.010200
C -6.874000 -33.718500 -8.835800
N -6.856900 -38.415700 -8.020400
H -6.837500 -37.933900 -6.083000
N -6.821800 -39.291800 -10.054800
H -6.774900 -32.849800 -8.515700
C -6.660400 -37.484800 -6.913200
C -6.485400 -38.247300 -9.317300
C -6.468900 -35.771000 -9.494700
H -6.295600 -37.183800 -11.799800
N -5.879800 -34.646000 -9.016800
H -5.753800 -37.168300 -6.918700
C -5.734200 -37.040300 -9.811700
C -5.455200 -37.153000 -11.317300
H -4.975500 -37.976500 -11.496200
H -4.871400 -37.013200 -9.347500
O -4.690000 -36.053400 -11.774700
C -4.459300 -34.412200 -8.777900
H -4.347300 -33.590200 -8.294300
H -4.097500 -35.138900 -8.264600
H -3.999100 -34.353900 -9.618200
H -3.858300 -36.257300 -11.596400
