29
Fragment
H -8.967100 -26.565900 -7.965600
H -8.826300 -24.662500 -9.943800
H -8.727900 -25.447500 -11.297400
H -8.478100 -23.898900 -11.267700
C -8.366100 -24.720900 -10.784100
O -8.135400 -26.362000 -7.787300
H -7.954000 -27.321900 -10.214500
H -7.849900 -28.285200 -8.065800
C -7.370100 -27.461600 -8.244700
C -7.091200 -27.349000 -9.750300
H -7.071600 -27.476900 -12.643300
N -6.945600 -24.954600 -10.545200
H -6.529700 -27.492400 -7.762200
C -6.356500 -26.079600 -10.067300
C -6.339900 -28.556000 -10.244700
C -6.165000 -27.793400 -12.648800
H -6.050500 -23.158400 -11.046300
N -6.003600 -29.600500 -9.507200
H -5.987900 -28.242500 -13.479000
N -5.968500 -28.724400 -11.541600
C -5.951400 -24.027200 -10.726200
H -5.565700 -27.050500 -12.551800
C -5.378400 -30.470000 -10.380500
C -5.347100 -29.945500 -11.627000
N -5.050300 -25.917400 -9.935400
H -5.028600 -31.299200 -10.144900
H -4.978800 -30.333900 -12.387400
C -4.800400 -24.623400 -10.349900
H -3.962000 -24.222600 -10.366300
29
Fragment
H -11.532100 -21.890800 -11.878000
H -11.391400 -23.794200 -13.856200
H -11.293000 -23.009200 -15.209800
H -11.043200 -24.557900 -15.180100
C -10.931200 -23.735900 -14.696500
O -10.700500 -22.094700 -11.699700
H -10.519100 -21.134900 -14.126900
H -10.415000 -20.171600 -11.978200
C -9.935200 -20.995100 -12.157100
C -9.656300 -21.107800 -13.662700
H -9.636600 -20.979800 -16.555700
N -9.510600 -23.502100 -14.457600
H -9.094800 -20.964300 -11.674600
C -8.921600 -22.377100 -13.979700
C -8.905000 -19.900800 -14.157100
C -8.730100 -20.663300 -16.561200
H -8.615600 -25.298300 -14.958700
N -8.568700 -18.856300 -13.419600
H -8.553000 -20.214200 -17.391400
N -8.533500 -19.732400 -15.454000
C -8.516500 -24.429600 -14.638600
H -8.130800 -21.406300 -16.464200
C -7.943500 -17.986800 -14.292900
C -7.912200 -18.511300 -15.539400
N -7.615400 -22.539400 -13.847800
H -7.593700 -17.157600 -14.057300
H -7.543800 -18.122800 -16.299800
C -7.365500 -23.833400 -14.262300
H -6.527100 -24.234200 -14.278700
58
Fragment
H -8.967100 -26.565900 -7.965600
H -8.826300 -24.662500 -9.943800
H -8.727900 -25.447500 -11.297400
H -8.478100 -23.898900 -11.267700
C -8.366100 -24.720900 -10.784100
O -8.135400 -26.362000 -7.787300
H -7.954000 -27.321900 -10.214500
H -7.849900 -28.285200 -8.065800
C -7.370100 -27.461600 -8.244700
C -7.091200 -27.349000 -9.750300
H -7.071600 -27.476900 -12.643300
N -6.945600 -24.954600 -10.545200
H -6.529700 -27.492400 -7.762200
C -6.356500 -26.079600 -10.067300
C -6.339900 -28.556000 -10.244700
C -6.165000 -27.793400 -12.648800
H -6.050500 -23.158400 -11.046300
N -6.003600 -29.600500 -9.507200
H -5.987900 -28.242500 -13.479000
N -5.968500 -28.724400 -11.541600
C -5.951400 -24.027200 -10.726200
H -5.565700 -27.050500 -12.551800
C -5.378400 -30.470000 -10.380500
C -5.347100 -29.945500 -11.627000
N -5.050300 -25.917400 -9.935400
H -5.028600 -31.299200 -10.144900
H -4.978800 -30.333900 -12.387400
C -4.800400 -24.623400 -10.349900
H -3.962000 -24.222600 -10.366300
H -11.532100 -21.890800 -11.878000
H -11.391400 -23.794200 -13.856200
H -11.293000 -23.009200 -15.209800
H -11.043200 -24.557900 -15.180100
C -10.931200 -23.735900 -14.696500
O -10.700500 -22.094700 -11.699700
H -10.519100 -21.134900 -14.126900
H -10.415000 -20.171600 -11.978200
C -9.935200 -20.995100 -12.157100
C -9.656300 -21.107800 -13.662700
H -9.636600 -20.979800 -16.555700
N -9.510600 -23.502100 -14.457600
H -9.094800 -20.964300 -11.674600
C -8.921600 -22.377100 -13.979700
C -8.905000 -19.900800 -14.157100
C -8.730100 -20.663300 -16.561200
H -8.615600 -25.298300 -14.958700
N -8.568700 -18.856300 -13.419600
H -8.553000 -20.214200 -17.391400
N -8.533500 -19.732400 -15.454000
C -8.516500 -24.429600 -14.638600
H -8.130800 -21.406300 -16.464200
C -7.943500 -17.986800 -14.292900
C -7.912200 -18.511300 -15.539400
N -7.615400 -22.539400 -13.847800
H -7.593700 -17.157600 -14.057300
H -7.543800 -18.122800 -16.299800
C -7.365500 -23.833400 -14.262300
H -6.527100 -24.234200 -14.278700
