29
Fragment
H -8.967100 -26.565900 -7.965600
H -8.826300 -24.662500 -9.943800
H -8.727900 -25.447500 -11.297400
H -8.478100 -23.898900 -11.267700
C -8.366100 -24.720900 -10.784100
O -8.135400 -26.362000 -7.787300
H -7.954000 -27.321900 -10.214500
H -7.849900 -28.285200 -8.065800
C -7.370100 -27.461600 -8.244700
C -7.091200 -27.349000 -9.750300
H -7.071600 -27.476900 -12.643300
N -6.945600 -24.954600 -10.545200
H -6.529700 -27.492400 -7.762200
C -6.356500 -26.079600 -10.067300
C -6.339900 -28.556000 -10.244700
C -6.165000 -27.793400 -12.648800
H -6.050500 -23.158400 -11.046300
N -6.003600 -29.600500 -9.507200
H -5.987900 -28.242500 -13.479000
N -5.968500 -28.724400 -11.541600
C -5.951400 -24.027200 -10.726200
H -5.565700 -27.050500 -12.551800
C -5.378400 -30.470000 -10.380500
C -5.347100 -29.945500 -11.627000
N -5.050300 -25.917400 -9.935400
H -5.028600 -31.299200 -10.144900
H -4.978800 -30.333900 -12.387400
C -4.800400 -24.623400 -10.349900
H -3.962000 -24.222600 -10.366300
29
Fragment
H -1.537400 -26.565900 -7.965600
H -1.396600 -24.662500 -9.943800
H -1.298200 -25.447500 -11.297400
H -1.048400 -23.898900 -11.267700
C -0.936400 -24.720900 -10.784100
O -0.705700 -26.362000 -7.787300
H -0.524300 -27.321900 -10.214500
H -0.420200 -28.285200 -8.065800
C 0.059600 -27.461600 -8.244700
C 0.338500 -27.349000 -9.750300
H 0.358100 -27.476900 -12.643300
N 0.484100 -24.954600 -10.545200
H 0.900000 -27.492400 -7.762200
C 1.073200 -26.079600 -10.067300
C 1.089800 -28.556000 -10.244700
C 1.264700 -27.793400 -12.648800
H 1.379200 -23.158400 -11.046300
N 1.426100 -29.600500 -9.507200
H 1.441800 -28.242500 -13.479000
N 1.461200 -28.724400 -11.541600
C 1.478300 -24.027200 -10.726200
H 1.864000 -27.050500 -12.551800
C 2.051300 -30.470000 -10.380500
C 2.082600 -29.945500 -11.627000
N 2.379400 -25.917400 -9.935400
H 2.401100 -31.299200 -10.144900
H 2.450900 -30.333900 -12.387400
C 2.629300 -24.623400 -10.349900
H 3.467700 -24.222600 -10.366300
58
Fragment
H -8.967100 -26.565900 -7.965600
H -8.826300 -24.662500 -9.943800
H -8.727900 -25.447500 -11.297400
H -8.478100 -23.898900 -11.267700
C -8.366100 -24.720900 -10.784100
O -8.135400 -26.362000 -7.787300
H -7.954000 -27.321900 -10.214500
H -7.849900 -28.285200 -8.065800
C -7.370100 -27.461600 -8.244700
C -7.091200 -27.349000 -9.750300
H -7.071600 -27.476900 -12.643300
N -6.945600 -24.954600 -10.545200
H -6.529700 -27.492400 -7.762200
C -6.356500 -26.079600 -10.067300
C -6.339900 -28.556000 -10.244700
C -6.165000 -27.793400 -12.648800
H -6.050500 -23.158400 -11.046300
N -6.003600 -29.600500 -9.507200
H -5.987900 -28.242500 -13.479000
N -5.968500 -28.724400 -11.541600
C -5.951400 -24.027200 -10.726200
H -5.565700 -27.050500 -12.551800
C -5.378400 -30.470000 -10.380500
C -5.347100 -29.945500 -11.627000
N -5.050300 -25.917400 -9.935400
H -5.028600 -31.299200 -10.144900
H -4.978800 -30.333900 -12.387400
C -4.800400 -24.623400 -10.349900
H -3.962000 -24.222600 -10.366300
H -1.537400 -26.565900 -7.965600
H -1.396600 -24.662500 -9.943800
H -1.298200 -25.447500 -11.297400
H -1.048400 -23.898900 -11.267700
C -0.936400 -24.720900 -10.784100
O -0.705700 -26.362000 -7.787300
H -0.524300 -27.321900 -10.214500
H -0.420200 -28.285200 -8.065800
C 0.059600 -27.461600 -8.244700
C 0.338500 -27.349000 -9.750300
H 0.358100 -27.476900 -12.643300
N 0.484100 -24.954600 -10.545200
H 0.900000 -27.492400 -7.762200
C 1.073200 -26.079600 -10.067300
C 1.089800 -28.556000 -10.244700
C 1.264700 -27.793400 -12.648800
H 1.379200 -23.158400 -11.046300
N 1.426100 -29.600500 -9.507200
H 1.441800 -28.242500 -13.479000
N 1.461200 -28.724400 -11.541600
C 1.478300 -24.027200 -10.726200
H 1.864000 -27.050500 -12.551800
C 2.051300 -30.470000 -10.380500
C 2.082600 -29.945500 -11.627000
N 2.379400 -25.917400 -9.935400
H 2.401100 -31.299200 -10.144900
H 2.450900 -30.333900 -12.387400
C 2.629300 -24.623400 -10.349900
H 3.467700 -24.222600 -10.366300
