28
Fragment
H -16.892400 -20.952700 -12.667700
H -16.843200 -19.818400 -14.862100
C -15.978200 -20.648500 -12.552800
C -15.929700 -19.573300 -14.645300
H -15.833000 -20.511000 -11.604100
N -15.828800 -19.382000 -13.227200
H -15.737700 -18.731400 -15.087600
H -15.698800 -18.626800 -12.837900
H -15.303600 -22.562000 -12.591800
H -15.205500 -20.783000 -16.125200
N -15.108700 -21.898400 -14.462600
C -15.059600 -21.727100 -13.021200
C -15.000200 -20.630900 -15.189600
H -14.600600 -22.436900 -16.952500
C -14.575300 -23.040000 -15.017200
C -14.377700 -23.153500 -16.402800
H -14.320200 -24.118900 -13.316100
C -14.213100 -24.156900 -14.239800
H -14.152200 -21.509700 -12.756600
H -14.086700 -20.310000 -15.134300
C -13.867500 -24.286600 -16.965500
H -13.751400 -24.338400 -17.886000
C -13.711800 -25.289600 -14.801400
C -13.524100 -25.357800 -16.161000
H -13.495600 -26.017700 -14.264700
N -12.941300 -26.535700 -16.762700
O -12.752300 -26.560800 -17.978100
O -12.644700 -27.478200 -16.028700
28
Fragment
O -19.039200 -15.660600 -5.655200
O -18.931500 -16.578000 -3.705800
N -18.742600 -16.603000 -4.921200
H -18.188300 -17.121000 -7.419100
C -18.159800 -17.781000 -5.522900
C -17.972000 -17.849200 -6.882500
H -17.932500 -18.800400 -3.797900
C -17.816400 -18.852200 -4.718400
H -17.597200 -22.828800 -6.549600
H -17.531700 -21.629100 -8.927300
C -17.470800 -18.981800 -7.444100
H -17.363700 -19.019800 -8.367800
C -17.306200 -19.985300 -5.281100
C -17.108600 -20.098700 -6.666700
H -17.083200 -20.701800 -4.731400
C -16.683700 -22.507900 -6.494300
C -16.624300 -21.411700 -8.662700
N -16.575200 -21.240400 -7.221300
H -16.478400 -22.355800 -5.558700
H -16.380300 -20.576800 -9.092100
H -15.985100 -24.511900 -8.845900
H -15.946200 -24.407400 -6.596200
N -15.855100 -23.756800 -8.456700
H -15.850900 -22.627700 -10.079800
C -15.754200 -23.565500 -7.038600
C -15.705700 -22.490300 -9.131100
H -14.840700 -23.320300 -6.821800
H -14.791500 -22.186100 -9.016200
56
Fragment
H -16.892400 -20.952700 -12.667700
H -16.843200 -19.818400 -14.862100
C -15.978200 -20.648500 -12.552800
C -15.929700 -19.573300 -14.645300
H -15.833000 -20.511000 -11.604100
N -15.828800 -19.382000 -13.227200
H -15.737700 -18.731400 -15.087600
H -15.698800 -18.626800 -12.837900
H -15.303600 -22.562000 -12.591800
H -15.205500 -20.783000 -16.125200
N -15.108700 -21.898400 -14.462600
C -15.059600 -21.727100 -13.021200
C -15.000200 -20.630900 -15.189600
H -14.600600 -22.436900 -16.952500
C -14.575300 -23.040000 -15.017200
C -14.377700 -23.153500 -16.402800
H -14.320200 -24.118900 -13.316100
C -14.213100 -24.156900 -14.239800
H -14.152200 -21.509700 -12.756600
H -14.086700 -20.310000 -15.134300
C -13.867500 -24.286600 -16.965500
H -13.751400 -24.338400 -17.886000
C -13.711800 -25.289600 -14.801400
C -13.524100 -25.357800 -16.161000
H -13.495600 -26.017700 -14.264700
N -12.941300 -26.535700 -16.762700
O -12.752300 -26.560800 -17.978100
O -12.644700 -27.478200 -16.028700
O -19.039200 -15.660600 -5.655200
O -18.931500 -16.578000 -3.705800
N -18.742600 -16.603000 -4.921200
H -18.188300 -17.121000 -7.419100
C -18.159800 -17.781000 -5.522900
C -17.972000 -17.849200 -6.882500
H -17.932500 -18.800400 -3.797900
C -17.816400 -18.852200 -4.718400
H -17.597200 -22.828800 -6.549600
H -17.531700 -21.629100 -8.927300
C -17.470800 -18.981800 -7.444100
H -17.363700 -19.019800 -8.367800
C -17.306200 -19.985300 -5.281100
C -17.108600 -20.098700 -6.666700
H -17.083200 -20.701800 -4.731400
C -16.683700 -22.507900 -6.494300
C -16.624300 -21.411700 -8.662700
N -16.575200 -21.240400 -7.221300
H -16.478400 -22.355800 -5.558700
H -16.380300 -20.576800 -9.092100
H -15.985100 -24.511900 -8.845900
H -15.946200 -24.407400 -6.596200
N -15.855100 -23.756800 -8.456700
H -15.850900 -22.627700 -10.079800
C -15.754200 -23.565500 -7.038600
C -15.705700 -22.490300 -9.131100
H -14.840700 -23.320300 -6.821800
H -14.791500 -22.186100 -9.016200
