21
Fragment
H -13.573000 -13.128900 -18.848600
H -13.361700 -14.052700 -17.600000
C -12.999800 -13.319500 -18.102900
H -12.939500 -12.543800 -17.540100
N -11.662200 -13.674000 -18.592400
N -11.625900 -11.935300 -20.300200
O -11.398900 -15.308100 -17.033800
C -11.081000 -12.977400 -19.615200
C -10.950500 -14.678400 -17.967400
H -10.762900 -10.895000 -21.779700
C -10.674500 -11.592500 -21.171400
C -9.827000 -13.265800 -20.074600
N -9.668000 -14.957700 -18.475900
N -9.587900 -12.351800 -21.079800
H -9.309400 -16.844400 -17.892900
C -9.036300 -14.304100 -19.530400
C -8.903200 -15.985500 -17.753400
H -8.900100 -15.781700 -16.814700
H -8.836600 -12.290300 -21.582700
H -8.000900 -16.002700 -18.080600
O -7.910100 -14.645400 -19.904600
18
Fragment
O -7.588100 -14.810300 -24.318800
H -7.353600 -16.214700 -26.143100
O -7.223800 -12.264600 -22.554700
H -6.881400 -14.146000 -21.111500
C -6.624400 -14.878000 -25.032700
O -6.515600 -15.733000 -26.029400
C -6.389400 -13.131200 -22.682800
O -6.197300 -14.098900 -21.824900
C -5.447600 -13.974700 -24.885500
C -5.369600 -13.120300 -23.779900
H -4.498200 -14.485700 -26.594400
C -4.448400 -13.928000 -25.852500
C -4.309100 -12.237500 -23.674600
H -4.264600 -11.655500 -22.949800
C -3.381500 -13.056900 -25.717400
C -3.315400 -12.212200 -24.634300
H -2.709200 -13.042700 -26.358800
H -2.600900 -11.622000 -24.548400
39
Fragment
H -13.573000 -13.128900 -18.848600
H -13.361700 -14.052700 -17.600000
C -12.999800 -13.319500 -18.102900
H -12.939500 -12.543800 -17.540100
N -11.662200 -13.674000 -18.592400
N -11.625900 -11.935300 -20.300200
O -11.398900 -15.308100 -17.033800
C -11.081000 -12.977400 -19.615200
C -10.950500 -14.678400 -17.967400
H -10.762900 -10.895000 -21.779700
C -10.674500 -11.592500 -21.171400
C -9.827000 -13.265800 -20.074600
N -9.668000 -14.957700 -18.475900
N -9.587900 -12.351800 -21.079800
H -9.309400 -16.844400 -17.892900
C -9.036300 -14.304100 -19.530400
C -8.903200 -15.985500 -17.753400
H -8.900100 -15.781700 -16.814700
H -8.836600 -12.290300 -21.582700
H -8.000900 -16.002700 -18.080600
O -7.910100 -14.645400 -19.904600
O -7.588100 -14.810300 -24.318800
H -7.353600 -16.214700 -26.143100
O -7.223800 -12.264600 -22.554700
H -6.881400 -14.146000 -21.111500
C -6.624400 -14.878000 -25.032700
O -6.515600 -15.733000 -26.029400
C -6.389400 -13.131200 -22.682800
O -6.197300 -14.098900 -21.824900
C -5.447600 -13.974700 -24.885500
C -5.369600 -13.120300 -23.779900
H -4.498200 -14.485700 -26.594400
C -4.448400 -13.928000 -25.852500
C -4.309100 -12.237500 -23.674600
H -4.264600 -11.655500 -22.949800
C -3.381500 -13.056900 -25.717400
C -3.315400 -12.212200 -24.634300
H -2.709200 -13.042700 -26.358800
H -2.600900 -11.622000 -24.548400
