21
Fragment
H -13.573000 -13.128900 -18.848600
H -13.361700 -14.052700 -17.600000
C -12.999800 -13.319500 -18.102900
H -12.939500 -12.543800 -17.540100
N -11.662200 -13.674000 -18.592400
N -11.625900 -11.935300 -20.300200
O -11.398900 -15.308100 -17.033800
C -11.081000 -12.977400 -19.615200
C -10.950500 -14.678400 -17.967400
H -10.762900 -10.895000 -21.779700
C -10.674500 -11.592500 -21.171400
C -9.827000 -13.265800 -20.074600
N -9.668000 -14.957700 -18.475900
N -9.587900 -12.351800 -21.079800
H -9.309400 -16.844400 -17.892900
C -9.036300 -14.304100 -19.530400
C -8.903200 -15.985500 -17.753400
H -8.900100 -15.781700 -16.814700
H -8.836600 -12.290300 -21.582700
H -8.000900 -16.002700 -18.080600
O -7.910100 -14.645400 -19.904600
18
Fragment
H -8.373500 -18.799500 -15.385000
H -8.265200 -17.378800 -13.574700
C -7.659100 -18.209300 -15.299200
C -7.592900 -17.364600 -14.216100
H -6.709800 -18.766000 -16.983700
C -6.665300 -18.184000 -16.258900
C -6.526000 -16.493500 -14.080900
H -6.476200 -15.935800 -13.339100
C -5.604800 -17.301200 -16.153600
C -5.526800 -16.446800 -15.048000
O -4.777200 -16.322600 -18.108600
C -4.585100 -17.290300 -17.250700
O -4.458800 -14.688500 -13.904000
C -4.350100 -15.543500 -14.900800
H -4.093000 -16.275500 -18.822000
O -3.750600 -18.156900 -17.378800
H -3.620800 -14.206800 -13.790400
O -3.386400 -15.611200 -15.614700
39
Fragment
H -13.573000 -13.128900 -18.848600
H -13.361700 -14.052700 -17.600000
C -12.999800 -13.319500 -18.102900
H -12.939500 -12.543800 -17.540100
N -11.662200 -13.674000 -18.592400
N -11.625900 -11.935300 -20.300200
O -11.398900 -15.308100 -17.033800
C -11.081000 -12.977400 -19.615200
C -10.950500 -14.678400 -17.967400
H -10.762900 -10.895000 -21.779700
C -10.674500 -11.592500 -21.171400
C -9.827000 -13.265800 -20.074600
N -9.668000 -14.957700 -18.475900
N -9.587900 -12.351800 -21.079800
H -9.309400 -16.844400 -17.892900
C -9.036300 -14.304100 -19.530400
C -8.903200 -15.985500 -17.753400
H -8.900100 -15.781700 -16.814700
H -8.836600 -12.290300 -21.582700
H -8.000900 -16.002700 -18.080600
O -7.910100 -14.645400 -19.904600
H -8.373500 -18.799500 -15.385000
H -8.265200 -17.378800 -13.574700
C -7.659100 -18.209300 -15.299200
C -7.592900 -17.364600 -14.216100
H -6.709800 -18.766000 -16.983700
C -6.665300 -18.184000 -16.258900
C -6.526000 -16.493500 -14.080900
H -6.476200 -15.935800 -13.339100
C -5.604800 -17.301200 -16.153600
C -5.526800 -16.446800 -15.048000
O -4.777200 -16.322600 -18.108600
C -4.585100 -17.290300 -17.250700
O -4.458800 -14.688500 -13.904000
C -4.350100 -15.543500 -14.900800
H -4.093000 -16.275500 -18.822000
O -3.750600 -18.156900 -17.378800
H -3.620800 -14.206800 -13.790400
O -3.386400 -15.611200 -15.614700
