49
Fragment
H -27.917700 -14.122500 -34.287100
H -27.644900 -16.369300 -34.043000
C -27.147600 -14.455000 -33.886500
C -26.981400 -15.790700 -33.742100
O -26.388200 -12.256600 -33.601200
C -26.161000 -13.573500 -33.431000
C -25.834600 -16.309500 -33.154200
H -25.786900 -11.827400 -33.245300
O -25.775600 -17.656400 -33.068200
H -25.073600 -17.876100 -32.705500
C -24.994800 -14.057500 -32.844800
C -24.824300 -15.466300 -32.698600
O -24.115200 -11.895400 -32.473400
C -23.958500 -13.124200 -32.373700
C -23.618800 -16.066700 -32.124500
O -23.452900 -17.284400 -32.005900
C -22.769900 -13.711100 -31.832200
C -22.619400 -15.084200 -31.686100
N -21.668700 -13.110800 -31.357800
N -21.429200 -15.363600 -31.129100
N -20.928900 -14.137300 -30.948600
N -19.699400 -13.799200 -30.403700
H -19.383400 -15.647000 -29.991100
C -19.030700 -14.788900 -29.927500
C -17.761200 -14.603500 -29.303500
H -17.617600 -12.623300 -29.514900
H -17.417100 -16.527700 -28.877100
C -17.166900 -13.368000 -29.186600
C -17.042700 -15.679000 -28.808400
C -15.931100 -13.188600 -28.600400
C -15.822800 -15.559900 -28.229000
H -15.565900 -12.334700 -28.540200
H -15.380100 -16.315700 -27.916200
C -15.224500 -14.287900 -28.100100
H -14.720300 -15.754600 -25.619500
H -14.662100 -11.875900 -26.346600
N -13.973200 -14.151900 -27.541400
C -13.765000 -15.663600 -25.590200
C -13.710400 -12.000600 -26.319100
H -13.528500 -14.971900 -24.967900
H -13.468900 -12.438900 -25.499100
H -13.457500 -12.356100 -28.299500
H -13.373900 -16.494300 -25.308300
H -13.349400 -16.075000 -27.534500
C -13.283600 -12.841900 -27.477800
H -13.274700 -11.146300 -26.365500
C -13.254100 -15.307800 -26.948300
H -12.327200 -12.992900 -27.421100
H -12.310000 -15.096100 -26.888100
7
Fragment
H -13.257100 -10.261300 -31.196200
O -13.236100 -9.910700 -29.131500
C -12.310500 -10.254000 -31.034600
N -12.043000 -9.944300 -29.539000
H -11.942200 -11.112600 -31.254600
H -11.898500 -9.579600 -31.579500
O -11.067300 -9.782100 -29.294900
56
Fragment
H -27.917700 -14.122500 -34.287100
H -27.644900 -16.369300 -34.043000
C -27.147600 -14.455000 -33.886500
C -26.981400 -15.790700 -33.742100
O -26.388200 -12.256600 -33.601200
C -26.161000 -13.573500 -33.431000
C -25.834600 -16.309500 -33.154200
H -25.786900 -11.827400 -33.245300
O -25.775600 -17.656400 -33.068200
H -25.073600 -17.876100 -32.705500
C -24.994800 -14.057500 -32.844800
C -24.824300 -15.466300 -32.698600
O -24.115200 -11.895400 -32.473400
C -23.958500 -13.124200 -32.373700
C -23.618800 -16.066700 -32.124500
O -23.452900 -17.284400 -32.005900
C -22.769900 -13.711100 -31.832200
C -22.619400 -15.084200 -31.686100
N -21.668700 -13.110800 -31.357800
N -21.429200 -15.363600 -31.129100
N -20.928900 -14.137300 -30.948600
N -19.699400 -13.799200 -30.403700
H -19.383400 -15.647000 -29.991100
C -19.030700 -14.788900 -29.927500
C -17.761200 -14.603500 -29.303500
H -17.617600 -12.623300 -29.514900
H -17.417100 -16.527700 -28.877100
C -17.166900 -13.368000 -29.186600
C -17.042700 -15.679000 -28.808400
C -15.931100 -13.188600 -28.600400
C -15.822800 -15.559900 -28.229000
H -15.565900 -12.334700 -28.540200
H -15.380100 -16.315700 -27.916200
C -15.224500 -14.287900 -28.100100
H -14.720300 -15.754600 -25.619500
H -14.662100 -11.875900 -26.346600
N -13.973200 -14.151900 -27.541400
C -13.765000 -15.663600 -25.590200
C -13.710400 -12.000600 -26.319100
H -13.528500 -14.971900 -24.967900
H -13.468900 -12.438900 -25.499100
H -13.457500 -12.356100 -28.299500
H -13.373900 -16.494300 -25.308300
H -13.349400 -16.075000 -27.534500
C -13.283600 -12.841900 -27.477800
H -13.274700 -11.146300 -26.365500
C -13.254100 -15.307800 -26.948300
H -12.327200 -12.992900 -27.421100
H -12.310000 -15.096100 -26.888100
H -13.257100 -10.261300 -31.196200
O -13.236100 -9.910700 -29.131500
C -12.310500 -10.254000 -31.034600
N -12.043000 -9.944300 -29.539000
H -11.942200 -11.112600 -31.254600
H -11.898500 -9.579600 -31.579500
O -11.067300 -9.782100 -29.294900
