20
Fragment
N -5.500500 -9.460000 -19.342500
H -5.372200 -6.475800 -18.722700
N -5.283200 -1.267800 -17.892100
H -5.282200 -4.229200 -18.323200
C -5.148800 -9.006800 -18.362500
C -5.059600 -6.161600 -17.870900
C -5.009800 -4.840300 -17.634700
C -4.933400 -2.026100 -17.113600
C -4.699000 -8.460700 -17.115200
C -4.654800 -7.113300 -16.875400
C -4.560300 -4.324700 -16.377900
C -4.516100 -2.977300 -16.138200
C -4.281700 -9.411900 -16.139700
C -4.205200 -6.597800 -15.618600
C -4.155400 -5.276400 -15.382400
C -4.066200 -2.431200 -14.890800
H -3.932900 -7.208800 -14.930100
N -3.931900 -10.170200 -15.361300
H -3.842900 -4.962200 -14.530600
N -3.714600 -1.978000 -13.910900
32
Fragment
H -4.497700 2.342300 -20.094800
H -4.444200 4.652200 -19.755100
H -4.285100 6.640100 -19.487200
C -4.180300 2.691400 -19.258700
H -4.161300 8.941700 -19.124900
C -4.137800 4.067600 -19.058300
C -3.972600 6.966200 -18.639800
C -3.903400 8.336100 -18.426100
H -3.816800 0.894400 -18.441300
C -3.778100 1.841400 -18.288300
C -3.666400 4.610200 -17.885000
C -3.603800 6.059900 -17.664300
C -3.471700 8.826300 -17.229200
H -3.435700 9.775600 -17.091300
C -3.304000 2.328700 -17.056200
C -3.244200 3.734100 -16.844600
C -3.139400 6.556800 -16.408700
C -3.079600 7.962200 -16.197100
H -2.947900 0.515300 -16.162000
C -2.911900 1.464600 -16.024100
C -2.779800 4.231000 -15.589000
C -2.717300 5.680700 -15.368400
C -2.605500 8.449500 -14.965000
H -2.566800 9.396500 -14.812000
C -2.480200 1.954800 -14.827200
C -2.411000 3.324700 -14.613500
C -2.245800 6.223300 -14.195100
H -2.222300 1.349200 -14.128400
C -2.203400 7.599500 -13.994700
H -2.098500 3.650800 -13.766100
H -1.939500 5.638700 -13.498200
H -1.886000 7.948600 -13.158600
52
Fragment
N -5.500500 -9.460000 -19.342500
H -5.372200 -6.475800 -18.722700
N -5.283200 -1.267800 -17.892100
H -5.282200 -4.229200 -18.323200
C -5.148800 -9.006800 -18.362500
C -5.059600 -6.161600 -17.870900
C -5.009800 -4.840300 -17.634700
C -4.933400 -2.026100 -17.113600
C -4.699000 -8.460700 -17.115200
C -4.654800 -7.113300 -16.875400
C -4.560300 -4.324700 -16.377900
C -4.516100 -2.977300 -16.138200
C -4.281700 -9.411900 -16.139700
C -4.205200 -6.597800 -15.618600
C -4.155400 -5.276400 -15.382400
C -4.066200 -2.431200 -14.890800
H -3.932900 -7.208800 -14.930100
N -3.931900 -10.170200 -15.361300
H -3.842900 -4.962200 -14.530600
N -3.714600 -1.978000 -13.910900
H -4.497700 2.342300 -20.094800
H -4.444200 4.652200 -19.755100
H -4.285100 6.640100 -19.487200
C -4.180300 2.691400 -19.258700
H -4.161300 8.941700 -19.124900
C -4.137800 4.067600 -19.058300
C -3.972600 6.966200 -18.639800
C -3.903400 8.336100 -18.426100
H -3.816800 0.894400 -18.441300
C -3.778100 1.841400 -18.288300
C -3.666400 4.610200 -17.885000
C -3.603800 6.059900 -17.664300
C -3.471700 8.826300 -17.229200
H -3.435700 9.775600 -17.091300
C -3.304000 2.328700 -17.056200
C -3.244200 3.734100 -16.844600
C -3.139400 6.556800 -16.408700
C -3.079600 7.962200 -16.197100
H -2.947900 0.515300 -16.162000
C -2.911900 1.464600 -16.024100
C -2.779800 4.231000 -15.589000
C -2.717300 5.680700 -15.368400
C -2.605500 8.449500 -14.965000
H -2.566800 9.396500 -14.812000
C -2.480200 1.954800 -14.827200
C -2.411000 3.324700 -14.613500
C -2.245800 6.223300 -14.195100
H -2.222300 1.349200 -14.128400
C -2.203400 7.599500 -13.994700
H -2.098500 3.650800 -13.766100
H -1.939500 5.638700 -13.498200
H -1.886000 7.948600 -13.158600
