20
Fragment
N -5.500500 -9.460000 -19.342500
H -5.372200 -6.475800 -18.722700
N -5.283200 -1.267800 -17.892100
H -5.282200 -4.229200 -18.323200
C -5.148800 -9.006800 -18.362500
C -5.059600 -6.161600 -17.870900
C -5.009800 -4.840300 -17.634700
C -4.933400 -2.026100 -17.113600
C -4.699000 -8.460700 -17.115200
C -4.654800 -7.113300 -16.875400
C -4.560300 -4.324700 -16.377900
C -4.516100 -2.977300 -16.138200
C -4.281700 -9.411900 -16.139700
C -4.205200 -6.597800 -15.618600
C -4.155400 -5.276400 -15.382400
C -4.066200 -2.431200 -14.890800
H -3.932900 -7.208800 -14.930100
N -3.931900 -10.170200 -15.361300
H -3.842900 -4.962200 -14.530600
N -3.714600 -1.978000 -13.910900
32
Fragment
H -7.001000 -6.487500 -20.919800
H -6.381800 -4.225800 -20.789400
C -6.148000 -6.207100 -21.260000
H -5.798800 -2.297200 -20.700200
C -5.775000 -4.858500 -21.180000
H -5.581300 -8.039500 -21.871600
C -5.310800 -7.119500 -21.815300
H -5.151600 -0.066800 -20.615200
C -4.943000 -2.044600 -21.053900
C -4.560100 -0.717500 -20.999500
C -4.549100 -4.419000 -21.652600
C -4.134600 -3.015600 -21.598700
C -4.080600 -6.742400 -22.296400
C -3.676800 -5.373200 -22.227200
H -3.438400 -8.605100 -22.894100
C -3.365500 -0.329200 -21.481600
C -3.190000 -7.678500 -22.856100
H -3.117100 0.597400 -21.443600
C -2.878600 -2.634500 -22.110600
C -2.474900 -1.265300 -22.041400
C -2.420900 -4.992100 -22.739100
C -2.006400 -3.588800 -22.685200
C -1.995400 -7.290200 -23.338300
C -1.612500 -5.963100 -23.283900
H -1.403800 -7.940900 -23.722600
C -1.244600 -0.888200 -22.522500
H -0.974200 0.031800 -22.466200
C -0.780500 -3.149200 -23.157700
H -0.756700 -5.710500 -23.637600
C -0.407500 -1.800600 -23.077800
H -0.173700 -3.781900 -23.548300
H 0.445600 -1.520200 -23.418000
52
Fragment
N -5.500500 -9.460000 -19.342500
H -5.372200 -6.475800 -18.722700
N -5.283200 -1.267800 -17.892100
H -5.282200 -4.229200 -18.323200
C -5.148800 -9.006800 -18.362500
C -5.059600 -6.161600 -17.870900
C -5.009800 -4.840300 -17.634700
C -4.933400 -2.026100 -17.113600
C -4.699000 -8.460700 -17.115200
C -4.654800 -7.113300 -16.875400
C -4.560300 -4.324700 -16.377900
C -4.516100 -2.977300 -16.138200
C -4.281700 -9.411900 -16.139700
C -4.205200 -6.597800 -15.618600
C -4.155400 -5.276400 -15.382400
C -4.066200 -2.431200 -14.890800
H -3.932900 -7.208800 -14.930100
N -3.931900 -10.170200 -15.361300
H -3.842900 -4.962200 -14.530600
N -3.714600 -1.978000 -13.910900
H -7.001000 -6.487500 -20.919800
H -6.381800 -4.225800 -20.789400
C -6.148000 -6.207100 -21.260000
H -5.798800 -2.297200 -20.700200
C -5.775000 -4.858500 -21.180000
H -5.581300 -8.039500 -21.871600
C -5.310800 -7.119500 -21.815300
H -5.151600 -0.066800 -20.615200
C -4.943000 -2.044600 -21.053900
C -4.560100 -0.717500 -20.999500
C -4.549100 -4.419000 -21.652600
C -4.134600 -3.015600 -21.598700
C -4.080600 -6.742400 -22.296400
C -3.676800 -5.373200 -22.227200
H -3.438400 -8.605100 -22.894100
C -3.365500 -0.329200 -21.481600
C -3.190000 -7.678500 -22.856100
H -3.117100 0.597400 -21.443600
C -2.878600 -2.634500 -22.110600
C -2.474900 -1.265300 -22.041400
C -2.420900 -4.992100 -22.739100
C -2.006400 -3.588800 -22.685200
C -1.995400 -7.290200 -23.338300
C -1.612500 -5.963100 -23.283900
H -1.403800 -7.940900 -23.722600
C -1.244600 -0.888200 -22.522500
H -0.974200 0.031800 -22.466200
C -0.780500 -3.149200 -23.157700
H -0.756700 -5.710500 -23.637600
C -0.407500 -1.800600 -23.077800
H -0.173700 -3.781900 -23.548300
H 0.445600 -1.520200 -23.418000
