20
Fragment
N -5.500500 -9.460000 -19.342500
H -5.372200 -6.475800 -18.722700
N -5.283200 -1.267800 -17.892100
H -5.282200 -4.229200 -18.323200
C -5.148800 -9.006800 -18.362500
C -5.059600 -6.161600 -17.870900
C -5.009800 -4.840300 -17.634700
C -4.933400 -2.026100 -17.113600
C -4.699000 -8.460700 -17.115200
C -4.654800 -7.113300 -16.875400
C -4.560300 -4.324700 -16.377900
C -4.516100 -2.977300 -16.138200
C -4.281700 -9.411900 -16.139700
C -4.205200 -6.597800 -15.618600
C -4.155400 -5.276400 -15.382400
C -4.066200 -2.431200 -14.890800
H -3.932900 -7.208800 -14.930100
N -3.931900 -10.170200 -15.361300
H -3.842900 -4.962200 -14.530600
N -3.714600 -1.978000 -13.910900
32
Fragment
H -2.322800 -8.522200 -20.094800
H -2.269300 -6.212200 -19.755100
H -2.110200 -4.224400 -19.487200
C -2.005400 -8.173000 -19.258700
H -1.986400 -1.922700 -19.124900
C -1.962900 -6.796800 -19.058300
C -1.797700 -3.898300 -18.639800
C -1.728600 -2.528400 -18.426100
H -1.641900 -9.970100 -18.441300
C -1.603200 -9.023100 -18.288300
C -1.491500 -6.254300 -17.885000
C -1.428900 -4.804600 -17.664300
C -1.296800 -2.038200 -17.229200
H -1.260900 -1.088800 -17.091300
C -1.129100 -8.535800 -17.056200
C -1.069300 -7.130300 -16.844600
C -0.964500 -4.307700 -16.408700
C -0.904700 -2.902200 -16.197100
H -0.773000 -10.349200 -16.162000
C -0.737000 -9.399800 -16.024100
C -0.604900 -6.633400 -15.589000
C -0.542400 -5.183700 -15.368400
C -0.430700 -2.414900 -14.965000
H -0.391900 -1.468000 -14.812000
C -0.305300 -8.909600 -14.827200
C -0.236200 -7.539700 -14.613500
C -0.070900 -4.641200 -14.195100
H -0.047500 -9.515300 -14.128400
C -0.028500 -3.265000 -13.994700
H 0.076300 -7.213600 -13.766100
H 0.235400 -5.225800 -13.498200
H 0.288900 -2.915800 -13.158600
52
Fragment
N -5.500500 -9.460000 -19.342500
H -5.372200 -6.475800 -18.722700
N -5.283200 -1.267800 -17.892100
H -5.282200 -4.229200 -18.323200
C -5.148800 -9.006800 -18.362500
C -5.059600 -6.161600 -17.870900
C -5.009800 -4.840300 -17.634700
C -4.933400 -2.026100 -17.113600
C -4.699000 -8.460700 -17.115200
C -4.654800 -7.113300 -16.875400
C -4.560300 -4.324700 -16.377900
C -4.516100 -2.977300 -16.138200
C -4.281700 -9.411900 -16.139700
C -4.205200 -6.597800 -15.618600
C -4.155400 -5.276400 -15.382400
C -4.066200 -2.431200 -14.890800
H -3.932900 -7.208800 -14.930100
N -3.931900 -10.170200 -15.361300
H -3.842900 -4.962200 -14.530600
N -3.714600 -1.978000 -13.910900
H -2.322800 -8.522200 -20.094800
H -2.269300 -6.212200 -19.755100
H -2.110200 -4.224400 -19.487200
C -2.005400 -8.173000 -19.258700
H -1.986400 -1.922700 -19.124900
C -1.962900 -6.796800 -19.058300
C -1.797700 -3.898300 -18.639800
C -1.728600 -2.528400 -18.426100
H -1.641900 -9.970100 -18.441300
C -1.603200 -9.023100 -18.288300
C -1.491500 -6.254300 -17.885000
C -1.428900 -4.804600 -17.664300
C -1.296800 -2.038200 -17.229200
H -1.260900 -1.088800 -17.091300
C -1.129100 -8.535800 -17.056200
C -1.069300 -7.130300 -16.844600
C -0.964500 -4.307700 -16.408700
C -0.904700 -2.902200 -16.197100
H -0.773000 -10.349200 -16.162000
C -0.737000 -9.399800 -16.024100
C -0.604900 -6.633400 -15.589000
C -0.542400 -5.183700 -15.368400
C -0.430700 -2.414900 -14.965000
H -0.391900 -1.468000 -14.812000
C -0.305300 -8.909600 -14.827200
C -0.236200 -7.539700 -14.613500
C -0.070900 -4.641200 -14.195100
H -0.047500 -9.515300 -14.128400
C -0.028500 -3.265000 -13.994700
H 0.076300 -7.213600 -13.766100
H 0.235400 -5.225800 -13.498200
H 0.288900 -2.915800 -13.158600
