25
Fragment
H -10.734500 -10.109400 -17.059700
H -10.731500 -9.412800 -19.215600
O -10.083600 -11.280700 -15.015100
N -9.990500 -10.566100 -17.172000
N -9.984000 -9.849800 -19.375600
H -9.620700 -9.821200 -20.175900
C -9.482600 -11.252000 -16.104700
C -9.403300 -10.554400 -18.403700
N -8.268400 -11.209500 -18.670800
C -8.247900 -11.927900 -16.368600
H -7.810100 -12.415100 -15.679600
C -7.706200 -11.865000 -17.618300
H -6.448800 -13.898000 -16.399300
C -6.427200 -12.555000 -17.954300
H -5.992900 -11.458100 -19.621500
C -5.942800 -13.615400 -17.151900
C -5.685300 -12.172900 -19.075700
C -4.751300 -14.245200 -17.439100
C -4.500700 -12.826600 -19.401100
H -4.421500 -14.941500 -16.883700
C -4.039200 -13.833900 -18.572200
H -4.015800 -12.584800 -20.181200
N -2.748800 -14.468200 -18.862600
O -2.255300 -14.256200 -19.968100
O -2.229300 -15.177800 -18.003000
25
Fragment
O -5.276700 -12.333100 -24.394400
O -5.250700 -13.254700 -22.429300
N -4.757200 -13.042700 -23.534800
H -3.490200 -14.926100 -22.216300
C -3.466700 -13.677100 -23.825200
H -3.084500 -12.569400 -25.513700
C -3.005300 -14.684300 -22.996400
C -2.754600 -13.265700 -24.958300
C -1.820700 -15.338100 -23.321800
C -1.563200 -13.895600 -25.245600
H -1.513100 -16.052800 -22.775900
C -1.078800 -14.955900 -24.443200
H -1.057100 -13.613000 -25.998100
C 0.200200 -15.646000 -24.779200
H 0.304100 -15.095900 -26.717800
C 0.741900 -15.583000 -26.028900
N 0.762400 -16.301500 -23.726700
C 1.897300 -16.956600 -23.993800
C 1.976600 -16.259000 -26.292800
H 2.114700 -17.689800 -22.221600
N 2.478000 -17.661100 -23.021800
N 2.484500 -16.944900 -25.225400
O 2.577600 -16.230200 -27.382400
H 3.225500 -18.098100 -23.181900
H 3.228500 -17.401600 -25.337800
50
Fragment
H -10.734500 -10.109400 -17.059700
H -10.731500 -9.412800 -19.215600
O -10.083600 -11.280700 -15.015100
N -9.990500 -10.566100 -17.172000
N -9.984000 -9.849800 -19.375600
H -9.620700 -9.821200 -20.175900
C -9.482600 -11.252000 -16.104700
C -9.403300 -10.554400 -18.403700
N -8.268400 -11.209500 -18.670800
C -8.247900 -11.927900 -16.368600
H -7.810100 -12.415100 -15.679600
C -7.706200 -11.865000 -17.618300
H -6.448800 -13.898000 -16.399300
C -6.427200 -12.555000 -17.954300
H -5.992900 -11.458100 -19.621500
C -5.942800 -13.615400 -17.151900
C -5.685300 -12.172900 -19.075700
C -4.751300 -14.245200 -17.439100
C -4.500700 -12.826600 -19.401100
H -4.421500 -14.941500 -16.883700
C -4.039200 -13.833900 -18.572200
H -4.015800 -12.584800 -20.181200
N -2.748800 -14.468200 -18.862600
O -2.255300 -14.256200 -19.968100
O -2.229300 -15.177800 -18.003000
O -5.276700 -12.333100 -24.394400
O -5.250700 -13.254700 -22.429300
N -4.757200 -13.042700 -23.534800
H -3.490200 -14.926100 -22.216300
C -3.466700 -13.677100 -23.825200
H -3.084500 -12.569400 -25.513700
C -3.005300 -14.684300 -22.996400
C -2.754600 -13.265700 -24.958300
C -1.820700 -15.338100 -23.321800
C -1.563200 -13.895600 -25.245600
H -1.513100 -16.052800 -22.775900
C -1.078800 -14.955900 -24.443200
H -1.057100 -13.613000 -25.998100
C 0.200200 -15.646000 -24.779200
H 0.304100 -15.095900 -26.717800
C 0.741900 -15.583000 -26.028900
N 0.762400 -16.301500 -23.726700
C 1.897300 -16.956600 -23.993800
C 1.976600 -16.259000 -26.292800
H 2.114700 -17.689800 -22.221600
N 2.478000 -17.661100 -23.021800
N 2.484500 -16.944900 -25.225400
O 2.577600 -16.230200 -27.382400
H 3.225500 -18.098100 -23.181900
H 3.228500 -17.401600 -25.337800
