25
Fragment
H -10.734500 -10.109400 -17.059700
H -10.731500 -9.412800 -19.215600
O -10.083600 -11.280700 -15.015100
N -9.990500 -10.566100 -17.172000
N -9.984000 -9.849800 -19.375600
H -9.620700 -9.821200 -20.175900
C -9.482600 -11.252000 -16.104700
C -9.403300 -10.554400 -18.403700
N -8.268400 -11.209500 -18.670800
C -8.247900 -11.927900 -16.368600
H -7.810100 -12.415100 -15.679600
C -7.706200 -11.865000 -17.618300
H -6.448800 -13.898000 -16.399300
C -6.427200 -12.555000 -17.954300
H -5.992900 -11.458100 -19.621500
C -5.942800 -13.615400 -17.151900
C -5.685300 -12.172900 -19.075700
C -4.751300 -14.245200 -17.439100
C -4.500700 -12.826600 -19.401100
H -4.421500 -14.941500 -16.883700
C -4.039200 -13.833900 -18.572200
H -4.015800 -12.584800 -20.181200
N -2.748800 -14.468200 -18.862600
O -2.255300 -14.256200 -19.968100
O -2.229300 -15.177800 -18.003000
25
Fragment
O -5.815800 -13.621700 -13.795100
O -5.789700 -14.543300 -11.829900
N -5.296200 -14.331300 -12.935500
H -4.029200 -16.214700 -11.616900
C -4.005800 -14.965600 -13.225900
H -3.623500 -13.858000 -14.914400
C -3.544300 -15.972900 -12.397000
C -3.293700 -14.554300 -14.359000
C -2.359700 -16.626600 -12.722400
C -2.102200 -15.184100 -14.646200
H -2.052100 -17.341400 -12.176500
C -1.617800 -16.244500 -13.843800
H -1.596200 -14.901600 -15.398800
C -0.338800 -16.934500 -14.179800
H -0.234900 -16.384500 -16.118500
C 0.202900 -16.871600 -15.429500
N 0.223400 -17.590000 -13.127300
C 1.358200 -18.245200 -13.394400
C 1.437600 -17.547600 -15.693400
H 1.575700 -18.978400 -11.622200
N 1.939000 -18.949700 -12.422500
N 1.945500 -18.233400 -14.626100
O 2.038600 -17.518800 -16.783000
H 2.686500 -19.386700 -12.582500
H 2.689500 -18.690200 -14.738400
50
Fragment
H -10.734500 -10.109400 -17.059700
H -10.731500 -9.412800 -19.215600
O -10.083600 -11.280700 -15.015100
N -9.990500 -10.566100 -17.172000
N -9.984000 -9.849800 -19.375600
H -9.620700 -9.821200 -20.175900
C -9.482600 -11.252000 -16.104700
C -9.403300 -10.554400 -18.403700
N -8.268400 -11.209500 -18.670800
C -8.247900 -11.927900 -16.368600
H -7.810100 -12.415100 -15.679600
C -7.706200 -11.865000 -17.618300
H -6.448800 -13.898000 -16.399300
C -6.427200 -12.555000 -17.954300
H -5.992900 -11.458100 -19.621500
C -5.942800 -13.615400 -17.151900
C -5.685300 -12.172900 -19.075700
C -4.751300 -14.245200 -17.439100
C -4.500700 -12.826600 -19.401100
H -4.421500 -14.941500 -16.883700
C -4.039200 -13.833900 -18.572200
H -4.015800 -12.584800 -20.181200
N -2.748800 -14.468200 -18.862600
O -2.255300 -14.256200 -19.968100
O -2.229300 -15.177800 -18.003000
O -5.815800 -13.621700 -13.795100
O -5.789700 -14.543300 -11.829900
N -5.296200 -14.331300 -12.935500
H -4.029200 -16.214700 -11.616900
C -4.005800 -14.965600 -13.225900
H -3.623500 -13.858000 -14.914400
C -3.544300 -15.972900 -12.397000
C -3.293700 -14.554300 -14.359000
C -2.359700 -16.626600 -12.722400
C -2.102200 -15.184100 -14.646200
H -2.052100 -17.341400 -12.176500
C -1.617800 -16.244500 -13.843800
H -1.596200 -14.901600 -15.398800
C -0.338800 -16.934500 -14.179800
H -0.234900 -16.384500 -16.118500
C 0.202900 -16.871600 -15.429500
N 0.223400 -17.590000 -13.127300
C 1.358200 -18.245200 -13.394400
C 1.437600 -17.547600 -15.693400
H 1.575700 -18.978400 -11.622200
N 1.939000 -18.949700 -12.422500
N 1.945500 -18.233400 -14.626100
O 2.038600 -17.518800 -16.783000
H 2.686500 -19.386700 -12.582500
H 2.689500 -18.690200 -14.738400
