25
Fragment
H -10.734500 -10.109400 -17.059700
H -10.731500 -9.412800 -19.215600
O -10.083600 -11.280700 -15.015100
N -9.990500 -10.566100 -17.172000
N -9.984000 -9.849800 -19.375600
H -9.620700 -9.821200 -20.175900
C -9.482600 -11.252000 -16.104700
C -9.403300 -10.554400 -18.403700
N -8.268400 -11.209500 -18.670800
C -8.247900 -11.927900 -16.368600
H -7.810100 -12.415100 -15.679600
C -7.706200 -11.865000 -17.618300
H -6.448800 -13.898000 -16.399300
C -6.427200 -12.555000 -17.954300
H -5.992900 -11.458100 -19.621500
C -5.942800 -13.615400 -17.151900
C -5.685300 -12.172900 -19.075700
C -4.751300 -14.245200 -17.439100
C -4.500700 -12.826600 -19.401100
H -4.421500 -14.941500 -16.883700
C -4.039200 -13.833900 -18.572200
H -4.015800 -12.584800 -20.181200
N -2.748800 -14.468200 -18.862600
O -2.255300 -14.256200 -19.968100
O -2.229300 -15.177800 -18.003000
25
Fragment
O -13.563800 -5.455400 -13.795100
O -13.537700 -6.377000 -11.829900
N -13.044200 -6.165000 -12.935500
H -11.777300 -8.048400 -11.616900
C -11.753800 -6.799300 -13.225900
H -11.371500 -5.691700 -14.914400
C -11.292300 -7.806600 -12.397000
C -11.041700 -6.388000 -14.359000
C -10.107800 -8.460300 -12.722400
C -9.850300 -7.017800 -14.646200
H -9.800200 -9.175100 -12.176500
C -9.365800 -8.078200 -13.843800
H -9.344200 -6.735200 -15.398800
C -8.086800 -8.768200 -14.179800
H -7.983000 -8.218100 -16.118500
C -7.545100 -8.705300 -15.429500
N -7.524600 -9.423700 -13.127300
C -6.389800 -10.078800 -13.394400
C -6.310500 -9.381200 -15.693400
H -6.172300 -10.812000 -11.622200
N -5.809000 -10.783400 -12.422500
N -5.802500 -10.067100 -14.626100
O -5.709400 -9.352500 -16.783000
H -5.061500 -11.220400 -12.582500
H -5.058500 -10.523800 -14.738400
50
Fragment
H -10.734500 -10.109400 -17.059700
H -10.731500 -9.412800 -19.215600
O -10.083600 -11.280700 -15.015100
N -9.990500 -10.566100 -17.172000
N -9.984000 -9.849800 -19.375600
H -9.620700 -9.821200 -20.175900
C -9.482600 -11.252000 -16.104700
C -9.403300 -10.554400 -18.403700
N -8.268400 -11.209500 -18.670800
C -8.247900 -11.927900 -16.368600
H -7.810100 -12.415100 -15.679600
C -7.706200 -11.865000 -17.618300
H -6.448800 -13.898000 -16.399300
C -6.427200 -12.555000 -17.954300
H -5.992900 -11.458100 -19.621500
C -5.942800 -13.615400 -17.151900
C -5.685300 -12.172900 -19.075700
C -4.751300 -14.245200 -17.439100
C -4.500700 -12.826600 -19.401100
H -4.421500 -14.941500 -16.883700
C -4.039200 -13.833900 -18.572200
H -4.015800 -12.584800 -20.181200
N -2.748800 -14.468200 -18.862600
O -2.255300 -14.256200 -19.968100
O -2.229300 -15.177800 -18.003000
O -13.563800 -5.455400 -13.795100
O -13.537700 -6.377000 -11.829900
N -13.044200 -6.165000 -12.935500
H -11.777300 -8.048400 -11.616900
C -11.753800 -6.799300 -13.225900
H -11.371500 -5.691700 -14.914400
C -11.292300 -7.806600 -12.397000
C -11.041700 -6.388000 -14.359000
C -10.107800 -8.460300 -12.722400
C -9.850300 -7.017800 -14.646200
H -9.800200 -9.175100 -12.176500
C -9.365800 -8.078200 -13.843800
H -9.344200 -6.735200 -15.398800
C -8.086800 -8.768200 -14.179800
H -7.983000 -8.218100 -16.118500
C -7.545100 -8.705300 -15.429500
N -7.524600 -9.423700 -13.127300
C -6.389800 -10.078800 -13.394400
C -6.310500 -9.381200 -15.693400
H -6.172300 -10.812000 -11.622200
N -5.809000 -10.783400 -12.422500
N -5.802500 -10.067100 -14.626100
O -5.709400 -9.352500 -16.783000
H -5.061500 -11.220400 -12.582500
H -5.058500 -10.523800 -14.738400
