25
Fragment
H -10.734500 -10.109400 -17.059700
H -10.731500 -9.412800 -19.215600
O -10.083600 -11.280700 -15.015100
N -9.990500 -10.566100 -17.172000
N -9.984000 -9.849800 -19.375600
H -9.620700 -9.821200 -20.175900
C -9.482600 -11.252000 -16.104700
C -9.403300 -10.554400 -18.403700
N -8.268400 -11.209500 -18.670800
C -8.247900 -11.927900 -16.368600
H -7.810100 -12.415100 -15.679600
C -7.706200 -11.865000 -17.618300
H -6.448800 -13.898000 -16.399300
C -6.427200 -12.555000 -17.954300
H -5.992900 -11.458100 -19.621500
C -5.942800 -13.615400 -17.151900
C -5.685300 -12.172900 -19.075700
C -4.751300 -14.245200 -17.439100
C -4.500700 -12.826600 -19.401100
H -4.421500 -14.941500 -16.883700
C -4.039200 -13.833900 -18.572200
H -4.015800 -12.584800 -20.181200
N -2.748800 -14.468200 -18.862600
O -2.255300 -14.256200 -19.968100
O -2.229300 -15.177800 -18.003000
25
Fragment
H -17.510200 -10.109400 -17.059700
H -17.507200 -9.412800 -19.215600
O -16.859300 -11.280700 -15.015100
N -16.766200 -10.566100 -17.172000
N -16.759700 -9.849800 -19.375600
H -16.396400 -9.821200 -20.175900
C -16.258300 -11.252000 -16.104700
C -16.179000 -10.554400 -18.403700
N -15.044100 -11.209500 -18.670800
C -15.023600 -11.927900 -16.368600
H -14.585800 -12.415100 -15.679600
C -14.481900 -11.865000 -17.618300
H -13.224500 -13.898000 -16.399300
C -13.202900 -12.555000 -17.954300
H -12.768600 -11.458100 -19.621500
C -12.718500 -13.615400 -17.151900
C -12.461000 -12.172900 -19.075700
C -11.527000 -14.245200 -17.439100
C -11.276400 -12.826600 -19.401100
H -11.197200 -14.941500 -16.883700
C -10.814900 -13.833900 -18.572200
H -10.791500 -12.584800 -20.181200
N -9.524500 -14.468200 -18.862600
O -9.031000 -14.256200 -19.968100
O -9.005000 -15.177800 -18.003000
50
Fragment
H -10.734500 -10.109400 -17.059700
H -10.731500 -9.412800 -19.215600
O -10.083600 -11.280700 -15.015100
N -9.990500 -10.566100 -17.172000
N -9.984000 -9.849800 -19.375600
H -9.620700 -9.821200 -20.175900
C -9.482600 -11.252000 -16.104700
C -9.403300 -10.554400 -18.403700
N -8.268400 -11.209500 -18.670800
C -8.247900 -11.927900 -16.368600
H -7.810100 -12.415100 -15.679600
C -7.706200 -11.865000 -17.618300
H -6.448800 -13.898000 -16.399300
C -6.427200 -12.555000 -17.954300
H -5.992900 -11.458100 -19.621500
C -5.942800 -13.615400 -17.151900
C -5.685300 -12.172900 -19.075700
C -4.751300 -14.245200 -17.439100
C -4.500700 -12.826600 -19.401100
H -4.421500 -14.941500 -16.883700
C -4.039200 -13.833900 -18.572200
H -4.015800 -12.584800 -20.181200
N -2.748800 -14.468200 -18.862600
O -2.255300 -14.256200 -19.968100
O -2.229300 -15.177800 -18.003000
H -17.510200 -10.109400 -17.059700
H -17.507200 -9.412800 -19.215600
O -16.859300 -11.280700 -15.015100
N -16.766200 -10.566100 -17.172000
N -16.759700 -9.849800 -19.375600
H -16.396400 -9.821200 -20.175900
C -16.258300 -11.252000 -16.104700
C -16.179000 -10.554400 -18.403700
N -15.044100 -11.209500 -18.670800
C -15.023600 -11.927900 -16.368600
H -14.585800 -12.415100 -15.679600
C -14.481900 -11.865000 -17.618300
H -13.224500 -13.898000 -16.399300
C -13.202900 -12.555000 -17.954300
H -12.768600 -11.458100 -19.621500
C -12.718500 -13.615400 -17.151900
C -12.461000 -12.172900 -19.075700
C -11.527000 -14.245200 -17.439100
C -11.276400 -12.826600 -19.401100
H -11.197200 -14.941500 -16.883700
C -10.814900 -13.833900 -18.572200
H -10.791500 -12.584800 -20.181200
N -9.524500 -14.468200 -18.862600
O -9.031000 -14.256200 -19.968100
O -9.005000 -15.177800 -18.003000
