25
Fragment
H -10.734500 -10.109400 -17.059700
H -10.731500 -9.412800 -19.215600
O -10.083600 -11.280700 -15.015100
N -9.990500 -10.566100 -17.172000
N -9.984000 -9.849800 -19.375600
H -9.620700 -9.821200 -20.175900
C -9.482600 -11.252000 -16.104700
C -9.403300 -10.554400 -18.403700
N -8.268400 -11.209500 -18.670800
C -8.247900 -11.927900 -16.368600
H -7.810100 -12.415100 -15.679600
C -7.706200 -11.865000 -17.618300
H -6.448800 -13.898000 -16.399300
C -6.427200 -12.555000 -17.954300
H -5.992900 -11.458100 -19.621500
C -5.942800 -13.615400 -17.151900
C -5.685300 -12.172900 -19.075700
C -4.751300 -14.245200 -17.439100
C -4.500700 -12.826600 -19.401100
H -4.421500 -14.941500 -16.883700
C -4.039200 -13.833900 -18.572200
H -4.015800 -12.584800 -20.181200
N -2.748800 -14.468200 -18.862600
O -2.255300 -14.256200 -19.968100
O -2.229300 -15.177800 -18.003000
25
Fragment
O -20.339500 -5.455400 -13.795100
O -20.313400 -6.377000 -11.829900
N -19.819900 -6.165000 -12.935500
H -18.553000 -8.048400 -11.616900
C -18.529500 -6.799300 -13.225900
H -18.147200 -5.691700 -14.914400
C -18.068000 -7.806600 -12.397000
C -17.817400 -6.388000 -14.359000
C -16.883500 -8.460300 -12.722400
C -16.626000 -7.017800 -14.646200
H -16.575900 -9.175100 -12.176500
C -16.141500 -8.078200 -13.843800
H -16.119900 -6.735200 -15.398800
C -14.862500 -8.768200 -14.179800
H -14.758700 -8.218100 -16.118500
C -14.320800 -8.705300 -15.429500
N -14.300300 -9.423700 -13.127300
C -13.165500 -10.078800 -13.394400
C -13.086200 -9.381200 -15.693400
H -12.948000 -10.812000 -11.622200
N -12.584700 -10.783400 -12.422500
N -12.578200 -10.067100 -14.626100
O -12.485100 -9.352500 -16.783000
H -11.837200 -11.220400 -12.582500
H -11.834200 -10.523800 -14.738400
50
Fragment
H -10.734500 -10.109400 -17.059700
H -10.731500 -9.412800 -19.215600
O -10.083600 -11.280700 -15.015100
N -9.990500 -10.566100 -17.172000
N -9.984000 -9.849800 -19.375600
H -9.620700 -9.821200 -20.175900
C -9.482600 -11.252000 -16.104700
C -9.403300 -10.554400 -18.403700
N -8.268400 -11.209500 -18.670800
C -8.247900 -11.927900 -16.368600
H -7.810100 -12.415100 -15.679600
C -7.706200 -11.865000 -17.618300
H -6.448800 -13.898000 -16.399300
C -6.427200 -12.555000 -17.954300
H -5.992900 -11.458100 -19.621500
C -5.942800 -13.615400 -17.151900
C -5.685300 -12.172900 -19.075700
C -4.751300 -14.245200 -17.439100
C -4.500700 -12.826600 -19.401100
H -4.421500 -14.941500 -16.883700
C -4.039200 -13.833900 -18.572200
H -4.015800 -12.584800 -20.181200
N -2.748800 -14.468200 -18.862600
O -2.255300 -14.256200 -19.968100
O -2.229300 -15.177800 -18.003000
O -20.339500 -5.455400 -13.795100
O -20.313400 -6.377000 -11.829900
N -19.819900 -6.165000 -12.935500
H -18.553000 -8.048400 -11.616900
C -18.529500 -6.799300 -13.225900
H -18.147200 -5.691700 -14.914400
C -18.068000 -7.806600 -12.397000
C -17.817400 -6.388000 -14.359000
C -16.883500 -8.460300 -12.722400
C -16.626000 -7.017800 -14.646200
H -16.575900 -9.175100 -12.176500
C -16.141500 -8.078200 -13.843800
H -16.119900 -6.735200 -15.398800
C -14.862500 -8.768200 -14.179800
H -14.758700 -8.218100 -16.118500
C -14.320800 -8.705300 -15.429500
N -14.300300 -9.423700 -13.127300
C -13.165500 -10.078800 -13.394400
C -13.086200 -9.381200 -15.693400
H -12.948000 -10.812000 -11.622200
N -12.584700 -10.783400 -12.422500
N -12.578200 -10.067100 -14.626100
O -12.485100 -9.352500 -16.783000
H -11.837200 -11.220400 -12.582500
H -11.834200 -10.523800 -14.738400
