36
Fragment
H -17.766800 -9.915300 -27.595300
H -17.635600 -11.235100 -25.759800
C -17.448800 -10.785000 -27.683000
H -17.400700 -9.567900 -30.055400
C -17.373400 -11.575700 -26.585200
C -17.088300 -10.441300 -30.120700
C -17.054500 -11.253700 -28.958200
H -17.030000 -13.438900 -24.695600
C -16.901400 -12.918000 -26.665800
C -16.800500 -13.766200 -25.535400
H -16.690700 -10.342500 -32.062400
C -16.675600 -10.909600 -31.325300
C -16.585400 -12.586900 -29.077500
C -16.522000 -13.426600 -27.926700
C -16.373200 -15.053700 -25.657300
H -16.309700 -15.583700 -24.896100
C -16.221600 -12.243900 -31.485200
C -16.188100 -13.085600 -30.348200
C -16.083800 -14.778300 -28.055500
C -16.021800 -15.609400 -26.917200
C -15.794900 -12.760400 -32.734500
H -15.793700 -12.208500 -33.483300
C -15.759000 -14.435800 -30.477000
C -15.723000 -15.286100 -29.338700
C -15.617900 -16.958700 -27.084700
H -15.567600 -17.517300 -26.342100
C -15.387700 -14.048800 -32.855600
C -15.376800 -14.931900 -31.744300
C -15.328300 -16.635800 -29.474900
C -15.304100 -17.447600 -28.310900
H -15.109100 -14.361900 -33.685800
H -15.065400 -18.343200 -28.391500
C -14.987200 -16.291700 -31.846700
C -14.975800 -17.110000 -30.768200
H -14.732900 -18.001600 -30.874800
H -14.732900 -16.630400 -32.675500
36
Fragment
H -19.619500 -22.759400 -17.324900
H -19.619500 -21.388200 -15.524100
C -19.376600 -21.867800 -17.431500
C -19.365200 -21.049500 -16.353000
H -19.287000 -23.101000 -19.808100
H -19.243200 -19.119700 -14.513900
C -19.048300 -22.205400 -19.888700
C -19.024100 -21.393600 -18.724800
C -18.975600 -19.689700 -16.455400
C -18.964700 -18.806600 -15.344100
H -18.784800 -22.275100 -21.857600
C -18.734400 -21.716500 -21.114900
C -18.629400 -20.043900 -18.860900
C -18.593300 -19.193600 -17.722600
H -18.558700 -16.966300 -14.716300
C -18.557500 -17.518200 -15.465200
C -18.330500 -20.367200 -21.282500
C -18.268500 -19.536100 -20.144200
C -18.164300 -17.843400 -17.851400
C -18.130800 -17.001700 -16.714500
H -18.042700 -20.341500 -23.303600
C -17.979200 -19.811500 -22.542400
C -17.830400 -18.184400 -20.273000
C -17.766900 -17.344700 -19.122200
C -17.676700 -15.667400 -16.874300
H -17.661700 -15.100300 -16.137200
C -17.551900 -18.524000 -22.664300
C -17.451000 -17.675800 -21.533900
H -17.322400 -18.196700 -23.504100
C -17.297900 -16.011500 -19.241500
C -17.264100 -15.199100 -18.078900
C -16.979000 -16.333500 -21.614500
H -16.951600 -14.325700 -18.144300
C -16.903600 -15.542800 -20.516700
H -16.716700 -15.992900 -22.439800
H -16.585600 -14.673100 -20.604400
72
Fragment
H -17.766800 -9.915300 -27.595300
H -17.635600 -11.235100 -25.759800
C -17.448800 -10.785000 -27.683000
H -17.400700 -9.567900 -30.055400
C -17.373400 -11.575700 -26.585200
C -17.088300 -10.441300 -30.120700
C -17.054500 -11.253700 -28.958200
H -17.030000 -13.438900 -24.695600
C -16.901400 -12.918000 -26.665800
C -16.800500 -13.766200 -25.535400
H -16.690700 -10.342500 -32.062400
C -16.675600 -10.909600 -31.325300
C -16.585400 -12.586900 -29.077500
C -16.522000 -13.426600 -27.926700
C -16.373200 -15.053700 -25.657300
H -16.309700 -15.583700 -24.896100
C -16.221600 -12.243900 -31.485200
C -16.188100 -13.085600 -30.348200
C -16.083800 -14.778300 -28.055500
C -16.021800 -15.609400 -26.917200
C -15.794900 -12.760400 -32.734500
H -15.793700 -12.208500 -33.483300
C -15.759000 -14.435800 -30.477000
C -15.723000 -15.286100 -29.338700
C -15.617900 -16.958700 -27.084700
H -15.567600 -17.517300 -26.342100
C -15.387700 -14.048800 -32.855600
C -15.376800 -14.931900 -31.744300
C -15.328300 -16.635800 -29.474900
C -15.304100 -17.447600 -28.310900
H -15.109100 -14.361900 -33.685800
H -15.065400 -18.343200 -28.391500
C -14.987200 -16.291700 -31.846700
C -14.975800 -17.110000 -30.768200
H -14.732900 -18.001600 -30.874800
H -14.732900 -16.630400 -32.675500
H -19.619500 -22.759400 -17.324900
H -19.619500 -21.388200 -15.524100
C -19.376600 -21.867800 -17.431500
C -19.365200 -21.049500 -16.353000
H -19.287000 -23.101000 -19.808100
H -19.243200 -19.119700 -14.513900
C -19.048300 -22.205400 -19.888700
C -19.024100 -21.393600 -18.724800
C -18.975600 -19.689700 -16.455400
C -18.964700 -18.806600 -15.344100
H -18.784800 -22.275100 -21.857600
C -18.734400 -21.716500 -21.114900
C -18.629400 -20.043900 -18.860900
C -18.593300 -19.193600 -17.722600
H -18.558700 -16.966300 -14.716300
C -18.557500 -17.518200 -15.465200
C -18.330500 -20.367200 -21.282500
C -18.268500 -19.536100 -20.144200
C -18.164300 -17.843400 -17.851400
C -18.130800 -17.001700 -16.714500
H -18.042700 -20.341500 -23.303600
C -17.979200 -19.811500 -22.542400
C -17.830400 -18.184400 -20.273000
C -17.766900 -17.344700 -19.122200
C -17.676700 -15.667400 -16.874300
H -17.661700 -15.100300 -16.137200
C -17.551900 -18.524000 -22.664300
C -17.451000 -17.675800 -21.533900
H -17.322400 -18.196700 -23.504100
C -17.297900 -16.011500 -19.241500
C -17.264100 -15.199100 -18.078900
C -16.979000 -16.333500 -21.614500
H -16.951600 -14.325700 -18.144300
C -16.903600 -15.542800 -20.516700
H -16.716700 -15.992900 -22.439800
H -16.585600 -14.673100 -20.604400
