36
Fragment
H -17.766800 -9.915300 -27.595300
H -17.635600 -11.235100 -25.759800
C -17.448800 -10.785000 -27.683000
H -17.400700 -9.567900 -30.055400
C -17.373400 -11.575700 -26.585200
C -17.088300 -10.441300 -30.120700
C -17.054500 -11.253700 -28.958200
H -17.030000 -13.438900 -24.695600
C -16.901400 -12.918000 -26.665800
C -16.800500 -13.766200 -25.535400
H -16.690700 -10.342500 -32.062400
C -16.675600 -10.909600 -31.325300
C -16.585400 -12.586900 -29.077500
C -16.522000 -13.426600 -27.926700
C -16.373200 -15.053700 -25.657300
H -16.309700 -15.583700 -24.896100
C -16.221600 -12.243900 -31.485200
C -16.188100 -13.085600 -30.348200
C -16.083800 -14.778300 -28.055500
C -16.021800 -15.609400 -26.917200
C -15.794900 -12.760400 -32.734500
H -15.793700 -12.208500 -33.483300
C -15.759000 -14.435800 -30.477000
C -15.723000 -15.286100 -29.338700
C -15.617900 -16.958700 -27.084700
H -15.567600 -17.517300 -26.342100
C -15.387700 -14.048800 -32.855600
C -15.376800 -14.931900 -31.744300
C -15.328300 -16.635800 -29.474900
C -15.304100 -17.447600 -28.310900
H -15.109100 -14.361900 -33.685800
H -15.065400 -18.343200 -28.391500
C -14.987200 -16.291700 -31.846700
C -14.975800 -17.110000 -30.768200
H -14.732900 -18.001600 -30.874800
H -14.732900 -16.630400 -32.675500
36
Fragment
H -17.766800 -19.430900 -27.595300
H -17.635600 -20.750700 -25.759800
C -17.448800 -20.300600 -27.683000
H -17.400700 -19.083500 -30.055400
C -17.373400 -21.091300 -26.585200
C -17.088300 -19.956900 -30.120700
C -17.054500 -20.769300 -28.958200
H -17.030000 -22.954500 -24.695600
C -16.901400 -22.433600 -26.665800
C -16.800500 -23.281800 -25.535400
H -16.690700 -19.858100 -32.062400
C -16.675600 -20.425200 -31.325300
C -16.585400 -22.102500 -29.077500
C -16.522000 -22.942200 -27.926700
C -16.373200 -24.569300 -25.657300
H -16.309700 -25.099300 -24.896100
C -16.221600 -21.759500 -31.485200
C -16.188100 -22.601200 -30.348200
C -16.083800 -24.293900 -28.055500
C -16.021800 -25.125000 -26.917200
C -15.794900 -22.276000 -32.734500
H -15.793700 -21.724100 -33.483300
C -15.759000 -23.951400 -30.477000
C -15.723000 -24.801700 -29.338700
C -15.617900 -26.474300 -27.084700
H -15.567600 -27.032900 -26.342100
C -15.387700 -23.564400 -32.855600
C -15.376800 -24.447500 -31.744300
C -15.328300 -26.151400 -29.474900
C -15.304100 -26.963200 -28.310900
H -15.109100 -23.877500 -33.685800
H -15.065400 -27.858800 -28.391500
C -14.987200 -25.807300 -31.846700
C -14.975800 -26.625600 -30.768200
H -14.732900 -27.517200 -30.874800
H -14.732900 -26.146000 -32.675500
72
Fragment
H -17.766800 -9.915300 -27.595300
H -17.635600 -11.235100 -25.759800
C -17.448800 -10.785000 -27.683000
H -17.400700 -9.567900 -30.055400
C -17.373400 -11.575700 -26.585200
C -17.088300 -10.441300 -30.120700
C -17.054500 -11.253700 -28.958200
H -17.030000 -13.438900 -24.695600
C -16.901400 -12.918000 -26.665800
C -16.800500 -13.766200 -25.535400
H -16.690700 -10.342500 -32.062400
C -16.675600 -10.909600 -31.325300
C -16.585400 -12.586900 -29.077500
C -16.522000 -13.426600 -27.926700
C -16.373200 -15.053700 -25.657300
H -16.309700 -15.583700 -24.896100
C -16.221600 -12.243900 -31.485200
C -16.188100 -13.085600 -30.348200
C -16.083800 -14.778300 -28.055500
C -16.021800 -15.609400 -26.917200
C -15.794900 -12.760400 -32.734500
H -15.793700 -12.208500 -33.483300
C -15.759000 -14.435800 -30.477000
C -15.723000 -15.286100 -29.338700
C -15.617900 -16.958700 -27.084700
H -15.567600 -17.517300 -26.342100
C -15.387700 -14.048800 -32.855600
C -15.376800 -14.931900 -31.744300
C -15.328300 -16.635800 -29.474900
C -15.304100 -17.447600 -28.310900
H -15.109100 -14.361900 -33.685800
H -15.065400 -18.343200 -28.391500
C -14.987200 -16.291700 -31.846700
C -14.975800 -17.110000 -30.768200
H -14.732900 -18.001600 -30.874800
H -14.732900 -16.630400 -32.675500
H -17.766800 -19.430900 -27.595300
H -17.635600 -20.750700 -25.759800
C -17.448800 -20.300600 -27.683000
H -17.400700 -19.083500 -30.055400
C -17.373400 -21.091300 -26.585200
C -17.088300 -19.956900 -30.120700
C -17.054500 -20.769300 -28.958200
H -17.030000 -22.954500 -24.695600
C -16.901400 -22.433600 -26.665800
C -16.800500 -23.281800 -25.535400
H -16.690700 -19.858100 -32.062400
C -16.675600 -20.425200 -31.325300
C -16.585400 -22.102500 -29.077500
C -16.522000 -22.942200 -27.926700
C -16.373200 -24.569300 -25.657300
H -16.309700 -25.099300 -24.896100
C -16.221600 -21.759500 -31.485200
C -16.188100 -22.601200 -30.348200
C -16.083800 -24.293900 -28.055500
C -16.021800 -25.125000 -26.917200
C -15.794900 -22.276000 -32.734500
H -15.793700 -21.724100 -33.483300
C -15.759000 -23.951400 -30.477000
C -15.723000 -24.801700 -29.338700
C -15.617900 -26.474300 -27.084700
H -15.567600 -27.032900 -26.342100
C -15.387700 -23.564400 -32.855600
C -15.376800 -24.447500 -31.744300
C -15.328300 -26.151400 -29.474900
C -15.304100 -26.963200 -28.310900
H -15.109100 -23.877500 -33.685800
H -15.065400 -27.858800 -28.391500
C -14.987200 -25.807300 -31.846700
C -14.975800 -26.625600 -30.768200
H -14.732900 -27.517200 -30.874800
H -14.732900 -26.146000 -32.675500
