36
Fragment
H -17.766800 -9.915300 -27.595300
H -17.635600 -11.235100 -25.759800
C -17.448800 -10.785000 -27.683000
H -17.400700 -9.567900 -30.055400
C -17.373400 -11.575700 -26.585200
C -17.088300 -10.441300 -30.120700
C -17.054500 -11.253700 -28.958200
H -17.030000 -13.438900 -24.695600
C -16.901400 -12.918000 -26.665800
C -16.800500 -13.766200 -25.535400
H -16.690700 -10.342500 -32.062400
C -16.675600 -10.909600 -31.325300
C -16.585400 -12.586900 -29.077500
C -16.522000 -13.426600 -27.926700
C -16.373200 -15.053700 -25.657300
H -16.309700 -15.583700 -24.896100
C -16.221600 -12.243900 -31.485200
C -16.188100 -13.085600 -30.348200
C -16.083800 -14.778300 -28.055500
C -16.021800 -15.609400 -26.917200
C -15.794900 -12.760400 -32.734500
H -15.793700 -12.208500 -33.483300
C -15.759000 -14.435800 -30.477000
C -15.723000 -15.286100 -29.338700
C -15.617900 -16.958700 -27.084700
H -15.567600 -17.517300 -26.342100
C -15.387700 -14.048800 -32.855600
C -15.376800 -14.931900 -31.744300
C -15.328300 -16.635800 -29.474900
C -15.304100 -17.447600 -28.310900
H -15.109100 -14.361900 -33.685800
H -15.065400 -18.343200 -28.391500
C -14.987200 -16.291700 -31.846700
C -14.975800 -17.110000 -30.768200
H -14.732900 -18.001600 -30.874800
H -14.732900 -16.630400 -32.675500
20
Fragment
F -15.660900 -20.532900 -17.187200
F -15.637200 -21.597600 -19.584700
N -15.512900 -22.575100 -22.482100
N -15.384200 -19.131600 -14.496100
C -15.226100 -19.797600 -18.211600
C -15.212500 -20.337300 -19.437800
C -15.208800 -21.516700 -22.161000
C -15.141900 -18.628100 -15.495200
C -14.804000 -20.164500 -21.877100
C -14.801000 -18.444600 -17.949600
C -14.792400 -19.617800 -20.610200
C -14.789500 -17.897900 -16.682700
C -14.451600 -19.434300 -23.064500
C -14.384700 -16.545700 -16.398700
C -14.380900 -17.725100 -19.122000
C -14.367400 -18.264800 -20.348200
N -14.209300 -18.930800 -24.063600
N -14.080600 -15.487300 -16.077700
F -13.956300 -16.464800 -18.975000
F -13.932500 -17.529500 -21.372500
56
Fragment
H -17.766800 -9.915300 -27.595300
H -17.635600 -11.235100 -25.759800
C -17.448800 -10.785000 -27.683000
H -17.400700 -9.567900 -30.055400
C -17.373400 -11.575700 -26.585200
C -17.088300 -10.441300 -30.120700
C -17.054500 -11.253700 -28.958200
H -17.030000 -13.438900 -24.695600
C -16.901400 -12.918000 -26.665800
C -16.800500 -13.766200 -25.535400
H -16.690700 -10.342500 -32.062400
C -16.675600 -10.909600 -31.325300
C -16.585400 -12.586900 -29.077500
C -16.522000 -13.426600 -27.926700
C -16.373200 -15.053700 -25.657300
H -16.309700 -15.583700 -24.896100
C -16.221600 -12.243900 -31.485200
C -16.188100 -13.085600 -30.348200
C -16.083800 -14.778300 -28.055500
C -16.021800 -15.609400 -26.917200
C -15.794900 -12.760400 -32.734500
H -15.793700 -12.208500 -33.483300
C -15.759000 -14.435800 -30.477000
C -15.723000 -15.286100 -29.338700
C -15.617900 -16.958700 -27.084700
H -15.567600 -17.517300 -26.342100
C -15.387700 -14.048800 -32.855600
C -15.376800 -14.931900 -31.744300
C -15.328300 -16.635800 -29.474900
C -15.304100 -17.447600 -28.310900
H -15.109100 -14.361900 -33.685800
H -15.065400 -18.343200 -28.391500
C -14.987200 -16.291700 -31.846700
C -14.975800 -17.110000 -30.768200
H -14.732900 -18.001600 -30.874800
H -14.732900 -16.630400 -32.675500
F -15.660900 -20.532900 -17.187200
F -15.637200 -21.597600 -19.584700
N -15.512900 -22.575100 -22.482100
N -15.384200 -19.131600 -14.496100
C -15.226100 -19.797600 -18.211600
C -15.212500 -20.337300 -19.437800
C -15.208800 -21.516700 -22.161000
C -15.141900 -18.628100 -15.495200
C -14.804000 -20.164500 -21.877100
C -14.801000 -18.444600 -17.949600
C -14.792400 -19.617800 -20.610200
C -14.789500 -17.897900 -16.682700
C -14.451600 -19.434300 -23.064500
C -14.384700 -16.545700 -16.398700
C -14.380900 -17.725100 -19.122000
C -14.367400 -18.264800 -20.348200
N -14.209300 -18.930800 -24.063600
N -14.080600 -15.487300 -16.077700
F -13.956300 -16.464800 -18.975000
F -13.932500 -17.529500 -21.372500
