36
Fragment
H -17.766800 -9.915300 -27.595300
H -17.635600 -11.235100 -25.759800
C -17.448800 -10.785000 -27.683000
H -17.400700 -9.567900 -30.055400
C -17.373400 -11.575700 -26.585200
C -17.088300 -10.441300 -30.120700
C -17.054500 -11.253700 -28.958200
H -17.030000 -13.438900 -24.695600
C -16.901400 -12.918000 -26.665800
C -16.800500 -13.766200 -25.535400
H -16.690700 -10.342500 -32.062400
C -16.675600 -10.909600 -31.325300
C -16.585400 -12.586900 -29.077500
C -16.522000 -13.426600 -27.926700
C -16.373200 -15.053700 -25.657300
H -16.309700 -15.583700 -24.896100
C -16.221600 -12.243900 -31.485200
C -16.188100 -13.085600 -30.348200
C -16.083800 -14.778300 -28.055500
C -16.021800 -15.609400 -26.917200
C -15.794900 -12.760400 -32.734500
H -15.793700 -12.208500 -33.483300
C -15.759000 -14.435800 -30.477000
C -15.723000 -15.286100 -29.338700
C -15.617900 -16.958700 -27.084700
H -15.567600 -17.517300 -26.342100
C -15.387700 -14.048800 -32.855600
C -15.376800 -14.931900 -31.744300
C -15.328300 -16.635800 -29.474900
C -15.304100 -17.447600 -28.310900
H -15.109100 -14.361900 -33.685800
H -15.065400 -18.343200 -28.391500
C -14.987200 -16.291700 -31.846700
C -14.975800 -17.110000 -30.768200
H -14.732900 -18.001600 -30.874800
H -14.732900 -16.630400 -32.675500
20
Fragment
F -20.419800 -3.256100 -26.827200
F -20.396100 -2.191400 -29.224600
N -20.271800 -1.213900 -32.122000
N -20.143100 -4.657400 -24.136100
C -19.985000 -3.991400 -27.851500
C -19.971400 -3.451700 -29.077700
C -19.967700 -2.272300 -31.801000
C -19.900800 -5.160900 -25.135200
C -19.562900 -3.624500 -31.517000
C -19.559900 -5.344400 -27.589500
C -19.551300 -4.171200 -30.250100
C -19.548400 -5.891100 -26.322600
C -19.210500 -4.354700 -32.704400
C -19.143600 -7.243300 -26.038600
C -19.139800 -6.063900 -28.761900
C -19.126300 -5.524200 -29.988100
N -18.968200 -4.858200 -33.703500
N -18.839500 -8.301700 -25.717600
F -18.715200 -7.324200 -28.615000
F -18.691400 -6.259500 -31.012400
56
Fragment
H -17.766800 -9.915300 -27.595300
H -17.635600 -11.235100 -25.759800
C -17.448800 -10.785000 -27.683000
H -17.400700 -9.567900 -30.055400
C -17.373400 -11.575700 -26.585200
C -17.088300 -10.441300 -30.120700
C -17.054500 -11.253700 -28.958200
H -17.030000 -13.438900 -24.695600
C -16.901400 -12.918000 -26.665800
C -16.800500 -13.766200 -25.535400
H -16.690700 -10.342500 -32.062400
C -16.675600 -10.909600 -31.325300
C -16.585400 -12.586900 -29.077500
C -16.522000 -13.426600 -27.926700
C -16.373200 -15.053700 -25.657300
H -16.309700 -15.583700 -24.896100
C -16.221600 -12.243900 -31.485200
C -16.188100 -13.085600 -30.348200
C -16.083800 -14.778300 -28.055500
C -16.021800 -15.609400 -26.917200
C -15.794900 -12.760400 -32.734500
H -15.793700 -12.208500 -33.483300
C -15.759000 -14.435800 -30.477000
C -15.723000 -15.286100 -29.338700
C -15.617900 -16.958700 -27.084700
H -15.567600 -17.517300 -26.342100
C -15.387700 -14.048800 -32.855600
C -15.376800 -14.931900 -31.744300
C -15.328300 -16.635800 -29.474900
C -15.304100 -17.447600 -28.310900
H -15.109100 -14.361900 -33.685800
H -15.065400 -18.343200 -28.391500
C -14.987200 -16.291700 -31.846700
C -14.975800 -17.110000 -30.768200
H -14.732900 -18.001600 -30.874800
H -14.732900 -16.630400 -32.675500
F -20.419800 -3.256100 -26.827200
F -20.396100 -2.191400 -29.224600
N -20.271800 -1.213900 -32.122000
N -20.143100 -4.657400 -24.136100
C -19.985000 -3.991400 -27.851500
C -19.971400 -3.451700 -29.077700
C -19.967700 -2.272300 -31.801000
C -19.900800 -5.160900 -25.135200
C -19.562900 -3.624500 -31.517000
C -19.559900 -5.344400 -27.589500
C -19.551300 -4.171200 -30.250100
C -19.548400 -5.891100 -26.322600
C -19.210500 -4.354700 -32.704400
C -19.143600 -7.243300 -26.038600
C -19.139800 -6.063900 -28.761900
C -19.126300 -5.524200 -29.988100
N -18.968200 -4.858200 -33.703500
N -18.839500 -8.301700 -25.717600
F -18.715200 -7.324200 -28.615000
F -18.691400 -6.259500 -31.012400
