36
Fragment
H -17.766800 -9.915300 -27.595300
H -17.635600 -11.235100 -25.759800
C -17.448800 -10.785000 -27.683000
H -17.400700 -9.567900 -30.055400
C -17.373400 -11.575700 -26.585200
C -17.088300 -10.441300 -30.120700
C -17.054500 -11.253700 -28.958200
H -17.030000 -13.438900 -24.695600
C -16.901400 -12.918000 -26.665800
C -16.800500 -13.766200 -25.535400
H -16.690700 -10.342500 -32.062400
C -16.675600 -10.909600 -31.325300
C -16.585400 -12.586900 -29.077500
C -16.522000 -13.426600 -27.926700
C -16.373200 -15.053700 -25.657300
H -16.309700 -15.583700 -24.896100
C -16.221600 -12.243900 -31.485200
C -16.188100 -13.085600 -30.348200
C -16.083800 -14.778300 -28.055500
C -16.021800 -15.609400 -26.917200
C -15.794900 -12.760400 -32.734500
H -15.793700 -12.208500 -33.483300
C -15.759000 -14.435800 -30.477000
C -15.723000 -15.286100 -29.338700
C -15.617900 -16.958700 -27.084700
H -15.567600 -17.517300 -26.342100
C -15.387700 -14.048800 -32.855600
C -15.376800 -14.931900 -31.744300
C -15.328300 -16.635800 -29.474900
C -15.304100 -17.447600 -28.310900
H -15.109100 -14.361900 -33.685800
H -15.065400 -18.343200 -28.391500
C -14.987200 -16.291700 -31.846700
C -14.975800 -17.110000 -30.768200
H -14.732900 -18.001600 -30.874800
H -14.732900 -16.630400 -32.675500
20
Fragment
F -14.620800 -11.017300 -36.467100
F -14.597100 -12.082000 -38.864500
N -14.472700 -13.059500 -41.761900
N -14.344100 -9.616000 -33.776000
C -14.186000 -10.282000 -37.491400
C -14.172400 -10.821700 -38.717600
C -14.168700 -12.001100 -41.440900
C -14.101800 -9.112500 -34.775100
C -13.763900 -10.648900 -41.156900
C -13.760900 -8.929000 -37.229400
C -13.752300 -10.102200 -39.890000
C -13.749400 -8.382300 -35.962500
C -13.411500 -9.918700 -42.344400
C -13.344600 -7.030100 -35.678500
C -13.340800 -8.209500 -38.401800
C -13.327300 -8.749200 -39.628000
N -13.169200 -9.415200 -43.343400
N -13.040500 -5.971700 -35.357500
F -12.916200 -6.949200 -38.254900
F -12.892400 -8.013900 -40.652400
56
Fragment
H -17.766800 -9.915300 -27.595300
H -17.635600 -11.235100 -25.759800
C -17.448800 -10.785000 -27.683000
H -17.400700 -9.567900 -30.055400
C -17.373400 -11.575700 -26.585200
C -17.088300 -10.441300 -30.120700
C -17.054500 -11.253700 -28.958200
H -17.030000 -13.438900 -24.695600
C -16.901400 -12.918000 -26.665800
C -16.800500 -13.766200 -25.535400
H -16.690700 -10.342500 -32.062400
C -16.675600 -10.909600 -31.325300
C -16.585400 -12.586900 -29.077500
C -16.522000 -13.426600 -27.926700
C -16.373200 -15.053700 -25.657300
H -16.309700 -15.583700 -24.896100
C -16.221600 -12.243900 -31.485200
C -16.188100 -13.085600 -30.348200
C -16.083800 -14.778300 -28.055500
C -16.021800 -15.609400 -26.917200
C -15.794900 -12.760400 -32.734500
H -15.793700 -12.208500 -33.483300
C -15.759000 -14.435800 -30.477000
C -15.723000 -15.286100 -29.338700
C -15.617900 -16.958700 -27.084700
H -15.567600 -17.517300 -26.342100
C -15.387700 -14.048800 -32.855600
C -15.376800 -14.931900 -31.744300
C -15.328300 -16.635800 -29.474900
C -15.304100 -17.447600 -28.310900
H -15.109100 -14.361900 -33.685800
H -15.065400 -18.343200 -28.391500
C -14.987200 -16.291700 -31.846700
C -14.975800 -17.110000 -30.768200
H -14.732900 -18.001600 -30.874800
H -14.732900 -16.630400 -32.675500
F -14.620800 -11.017300 -36.467100
F -14.597100 -12.082000 -38.864500
N -14.472700 -13.059500 -41.761900
N -14.344100 -9.616000 -33.776000
C -14.186000 -10.282000 -37.491400
C -14.172400 -10.821700 -38.717600
C -14.168700 -12.001100 -41.440900
C -14.101800 -9.112500 -34.775100
C -13.763900 -10.648900 -41.156900
C -13.760900 -8.929000 -37.229400
C -13.752300 -10.102200 -39.890000
C -13.749400 -8.382300 -35.962500
C -13.411500 -9.918700 -42.344400
C -13.344600 -7.030100 -35.678500
C -13.340800 -8.209500 -38.401800
C -13.327300 -8.749200 -39.628000
N -13.169200 -9.415200 -43.343400
N -13.040500 -5.971700 -35.357500
F -12.916200 -6.949200 -38.254900
F -12.892400 -8.013900 -40.652400
