21
Fragment
N -8.077600 -36.411900 -9.994000
N -8.024200 -35.965500 -11.179700
O -7.786500 -38.776300 -8.048200
H -7.436600 -36.529500 -7.583200
N -6.928100 -36.028100 -9.354300
N -6.854100 -35.290300 -11.337200
H -6.643800 -34.889200 -12.168900
C -6.634800 -36.430800 -7.981200
N -6.559300 -38.817900 -8.055200
C -6.148100 -35.314400 -10.203800
H -6.069400 -35.732600 -7.596000
O -5.900400 -39.850400 -8.148900
N -5.878900 -37.653400 -7.922500
N -4.986100 -34.800200 -9.776500
O -4.611500 -34.153600 -11.901600
C -4.422800 -37.697000 -7.916100
N -4.288100 -34.139600 -10.724900
H -4.161100 -38.222900 -7.251600
H -4.093800 -37.817800 -8.775900
H -4.074800 -36.832800 -7.774500
O -3.272300 -33.551000 -10.318000
21
Fragment
N -14.440200 -36.411900 -9.994000
N -14.386800 -35.965500 -11.179700
O -14.149100 -38.776300 -8.048200
H -13.799200 -36.529500 -7.583200
N -13.290700 -36.028100 -9.354300
N -13.216700 -35.290300 -11.337200
H -13.006400 -34.889200 -12.168900
C -12.997400 -36.430800 -7.981200
N -12.921900 -38.817900 -8.055200
C -12.510700 -35.314400 -10.203800
H -12.432000 -35.732600 -7.596000
O -12.263000 -39.850400 -8.148900
N -12.241500 -37.653400 -7.922500
N -11.348700 -34.800200 -9.776500
O -10.974100 -34.153600 -11.901600
C -10.785400 -37.697000 -7.916100
N -10.650700 -34.139600 -10.724900
H -10.523700 -38.222900 -7.251600
H -10.456400 -37.817800 -8.775900
H -10.437400 -36.832800 -7.774500
O -9.634900 -33.551000 -10.318000
42
Fragment
N -8.077600 -36.411900 -9.994000
N -8.024200 -35.965500 -11.179700
O -7.786500 -38.776300 -8.048200
H -7.436600 -36.529500 -7.583200
N -6.928100 -36.028100 -9.354300
N -6.854100 -35.290300 -11.337200
H -6.643800 -34.889200 -12.168900
C -6.634800 -36.430800 -7.981200
N -6.559300 -38.817900 -8.055200
C -6.148100 -35.314400 -10.203800
H -6.069400 -35.732600 -7.596000
O -5.900400 -39.850400 -8.148900
N -5.878900 -37.653400 -7.922500
N -4.986100 -34.800200 -9.776500
O -4.611500 -34.153600 -11.901600
C -4.422800 -37.697000 -7.916100
N -4.288100 -34.139600 -10.724900
H -4.161100 -38.222900 -7.251600
H -4.093800 -37.817800 -8.775900
H -4.074800 -36.832800 -7.774500
O -3.272300 -33.551000 -10.318000
N -14.440200 -36.411900 -9.994000
N -14.386800 -35.965500 -11.179700
O -14.149100 -38.776300 -8.048200
H -13.799200 -36.529500 -7.583200
N -13.290700 -36.028100 -9.354300
N -13.216700 -35.290300 -11.337200
H -13.006400 -34.889200 -12.168900
C -12.997400 -36.430800 -7.981200
N -12.921900 -38.817900 -8.055200
C -12.510700 -35.314400 -10.203800
H -12.432000 -35.732600 -7.596000
O -12.263000 -39.850400 -8.148900
N -12.241500 -37.653400 -7.922500
N -11.348700 -34.800200 -9.776500
O -10.974100 -34.153600 -11.901600
C -10.785400 -37.697000 -7.916100
N -10.650700 -34.139600 -10.724900
H -10.523700 -38.222900 -7.251600
H -10.456400 -37.817800 -8.775900
H -10.437400 -36.832800 -7.774500
O -9.634900 -33.551000 -10.318000
