21
Fragment
N -8.077600 -36.411900 -9.994000
N -8.024200 -35.965500 -11.179700
O -7.786500 -38.776300 -8.048200
H -7.436600 -36.529500 -7.583200
N -6.928100 -36.028100 -9.354300
N -6.854100 -35.290300 -11.337200
H -6.643800 -34.889200 -12.168900
C -6.634800 -36.430800 -7.981200
N -6.559300 -38.817900 -8.055200
C -6.148100 -35.314400 -10.203800
H -6.069400 -35.732600 -7.596000
O -5.900400 -39.850400 -8.148900
N -5.878900 -37.653400 -7.922500
N -4.986100 -34.800200 -9.776500
O -4.611500 -34.153600 -11.901600
C -4.422800 -37.697000 -7.916100
N -4.288100 -34.139600 -10.724900
H -4.161100 -38.222900 -7.251600
H -4.093800 -37.817800 -8.775900
H -4.074800 -36.832800 -7.774500
O -3.272300 -33.551000 -10.318000
21
Fragment
N -11.603100 -36.411900 -16.371800
N -11.549600 -35.965500 -17.557500
O -11.312000 -38.776300 -14.426000
H -10.962100 -36.529500 -13.961000
N -10.453500 -36.028100 -15.732100
N -10.379500 -35.290300 -17.715000
H -10.169200 -34.889200 -18.546700
C -10.160200 -36.430800 -14.359000
N -10.084700 -38.817900 -14.433000
C -9.673500 -35.314400 -16.581700
H -9.594800 -35.732600 -13.973800
O -9.425800 -39.850400 -14.526700
N -9.404400 -37.653400 -14.300300
N -8.511500 -34.800200 -16.154300
O -8.136900 -34.153600 -18.279400
C -7.948300 -37.697000 -14.293900
N -7.813500 -34.139600 -17.102700
H -7.686500 -38.222900 -13.629400
H -7.619200 -37.817800 -15.153700
H -7.600200 -36.832800 -14.152300
O -6.797700 -33.551000 -16.695800
42
Fragment
N -8.077600 -36.411900 -9.994000
N -8.024200 -35.965500 -11.179700
O -7.786500 -38.776300 -8.048200
H -7.436600 -36.529500 -7.583200
N -6.928100 -36.028100 -9.354300
N -6.854100 -35.290300 -11.337200
H -6.643800 -34.889200 -12.168900
C -6.634800 -36.430800 -7.981200
N -6.559300 -38.817900 -8.055200
C -6.148100 -35.314400 -10.203800
H -6.069400 -35.732600 -7.596000
O -5.900400 -39.850400 -8.148900
N -5.878900 -37.653400 -7.922500
N -4.986100 -34.800200 -9.776500
O -4.611500 -34.153600 -11.901600
C -4.422800 -37.697000 -7.916100
N -4.288100 -34.139600 -10.724900
H -4.161100 -38.222900 -7.251600
H -4.093800 -37.817800 -8.775900
H -4.074800 -36.832800 -7.774500
O -3.272300 -33.551000 -10.318000
N -11.603100 -36.411900 -16.371800
N -11.549600 -35.965500 -17.557500
O -11.312000 -38.776300 -14.426000
H -10.962100 -36.529500 -13.961000
N -10.453500 -36.028100 -15.732100
N -10.379500 -35.290300 -17.715000
H -10.169200 -34.889200 -18.546700
C -10.160200 -36.430800 -14.359000
N -10.084700 -38.817900 -14.433000
C -9.673500 -35.314400 -16.581700
H -9.594800 -35.732600 -13.973800
O -9.425800 -39.850400 -14.526700
N -9.404400 -37.653400 -14.300300
N -8.511500 -34.800200 -16.154300
O -8.136900 -34.153600 -18.279400
C -7.948300 -37.697000 -14.293900
N -7.813500 -34.139600 -17.102700
H -7.686500 -38.222900 -13.629400
H -7.619200 -37.817800 -15.153700
H -7.600200 -36.832800 -14.152300
O -6.797700 -33.551000 -16.695800
