9
Fragment
H -8.476300 -36.679400 -9.254100
H -8.311700 -35.937600 -10.662400
C -7.891100 -36.556800 -10.030300
H -7.744900 -37.421200 -10.468600
H -6.768200 -34.960100 -9.287900
C -6.641800 -36.023700 -9.604000
H -6.253800 -36.605000 -8.734600
O -5.723300 -36.103600 -10.689000
H -5.464800 -36.992000 -10.833800
21
Fragment
O -11.512000 -39.313000 -9.493800
N -10.486300 -39.485200 -10.142100
O -10.165800 -38.751500 -11.098400
N -9.694300 -40.512800 -9.739900
H -8.722600 -42.658700 -8.710400
C -8.627900 -40.750300 -10.516900
H -8.391800 -39.572300 -12.152800
H -8.317300 -40.899600 -7.214500
N -8.121700 -40.261500 -11.661400
C -7.832400 -42.623200 -9.016100
N -7.779000 -41.743200 -10.183100
H -7.559300 -43.452600 -9.305600
C -7.426100 -41.031600 -7.084200
H -7.331100 -41.291600 -6.193000
N -7.020200 -42.143600 -7.934300
N -6.999700 -40.944000 -11.997600
H -6.924100 -40.279400 -7.286900
N -6.783600 -41.840400 -11.111200
N -5.771700 -42.647200 -7.777500
O -5.408100 -43.559800 -8.513400
O -5.082900 -42.157000 -6.885500
30
Fragment
H -8.476300 -36.679400 -9.254100
H -8.311700 -35.937600 -10.662400
C -7.891100 -36.556800 -10.030300
H -7.744900 -37.421200 -10.468600
H -6.768200 -34.960100 -9.287900
C -6.641800 -36.023700 -9.604000
H -6.253800 -36.605000 -8.734600
O -5.723300 -36.103600 -10.689000
H -5.464800 -36.992000 -10.833800
O -11.512000 -39.313000 -9.493800
N -10.486300 -39.485200 -10.142100
O -10.165800 -38.751500 -11.098400
N -9.694300 -40.512800 -9.739900
H -8.722600 -42.658700 -8.710400
C -8.627900 -40.750300 -10.516900
H -8.391800 -39.572300 -12.152800
H -8.317300 -40.899600 -7.214500
N -8.121700 -40.261500 -11.661400
C -7.832400 -42.623200 -9.016100
N -7.779000 -41.743200 -10.183100
H -7.559300 -43.452600 -9.305600
C -7.426100 -41.031600 -7.084200
H -7.331100 -41.291600 -6.193000
N -7.020200 -42.143600 -7.934300
N -6.999700 -40.944000 -11.997600
H -6.924100 -40.279400 -7.286900
N -6.783600 -41.840400 -11.111200
N -5.771700 -42.647200 -7.777500
O -5.408100 -43.559800 -8.513400
O -5.082900 -42.157000 -6.885500
