9
Fragment
H -8.476300 -36.679400 -9.254100
H -8.311700 -35.937600 -10.662400
C -7.891100 -36.556800 -10.030300
H -7.744900 -37.421200 -10.468600
H -6.768200 -34.960100 -9.287900
C -6.641800 -36.023700 -9.604000
H -6.253800 -36.605000 -8.734600
O -5.723300 -36.103600 -10.689000
H -5.464800 -36.992000 -10.833800
21
Fragment
O -6.237200 -32.273600 -9.200300
O -5.911900 -30.870800 -7.572400
N -5.548400 -31.783400 -8.308300
N -4.536400 -32.590200 -4.974500
H -4.396000 -34.151200 -8.798900
N -4.320300 -33.486600 -4.088200
N -4.299800 -32.287000 -8.151500
H -3.989000 -33.139000 -9.892700
C -3.893900 -33.399000 -9.001600
H -3.760700 -30.978000 -6.780100
N -3.541000 -32.687400 -5.902700
C -3.487600 -31.807400 -7.069700
N -3.198300 -34.169100 -4.424400
H -3.002700 -33.531000 -8.871300
H -2.928200 -34.858300 -3.933000
C -2.692100 -33.680300 -5.568900
H -2.597400 -31.771900 -7.375300
N -1.625800 -33.917800 -6.345800
O -1.154300 -35.679100 -4.987400
N -0.833800 -34.945400 -5.943700
O 0.191900 -35.117600 -6.591900
30
Fragment
H -8.476300 -36.679400 -9.254100
H -8.311700 -35.937600 -10.662400
C -7.891100 -36.556800 -10.030300
H -7.744900 -37.421200 -10.468600
H -6.768200 -34.960100 -9.287900
C -6.641800 -36.023700 -9.604000
H -6.253800 -36.605000 -8.734600
O -5.723300 -36.103600 -10.689000
H -5.464800 -36.992000 -10.833800
O -6.237200 -32.273600 -9.200300
O -5.911900 -30.870800 -7.572400
N -5.548400 -31.783400 -8.308300
N -4.536400 -32.590200 -4.974500
H -4.396000 -34.151200 -8.798900
N -4.320300 -33.486600 -4.088200
N -4.299800 -32.287000 -8.151500
H -3.989000 -33.139000 -9.892700
C -3.893900 -33.399000 -9.001600
H -3.760700 -30.978000 -6.780100
N -3.541000 -32.687400 -5.902700
C -3.487600 -31.807400 -7.069700
N -3.198300 -34.169100 -4.424400
H -3.002700 -33.531000 -8.871300
H -2.928200 -34.858300 -3.933000
C -2.692100 -33.680300 -5.568900
H -2.597400 -31.771900 -7.375300
N -1.625800 -33.917800 -6.345800
O -1.154300 -35.679100 -4.987400
N -0.833800 -34.945400 -5.943700
O 0.191900 -35.117600 -6.591900
