21
Fragment
N -8.077600 -36.411900 -9.994000
N -8.024200 -35.965500 -11.179700
O -7.786500 -38.776300 -8.048200
H -7.436600 -36.529500 -7.583200
N -6.928100 -36.028100 -9.354300
N -6.854100 -35.290300 -11.337200
H -6.643800 -34.889200 -12.168900
C -6.634800 -36.430800 -7.981200
N -6.559300 -38.817900 -8.055200
C -6.148100 -35.314400 -10.203800
H -6.069400 -35.732600 -7.596000
O -5.900400 -39.850400 -8.148900
N -5.878900 -37.653400 -7.922500
N -4.986100 -34.800200 -9.776500
O -4.611500 -34.153600 -11.901600
C -4.422800 -37.697000 -7.916100
N -4.288100 -34.139600 -10.724900
H -4.161100 -38.222900 -7.251600
H -4.093800 -37.817800 -8.775900
H -4.074800 -36.832800 -7.774500
O -3.272300 -33.551000 -10.318000
21
Fragment
O -7.304000 -32.858200 -8.815400
H -6.501500 -29.576400 -11.358900
H -6.482400 -28.591400 -10.357600
H -6.415200 -28.186300 -11.881800
N -6.288200 -32.269600 -8.408500
C -6.153400 -28.712200 -11.217300
O -5.964800 -32.255600 -7.231800
N -5.590200 -31.609000 -9.356900
N -4.697300 -28.755800 -11.210900
O -4.675900 -26.558800 -10.984500
H -4.506900 -30.676600 -11.537400
C -4.428200 -31.094800 -8.929600
N -4.017000 -27.591300 -11.078200
C -3.941500 -29.978400 -11.152200
H -3.932500 -31.520000 -6.964600
N -3.722200 -31.118900 -7.796200
N -3.648200 -30.381100 -9.779100
H -3.139600 -29.879700 -11.550200
O -2.789700 -27.632900 -11.085300
N -2.552000 -30.443700 -7.953800
N -2.498600 -29.997300 -9.139400
42
Fragment
N -8.077600 -36.411900 -9.994000
N -8.024200 -35.965500 -11.179700
O -7.786500 -38.776300 -8.048200
H -7.436600 -36.529500 -7.583200
N -6.928100 -36.028100 -9.354300
N -6.854100 -35.290300 -11.337200
H -6.643800 -34.889200 -12.168900
C -6.634800 -36.430800 -7.981200
N -6.559300 -38.817900 -8.055200
C -6.148100 -35.314400 -10.203800
H -6.069400 -35.732600 -7.596000
O -5.900400 -39.850400 -8.148900
N -5.878900 -37.653400 -7.922500
N -4.986100 -34.800200 -9.776500
O -4.611500 -34.153600 -11.901600
C -4.422800 -37.697000 -7.916100
N -4.288100 -34.139600 -10.724900
H -4.161100 -38.222900 -7.251600
H -4.093800 -37.817800 -8.775900
H -4.074800 -36.832800 -7.774500
O -3.272300 -33.551000 -10.318000
O -7.304000 -32.858200 -8.815400
H -6.501500 -29.576400 -11.358900
H -6.482400 -28.591400 -10.357600
H -6.415200 -28.186300 -11.881800
N -6.288200 -32.269600 -8.408500
C -6.153400 -28.712200 -11.217300
O -5.964800 -32.255600 -7.231800
N -5.590200 -31.609000 -9.356900
N -4.697300 -28.755800 -11.210900
O -4.675900 -26.558800 -10.984500
H -4.506900 -30.676600 -11.537400
C -4.428200 -31.094800 -8.929600
N -4.017000 -27.591300 -11.078200
C -3.941500 -29.978400 -11.152200
H -3.932500 -31.520000 -6.964600
N -3.722200 -31.118900 -7.796200
N -3.648200 -30.381100 -9.779100
H -3.139600 -29.879700 -11.550200
O -2.789700 -27.632900 -11.085300
N -2.552000 -30.443700 -7.953800
N -2.498600 -29.997300 -9.139400
