21
Fragment
N -8.077600 -36.411900 -9.994000
N -8.024200 -35.965500 -11.179700
O -7.786500 -38.776300 -8.048200
H -7.436600 -36.529500 -7.583200
N -6.928100 -36.028100 -9.354300
N -6.854100 -35.290300 -11.337200
H -6.643800 -34.889200 -12.168900
C -6.634800 -36.430800 -7.981200
N -6.559300 -38.817900 -8.055200
C -6.148100 -35.314400 -10.203800
H -6.069400 -35.732600 -7.596000
O -5.900400 -39.850400 -8.148900
N -5.878900 -37.653400 -7.922500
N -4.986100 -34.800200 -9.776500
O -4.611500 -34.153600 -11.901600
C -4.422800 -37.697000 -7.916100
N -4.288100 -34.139600 -10.724900
H -4.161100 -38.222900 -7.251600
H -4.093800 -37.817800 -8.775900
H -4.074800 -36.832800 -7.774500
O -3.272300 -33.551000 -10.318000
21
Fragment
O -4.466800 -32.858200 -15.193200
H -3.664300 -29.576400 -17.736700
H -3.645200 -28.591400 -16.735400
H -3.578000 -28.186300 -18.259700
N -3.451000 -32.269600 -14.786300
C -3.316200 -28.712200 -17.595100
O -3.127600 -32.255600 -13.609600
N -2.753000 -31.609000 -15.734700
N -1.860100 -28.755800 -17.588700
O -1.838700 -26.558800 -17.362300
H -1.669700 -30.676600 -17.915300
C -1.591000 -31.094800 -15.307400
N -1.179800 -27.591300 -17.456100
C -1.104300 -29.978400 -17.530000
H -1.095300 -31.520000 -13.342400
N -0.885000 -31.118900 -14.174000
N -0.811000 -30.381100 -16.156900
H -0.302400 -29.879700 -17.928000
O 0.047500 -27.632900 -17.463100
N 0.285100 -30.443700 -14.331600
N 0.338600 -29.997300 -15.517200
42
Fragment
N -8.077600 -36.411900 -9.994000
N -8.024200 -35.965500 -11.179700
O -7.786500 -38.776300 -8.048200
H -7.436600 -36.529500 -7.583200
N -6.928100 -36.028100 -9.354300
N -6.854100 -35.290300 -11.337200
H -6.643800 -34.889200 -12.168900
C -6.634800 -36.430800 -7.981200
N -6.559300 -38.817900 -8.055200
C -6.148100 -35.314400 -10.203800
H -6.069400 -35.732600 -7.596000
O -5.900400 -39.850400 -8.148900
N -5.878900 -37.653400 -7.922500
N -4.986100 -34.800200 -9.776500
O -4.611500 -34.153600 -11.901600
C -4.422800 -37.697000 -7.916100
N -4.288100 -34.139600 -10.724900
H -4.161100 -38.222900 -7.251600
H -4.093800 -37.817800 -8.775900
H -4.074800 -36.832800 -7.774500
O -3.272300 -33.551000 -10.318000
O -4.466800 -32.858200 -15.193200
H -3.664300 -29.576400 -17.736700
H -3.645200 -28.591400 -16.735400
H -3.578000 -28.186300 -18.259700
N -3.451000 -32.269600 -14.786300
C -3.316200 -28.712200 -17.595100
O -3.127600 -32.255600 -13.609600
N -2.753000 -31.609000 -15.734700
N -1.860100 -28.755800 -17.588700
O -1.838700 -26.558800 -17.362300
H -1.669700 -30.676600 -17.915300
C -1.591000 -31.094800 -15.307400
N -1.179800 -27.591300 -17.456100
C -1.104300 -29.978400 -17.530000
H -1.095300 -31.520000 -13.342400
N -0.885000 -31.118900 -14.174000
N -0.811000 -30.381100 -16.156900
H -0.302400 -29.879700 -17.928000
O 0.047500 -27.632900 -17.463100
N 0.285100 -30.443700 -14.331600
N 0.338600 -29.997300 -15.517200
