21
Fragment
N -8.077600 -36.411900 -9.994000
N -8.024200 -35.965500 -11.179700
O -7.786500 -38.776300 -8.048200
H -7.436600 -36.529500 -7.583200
N -6.928100 -36.028100 -9.354300
N -6.854100 -35.290300 -11.337200
H -6.643800 -34.889200 -12.168900
C -6.634800 -36.430800 -7.981200
N -6.559300 -38.817900 -8.055200
C -6.148100 -35.314400 -10.203800
H -6.069400 -35.732600 -7.596000
O -5.900400 -39.850400 -8.148900
N -5.878900 -37.653400 -7.922500
N -4.986100 -34.800200 -9.776500
O -4.611500 -34.153600 -11.901600
C -4.422800 -37.697000 -7.916100
N -4.288100 -34.139600 -10.724900
H -4.161100 -38.222900 -7.251600
H -4.093800 -37.817800 -8.775900
H -4.074800 -36.832800 -7.774500
O -3.272300 -33.551000 -10.318000
21
Fragment
N -10.914800 -36.411900 -3.616200
N -10.861400 -35.965500 -4.801800
O -10.623700 -38.776300 -1.670300
H -10.273800 -36.529500 -1.205400
N -9.765300 -36.028100 -2.976500
N -9.691200 -35.290300 -4.959400
H -9.481000 -34.889200 -5.791000
C -9.472000 -36.430800 -1.603400
N -9.396400 -38.817900 -1.677400
C -8.985200 -35.314400 -3.826000
H -8.906600 -35.732600 -1.218200
O -8.737600 -39.850400 -1.771100
N -8.716100 -37.653400 -1.544700
N -7.823300 -34.800200 -3.398700
O -7.448600 -34.153600 -5.523800
C -7.260000 -37.697000 -1.538300
N -7.125200 -34.139600 -4.347100
H -6.998300 -38.222900 -0.873800
H -6.931000 -37.817800 -2.398100
H -6.912000 -36.832800 -1.396700
O -6.109500 -33.551000 -3.940200
42
Fragment
N -8.077600 -36.411900 -9.994000
N -8.024200 -35.965500 -11.179700
O -7.786500 -38.776300 -8.048200
H -7.436600 -36.529500 -7.583200
N -6.928100 -36.028100 -9.354300
N -6.854100 -35.290300 -11.337200
H -6.643800 -34.889200 -12.168900
C -6.634800 -36.430800 -7.981200
N -6.559300 -38.817900 -8.055200
C -6.148100 -35.314400 -10.203800
H -6.069400 -35.732600 -7.596000
O -5.900400 -39.850400 -8.148900
N -5.878900 -37.653400 -7.922500
N -4.986100 -34.800200 -9.776500
O -4.611500 -34.153600 -11.901600
C -4.422800 -37.697000 -7.916100
N -4.288100 -34.139600 -10.724900
H -4.161100 -38.222900 -7.251600
H -4.093800 -37.817800 -8.775900
H -4.074800 -36.832800 -7.774500
O -3.272300 -33.551000 -10.318000
N -10.914800 -36.411900 -3.616200
N -10.861400 -35.965500 -4.801800
O -10.623700 -38.776300 -1.670300
H -10.273800 -36.529500 -1.205400
N -9.765300 -36.028100 -2.976500
N -9.691200 -35.290300 -4.959400
H -9.481000 -34.889200 -5.791000
C -9.472000 -36.430800 -1.603400
N -9.396400 -38.817900 -1.677400
C -8.985200 -35.314400 -3.826000
H -8.906600 -35.732600 -1.218200
O -8.737600 -39.850400 -1.771100
N -8.716100 -37.653400 -1.544700
N -7.823300 -34.800200 -3.398700
O -7.448600 -34.153600 -5.523800
C -7.260000 -37.697000 -1.538300
N -7.125200 -34.139600 -4.347100
H -6.998300 -38.222900 -0.873800
H -6.931000 -37.817800 -2.398100
H -6.912000 -36.832800 -1.396700
O -6.109500 -33.551000 -3.940200
