21
Fragment
N -8.077600 -36.411900 -9.994000
N -8.024200 -35.965500 -11.179700
O -7.786500 -38.776300 -8.048200
H -7.436600 -36.529500 -7.583200
N -6.928100 -36.028100 -9.354300
N -6.854100 -35.290300 -11.337200
H -6.643800 -34.889200 -12.168900
C -6.634800 -36.430800 -7.981200
N -6.559300 -38.817900 -8.055200
C -6.148100 -35.314400 -10.203800
H -6.069400 -35.732600 -7.596000
O -5.900400 -39.850400 -8.148900
N -5.878900 -37.653400 -7.922500
N -4.986100 -34.800200 -9.776500
O -4.611500 -34.153600 -11.901600
C -4.422800 -37.697000 -7.916100
N -4.288100 -34.139600 -10.724900
H -4.161100 -38.222900 -7.251600
H -4.093800 -37.817800 -8.775900
H -4.074800 -36.832800 -7.774500
O -3.272300 -33.551000 -10.318000
21
Fragment
N -3.133600 -41.065500 -6.805100
N -3.080200 -41.511900 -7.990800
O -2.842500 -38.701100 -4.859200
H -2.492600 -40.947900 -4.394300
N -1.984100 -41.449300 -6.165400
N -1.910000 -42.187100 -8.148300
H -1.699800 -42.588200 -8.979900
C -1.690800 -41.046600 -4.792300
N -1.615300 -38.659500 -4.866300
C -1.204000 -42.163000 -7.014900
H -1.125400 -41.744800 -4.407100
O -0.956400 -37.627000 -4.960000
N -0.934900 -39.824000 -4.733600
N -0.042100 -42.677200 -6.587600
O 0.332500 -43.323800 -8.712700
C 0.521200 -39.780400 -4.727200
N 0.655900 -43.337800 -7.536000
H 0.782900 -39.254500 -4.062700
H 0.850200 -39.659600 -5.587000
H 0.869200 -40.644600 -4.585600
O 1.671700 -43.926400 -7.129100
42
Fragment
N -8.077600 -36.411900 -9.994000
N -8.024200 -35.965500 -11.179700
O -7.786500 -38.776300 -8.048200
H -7.436600 -36.529500 -7.583200
N -6.928100 -36.028100 -9.354300
N -6.854100 -35.290300 -11.337200
H -6.643800 -34.889200 -12.168900
C -6.634800 -36.430800 -7.981200
N -6.559300 -38.817900 -8.055200
C -6.148100 -35.314400 -10.203800
H -6.069400 -35.732600 -7.596000
O -5.900400 -39.850400 -8.148900
N -5.878900 -37.653400 -7.922500
N -4.986100 -34.800200 -9.776500
O -4.611500 -34.153600 -11.901600
C -4.422800 -37.697000 -7.916100
N -4.288100 -34.139600 -10.724900
H -4.161100 -38.222900 -7.251600
H -4.093800 -37.817800 -8.775900
H -4.074800 -36.832800 -7.774500
O -3.272300 -33.551000 -10.318000
N -3.133600 -41.065500 -6.805100
N -3.080200 -41.511900 -7.990800
O -2.842500 -38.701100 -4.859200
H -2.492600 -40.947900 -4.394300
N -1.984100 -41.449300 -6.165400
N -1.910000 -42.187100 -8.148300
H -1.699800 -42.588200 -8.979900
C -1.690800 -41.046600 -4.792300
N -1.615300 -38.659500 -4.866300
C -1.204000 -42.163000 -7.014900
H -1.125400 -41.744800 -4.407100
O -0.956400 -37.627000 -4.960000
N -0.934900 -39.824000 -4.733600
N -0.042100 -42.677200 -6.587600
O 0.332500 -43.323800 -8.712700
C 0.521200 -39.780400 -4.727200
N 0.655900 -43.337800 -7.536000
H 0.782900 -39.254500 -4.062700
H 0.850200 -39.659600 -5.587000
H 0.869200 -40.644600 -4.585600
O 1.671700 -43.926400 -7.129100
