21
Fragment
N -8.077600 -36.411900 -9.994000
N -8.024200 -35.965500 -11.179700
O -7.786500 -38.776300 -8.048200
H -7.436600 -36.529500 -7.583200
N -6.928100 -36.028100 -9.354300
N -6.854100 -35.290300 -11.337200
H -6.643800 -34.889200 -12.168900
C -6.634800 -36.430800 -7.981200
N -6.559300 -38.817900 -8.055200
C -6.148100 -35.314400 -10.203800
H -6.069400 -35.732600 -7.596000
O -5.900400 -39.850400 -8.148900
N -5.878900 -37.653400 -7.922500
N -4.986100 -34.800200 -9.776500
O -4.611500 -34.153600 -11.901600
C -4.422800 -37.697000 -7.916100
N -4.288100 -34.139600 -10.724900
H -4.161100 -38.222900 -7.251600
H -4.093800 -37.817800 -8.775900
H -4.074800 -36.832800 -7.774500
O -3.272300 -33.551000 -10.318000
21
Fragment
N -13.021700 -41.065500 -13.182900
N -12.968200 -41.511900 -14.368600
O -12.730600 -38.701100 -11.237100
H -12.380700 -40.947900 -10.772100
N -11.872100 -41.449300 -12.543200
N -11.798100 -42.187100 -14.526100
H -11.587800 -42.588200 -15.357800
C -11.578800 -41.046600 -11.170100
N -11.503300 -38.659500 -11.244100
C -11.092100 -42.163000 -13.392800
H -11.013400 -41.744800 -10.784900
O -10.844400 -37.627000 -11.337800
N -10.822900 -39.824000 -11.111400
N -9.930100 -42.677200 -12.965400
O -9.555500 -43.323800 -15.090500
C -9.366800 -39.780400 -11.105000
N -9.232100 -43.337800 -13.913800
H -9.105100 -39.254500 -10.440500
H -9.037800 -39.659600 -11.964800
H -9.018800 -40.644600 -10.963400
O -8.216300 -43.926400 -13.506900
42
Fragment
N -8.077600 -36.411900 -9.994000
N -8.024200 -35.965500 -11.179700
O -7.786500 -38.776300 -8.048200
H -7.436600 -36.529500 -7.583200
N -6.928100 -36.028100 -9.354300
N -6.854100 -35.290300 -11.337200
H -6.643800 -34.889200 -12.168900
C -6.634800 -36.430800 -7.981200
N -6.559300 -38.817900 -8.055200
C -6.148100 -35.314400 -10.203800
H -6.069400 -35.732600 -7.596000
O -5.900400 -39.850400 -8.148900
N -5.878900 -37.653400 -7.922500
N -4.986100 -34.800200 -9.776500
O -4.611500 -34.153600 -11.901600
C -4.422800 -37.697000 -7.916100
N -4.288100 -34.139600 -10.724900
H -4.161100 -38.222900 -7.251600
H -4.093800 -37.817800 -8.775900
H -4.074800 -36.832800 -7.774500
O -3.272300 -33.551000 -10.318000
N -13.021700 -41.065500 -13.182900
N -12.968200 -41.511900 -14.368600
O -12.730600 -38.701100 -11.237100
H -12.380700 -40.947900 -10.772100
N -11.872100 -41.449300 -12.543200
N -11.798100 -42.187100 -14.526100
H -11.587800 -42.588200 -15.357800
C -11.578800 -41.046600 -11.170100
N -11.503300 -38.659500 -11.244100
C -11.092100 -42.163000 -13.392800
H -11.013400 -41.744800 -10.784900
O -10.844400 -37.627000 -11.337800
N -10.822900 -39.824000 -11.111400
N -9.930100 -42.677200 -12.965400
O -9.555500 -43.323800 -15.090500
C -9.366800 -39.780400 -11.105000
N -9.232100 -43.337800 -13.913800
H -9.105100 -39.254500 -10.440500
H -9.037800 -39.659600 -11.964800
H -9.018800 -40.644600 -10.963400
O -8.216300 -43.926400 -13.506900
