9
Fragment
H -8.476300 -36.679400 -9.254100
H -8.311700 -35.937600 -10.662400
C -7.891100 -36.556800 -10.030300
H -7.744900 -37.421200 -10.468600
H -6.768200 -34.960100 -9.287900
C -6.641800 -36.023700 -9.604000
H -6.253800 -36.605000 -8.734600
O -5.723300 -36.103600 -10.689000
H -5.464800 -36.992000 -10.833800
9
Fragment
H -14.106700 -36.679400 -9.254100
H -13.942100 -35.937600 -10.662400
C -13.521500 -36.556800 -10.030300
H -13.375300 -37.421200 -10.468600
H -12.398600 -34.960100 -9.287900
C -12.272200 -36.023700 -9.604000
H -11.884200 -36.605000 -8.734600
O -11.353700 -36.103600 -10.689000
H -11.095200 -36.992000 -10.833800
18
Fragment
H -8.476300 -36.679400 -9.254100
H -8.311700 -35.937600 -10.662400
C -7.891100 -36.556800 -10.030300
H -7.744900 -37.421200 -10.468600
H -6.768200 -34.960100 -9.287900
C -6.641800 -36.023700 -9.604000
H -6.253800 -36.605000 -8.734600
O -5.723300 -36.103600 -10.689000
H -5.464800 -36.992000 -10.833800
H -14.106700 -36.679400 -9.254100
H -13.942100 -35.937600 -10.662400
C -13.521500 -36.556800 -10.030300
H -13.375300 -37.421200 -10.468600
H -12.398600 -34.960100 -9.287900
C -12.272200 -36.023700 -9.604000
H -11.884200 -36.605000 -8.734600
O -11.353700 -36.103600 -10.689000
H -11.095200 -36.992000 -10.833800
