22
Fragment
O -4.849200 -30.619400 -5.009600
N -3.966200 -30.349900 -5.831900
N -3.963300 -29.072400 -6.250000
H -3.360700 -26.578600 -7.260700
O -3.159100 -31.189200 -6.229600
C -2.994300 -28.749100 -7.113700
N -2.883700 -27.460600 -7.543500
N -1.996300 -29.408200 -7.703300
N -1.989100 -25.076900 -8.977000
C -1.830600 -27.426400 -8.388500
H -1.771400 -30.395500 -7.674700
H -1.468800 -23.262500 -9.820800
C -1.409600 -26.231600 -9.107000
N -1.251100 -28.581100 -8.518600
N -1.243900 -24.249800 -9.792300
N -0.356500 -26.197400 -9.952100
C -0.245900 -24.908900 -10.381900
O -0.081200 -22.468800 -11.266000
H 0.120500 -27.079400 -10.234900
N 0.723100 -24.585600 -11.245600
N 0.726000 -23.308100 -11.663700
O 1.609000 -23.038600 -12.486000
22
Fragment
O -2.429300 -30.619400 -10.841400
N -1.546200 -30.349900 -11.663700
N -1.543400 -29.072400 -12.081900
H -0.940800 -26.578600 -13.092500
O -0.739100 -31.189200 -12.061400
C -0.574400 -28.749100 -12.945600
N -0.463800 -27.460600 -13.375400
N 0.423600 -29.408200 -13.535200
N 0.430800 -25.076900 -14.808800
C 0.589300 -27.426400 -14.220400
H 0.648600 -30.395500 -13.506600
H 0.951100 -23.262500 -15.652700
C 1.010300 -26.231600 -14.938900
N 1.168800 -28.581100 -14.350400
N 1.176000 -24.249800 -15.624100
N 2.063400 -26.197400 -15.783900
C 2.174000 -24.908900 -16.213700
O 2.338800 -22.468800 -17.097800
H 2.540400 -27.079400 -16.066800
N 3.143000 -24.585600 -17.077400
N 3.145900 -23.308100 -17.495600
O 4.028900 -23.038600 -18.317900
44
Fragment
O -4.849200 -30.619400 -5.009600
N -3.966200 -30.349900 -5.831900
N -3.963300 -29.072400 -6.250000
H -3.360700 -26.578600 -7.260700
O -3.159100 -31.189200 -6.229600
C -2.994300 -28.749100 -7.113700
N -2.883700 -27.460600 -7.543500
N -1.996300 -29.408200 -7.703300
N -1.989100 -25.076900 -8.977000
C -1.830600 -27.426400 -8.388500
H -1.771400 -30.395500 -7.674700
H -1.468800 -23.262500 -9.820800
C -1.409600 -26.231600 -9.107000
N -1.251100 -28.581100 -8.518600
N -1.243900 -24.249800 -9.792300
N -0.356500 -26.197400 -9.952100
C -0.245900 -24.908900 -10.381900
O -0.081200 -22.468800 -11.266000
H 0.120500 -27.079400 -10.234900
N 0.723100 -24.585600 -11.245600
N 0.726000 -23.308100 -11.663700
O 1.609000 -23.038600 -12.486000
O -2.429300 -30.619400 -10.841400
N -1.546200 -30.349900 -11.663700
N -1.543400 -29.072400 -12.081900
H -0.940800 -26.578600 -13.092500
O -0.739100 -31.189200 -12.061400
C -0.574400 -28.749100 -12.945600
N -0.463800 -27.460600 -13.375400
N 0.423600 -29.408200 -13.535200
N 0.430800 -25.076900 -14.808800
C 0.589300 -27.426400 -14.220400
H 0.648600 -30.395500 -13.506600
H 0.951100 -23.262500 -15.652700
C 1.010300 -26.231600 -14.938900
N 1.168800 -28.581100 -14.350400
N 1.176000 -24.249800 -15.624100
N 2.063400 -26.197400 -15.783900
C 2.174000 -24.908900 -16.213700
O 2.338800 -22.468800 -17.097800
H 2.540400 -27.079400 -16.066800
N 3.143000 -24.585600 -17.077400
N 3.145900 -23.308100 -17.495600
O 4.028900 -23.038600 -18.317900
