22
Fragment
O -4.849200 -30.619400 -5.009600
N -3.966200 -30.349900 -5.831900
N -3.963300 -29.072400 -6.250000
H -3.360700 -26.578600 -7.260700
O -3.159100 -31.189200 -6.229600
C -2.994300 -28.749100 -7.113700
N -2.883700 -27.460600 -7.543500
N -1.996300 -29.408200 -7.703300
N -1.989100 -25.076900 -8.977000
C -1.830600 -27.426400 -8.388500
H -1.771400 -30.395500 -7.674700
H -1.468800 -23.262500 -9.820800
C -1.409600 -26.231600 -9.107000
N -1.251100 -28.581100 -8.518600
N -1.243900 -24.249800 -9.792300
N -0.356500 -26.197400 -9.952100
C -0.245900 -24.908900 -10.381900
O -0.081200 -22.468800 -11.266000
H 0.120500 -27.079400 -10.234900
N 0.723100 -24.585600 -11.245600
N 0.726000 -23.308100 -11.663700
O 1.609000 -23.038600 -12.486000
3
Fragment
H -4.573100 -28.242000 -11.133000
O -4.114600 -28.399900 -10.351500
H -3.434800 -28.975300 -10.713100
25
Fragment
O -4.849200 -30.619400 -5.009600
N -3.966200 -30.349900 -5.831900
N -3.963300 -29.072400 -6.250000
H -3.360700 -26.578600 -7.260700
O -3.159100 -31.189200 -6.229600
C -2.994300 -28.749100 -7.113700
N -2.883700 -27.460600 -7.543500
N -1.996300 -29.408200 -7.703300
N -1.989100 -25.076900 -8.977000
C -1.830600 -27.426400 -8.388500
H -1.771400 -30.395500 -7.674700
H -1.468800 -23.262500 -9.820800
C -1.409600 -26.231600 -9.107000
N -1.251100 -28.581100 -8.518600
N -1.243900 -24.249800 -9.792300
N -0.356500 -26.197400 -9.952100
C -0.245900 -24.908900 -10.381900
O -0.081200 -22.468800 -11.266000
H 0.120500 -27.079400 -10.234900
N 0.723100 -24.585600 -11.245600
N 0.726000 -23.308100 -11.663700
O 1.609000 -23.038600 -12.486000
H -4.573100 -28.242000 -11.133000
O -4.114600 -28.399900 -10.351500
H -3.434800 -28.975300 -10.713100
