22
Fragment
O -4.849200 -30.619400 -5.009600
N -3.966200 -30.349900 -5.831900
N -3.963300 -29.072400 -6.250000
H -3.360700 -26.578600 -7.260700
O -3.159100 -31.189200 -6.229600
C -2.994300 -28.749100 -7.113700
N -2.883700 -27.460600 -7.543500
N -1.996300 -29.408200 -7.703300
N -1.989100 -25.076900 -8.977000
C -1.830600 -27.426400 -8.388500
H -1.771400 -30.395500 -7.674700
H -1.468800 -23.262500 -9.820800
C -1.409600 -26.231600 -9.107000
N -1.251100 -28.581100 -8.518600
N -1.243900 -24.249800 -9.792300
N -0.356500 -26.197400 -9.952100
C -0.245900 -24.908900 -10.381900
O -0.081200 -22.468800 -11.266000
H 0.120500 -27.079400 -10.234900
N 0.723100 -24.585600 -11.245600
N 0.726000 -23.308100 -11.663700
O 1.609000 -23.038600 -12.486000
22
Fragment
O -10.099200 -30.619400 -5.009600
N -9.216200 -30.349900 -5.831900
N -9.213300 -29.072400 -6.250000
H -8.610700 -26.578600 -7.260700
O -8.409100 -31.189200 -6.229600
C -8.244300 -28.749100 -7.113700
N -8.133700 -27.460600 -7.543500
N -7.246300 -29.408200 -7.703300
N -7.239100 -25.076900 -8.977000
C -7.080600 -27.426400 -8.388500
H -7.021400 -30.395500 -7.674700
H -6.718800 -23.262500 -9.820800
C -6.659600 -26.231600 -9.107000
N -6.501100 -28.581100 -8.518600
N -6.493900 -24.249800 -9.792300
N -5.606500 -26.197400 -9.952100
C -5.495900 -24.908900 -10.381900
O -5.331200 -22.468800 -11.266000
H -5.129500 -27.079400 -10.234900
N -4.526900 -24.585600 -11.245600
N -4.524000 -23.308100 -11.663700
O -3.641000 -23.038600 -12.486000
44
Fragment
O -4.849200 -30.619400 -5.009600
N -3.966200 -30.349900 -5.831900
N -3.963300 -29.072400 -6.250000
H -3.360700 -26.578600 -7.260700
O -3.159100 -31.189200 -6.229600
C -2.994300 -28.749100 -7.113700
N -2.883700 -27.460600 -7.543500
N -1.996300 -29.408200 -7.703300
N -1.989100 -25.076900 -8.977000
C -1.830600 -27.426400 -8.388500
H -1.771400 -30.395500 -7.674700
H -1.468800 -23.262500 -9.820800
C -1.409600 -26.231600 -9.107000
N -1.251100 -28.581100 -8.518600
N -1.243900 -24.249800 -9.792300
N -0.356500 -26.197400 -9.952100
C -0.245900 -24.908900 -10.381900
O -0.081200 -22.468800 -11.266000
H 0.120500 -27.079400 -10.234900
N 0.723100 -24.585600 -11.245600
N 0.726000 -23.308100 -11.663700
O 1.609000 -23.038600 -12.486000
O -10.099200 -30.619400 -5.009600
N -9.216200 -30.349900 -5.831900
N -9.213300 -29.072400 -6.250000
H -8.610700 -26.578600 -7.260700
O -8.409100 -31.189200 -6.229600
C -8.244300 -28.749100 -7.113700
N -8.133700 -27.460600 -7.543500
N -7.246300 -29.408200 -7.703300
N -7.239100 -25.076900 -8.977000
C -7.080600 -27.426400 -8.388500
H -7.021400 -30.395500 -7.674700
H -6.718800 -23.262500 -9.820800
C -6.659600 -26.231600 -9.107000
N -6.501100 -28.581100 -8.518600
N -6.493900 -24.249800 -9.792300
N -5.606500 -26.197400 -9.952100
C -5.495900 -24.908900 -10.381900
O -5.331200 -22.468800 -11.266000
H -5.129500 -27.079400 -10.234900
N -4.526900 -24.585600 -11.245600
N -4.524000 -23.308100 -11.663700
O -3.641000 -23.038600 -12.486000
