6
Fragment
N -10.880600 -24.853700 -38.253800
C -10.070400 -24.059700 -38.362400
H -9.140300 -22.374300 -37.804400
H -9.092900 -22.637700 -39.382300
C -9.029400 -23.056700 -38.498800
H -8.151400 -23.481800 -38.401300
6
Fragment
N -5.588200 -24.853700 -38.253800
C -4.778000 -24.059700 -38.362400
H -3.847900 -22.374300 -37.804400
H -3.800500 -22.637700 -39.382300
C -3.737000 -23.056700 -38.498800
H -2.859000 -23.481800 -38.401300
12
Fragment
N -10.880600 -24.853700 -38.253800
C -10.070400 -24.059700 -38.362400
H -9.140300 -22.374300 -37.804400
H -9.092900 -22.637700 -39.382300
C -9.029400 -23.056700 -38.498800
H -8.151400 -23.481800 -38.401300
N -5.588200 -24.853700 -38.253800
C -4.778000 -24.059700 -38.362400
H -3.847900 -22.374300 -37.804400
H -3.800500 -22.637700 -39.382300
C -3.737000 -23.056700 -38.498800
H -2.859000 -23.481800 -38.401300
