6
Fragment
N -10.880600 -24.853700 -38.253800
C -10.070400 -24.059700 -38.362400
H -9.140300 -22.374300 -37.804400
H -9.092900 -22.637700 -39.382300
C -9.029400 -23.056700 -38.498800
H -8.151400 -23.481800 -38.401300
42
Fragment
O -13.499300 -11.016100 -44.500400
H -13.490300 -10.345200 -45.220200
H -12.785000 -12.828800 -42.890700
C -12.476300 -11.890400 -44.685100
C -12.241900 -12.824800 -43.669900
H -11.841600 -11.275700 -46.525200
C -11.678200 -11.899900 -45.828000
C -11.218300 -13.740400 -43.806600
H -11.064100 -14.373900 -43.115700
C -10.652000 -12.813600 -45.948900
C -10.404900 -13.752600 -44.940800
H -10.106000 -12.805400 -46.726300
H -9.614400 -17.147200 -42.202900
C -9.325700 -14.732700 -45.104000
H -9.313400 -18.821000 -40.598300
N -9.179100 -15.678300 -44.151900
C -8.892800 -17.759000 -42.291000
C -8.715000 -18.749600 -41.332800
N -8.544100 -14.631900 -46.191700
C -8.246600 -16.598500 -44.398400
C -8.028600 -17.649100 -43.379500
H -7.720400 -13.991600 -48.440300
C -7.649600 -19.635900 -41.462100
C -7.644300 -15.605300 -46.349700
O -7.533700 -20.610700 -40.507600
N -7.492500 -16.659500 -45.512900
C -6.988100 -14.590600 -48.524400
C -6.956900 -18.532000 -43.483600
H -6.864200 -21.272200 -40.794600
C -6.763200 -19.530900 -42.527500
C -6.756800 -15.548800 -47.529400
H -6.351700 -18.454000 -44.211800
H -6.326800 -13.862600 -50.302000
C -6.159800 -14.509200 -49.626000
H -6.032800 -20.133300 -42.604500
C -5.672400 -16.416400 -47.664000
H -5.512800 -17.071600 -46.994600
C -5.078100 -15.380200 -49.742200
C -4.820800 -16.338300 -48.762500
O -4.277300 -15.227800 -50.847000
H -4.078800 -16.926100 -48.842900
H -3.620000 -15.957700 -50.878300
48
Fragment
N -10.880600 -24.853700 -38.253800
C -10.070400 -24.059700 -38.362400
H -9.140300 -22.374300 -37.804400
H -9.092900 -22.637700 -39.382300
C -9.029400 -23.056700 -38.498800
H -8.151400 -23.481800 -38.401300
O -13.499300 -11.016100 -44.500400
H -13.490300 -10.345200 -45.220200
H -12.785000 -12.828800 -42.890700
C -12.476300 -11.890400 -44.685100
C -12.241900 -12.824800 -43.669900
H -11.841600 -11.275700 -46.525200
C -11.678200 -11.899900 -45.828000
C -11.218300 -13.740400 -43.806600
H -11.064100 -14.373900 -43.115700
C -10.652000 -12.813600 -45.948900
C -10.404900 -13.752600 -44.940800
H -10.106000 -12.805400 -46.726300
H -9.614400 -17.147200 -42.202900
C -9.325700 -14.732700 -45.104000
H -9.313400 -18.821000 -40.598300
N -9.179100 -15.678300 -44.151900
C -8.892800 -17.759000 -42.291000
C -8.715000 -18.749600 -41.332800
N -8.544100 -14.631900 -46.191700
C -8.246600 -16.598500 -44.398400
C -8.028600 -17.649100 -43.379500
H -7.720400 -13.991600 -48.440300
C -7.649600 -19.635900 -41.462100
C -7.644300 -15.605300 -46.349700
O -7.533700 -20.610700 -40.507600
N -7.492500 -16.659500 -45.512900
C -6.988100 -14.590600 -48.524400
C -6.956900 -18.532000 -43.483600
H -6.864200 -21.272200 -40.794600
C -6.763200 -19.530900 -42.527500
C -6.756800 -15.548800 -47.529400
H -6.351700 -18.454000 -44.211800
H -6.326800 -13.862600 -50.302000
C -6.159800 -14.509200 -49.626000
H -6.032800 -20.133300 -42.604500
C -5.672400 -16.416400 -47.664000
H -5.512800 -17.071600 -46.994600
C -5.078100 -15.380200 -49.742200
C -4.820800 -16.338300 -48.762500
O -4.277300 -15.227800 -50.847000
H -4.078800 -16.926100 -48.842900
H -3.620000 -15.957700 -50.878300
