6
Fragment
N -10.880600 -24.853700 -38.253800
C -10.070400 -24.059700 -38.362400
H -9.140300 -22.374300 -37.804400
H -9.092900 -22.637700 -39.382300
C -9.029400 -23.056700 -38.498800
H -8.151400 -23.481800 -38.401300
6
Fragment
H -16.097200 -26.552000 -40.880800
H -15.422500 -27.020100 -42.254500
C -15.276500 -26.894100 -41.293700
H -15.037900 -27.751500 -40.884200
C -14.195300 -25.939400 -41.087600
N -13.346400 -25.190000 -40.938100
12
Fragment
N -10.880600 -24.853700 -38.253800
C -10.070400 -24.059700 -38.362400
H -9.140300 -22.374300 -37.804400
H -9.092900 -22.637700 -39.382300
C -9.029400 -23.056700 -38.498800
H -8.151400 -23.481800 -38.401300
H -16.097200 -26.552000 -40.880800
H -15.422500 -27.020100 -42.254500
C -15.276500 -26.894100 -41.293700
H -15.037900 -27.751500 -40.884200
C -14.195300 -25.939400 -41.087600
N -13.346400 -25.190000 -40.938100
