6
Fragment
N -10.880600 -24.853700 -38.253800
C -10.070400 -24.059700 -38.362400
H -9.140300 -22.374300 -37.804400
H -9.092900 -22.637700 -39.382300
C -9.029400 -23.056700 -38.498800
H -8.151400 -23.481800 -38.401300
42
Fragment
H -6.964800 -23.757100 -41.102100
H -6.506000 -24.725500 -43.137500
O -6.307500 -23.027300 -41.133300
C -5.764000 -24.137700 -43.217900
C -5.506700 -23.179700 -42.238200
H -5.072000 -24.871000 -44.985700
C -4.912400 -24.215900 -44.316400
H -4.552000 -27.932800 -49.375800
C -4.425000 -22.308600 -42.354300
H -4.258000 -21.662000 -41.678400
H -4.233100 -26.253400 -47.768500
C -3.828000 -23.348300 -44.450900
C -3.821600 -27.330400 -49.452800
H -3.720600 -29.071700 -51.185800
C -3.627900 -26.331400 -48.496800
C -3.596700 -22.390000 -43.456000
N -3.092300 -24.458900 -46.467400
O -3.051100 -28.410100 -51.472700
C -2.940500 -23.404700 -45.630700
C -2.935200 -27.435300 -50.518200
H -2.864400 -21.791000 -43.540100
C -2.556200 -25.448500 -48.600800
C -2.338200 -24.397900 -47.582000
N -2.040700 -22.431400 -45.788600
C -1.869800 -26.549000 -50.647500
C -1.692000 -25.558500 -49.689400
N -1.405700 -23.477700 -47.828500
H -1.271400 -26.620500 -51.382100
C -1.259100 -22.532100 -46.876300
H -0.970400 -24.946700 -49.777400
H -0.478800 -20.604900 -45.254100
C -0.179900 -21.552100 -47.039500
C 0.067200 -20.613000 -46.031400
H 0.479300 -22.173400 -48.864700
C 0.633500 -21.539900 -48.173800
C 1.093400 -19.699400 -46.152300
H 1.256800 -19.075100 -45.455100
C 1.657100 -20.624200 -48.310400
C 1.891500 -19.689900 -47.295200
H 2.200200 -20.628300 -49.089600
H 2.905500 -18.144600 -46.760200
O 2.914500 -18.815500 -47.480000
48
Fragment
N -10.880600 -24.853700 -38.253800
C -10.070400 -24.059700 -38.362400
H -9.140300 -22.374300 -37.804400
H -9.092900 -22.637700 -39.382300
C -9.029400 -23.056700 -38.498800
H -8.151400 -23.481800 -38.401300
H -6.964800 -23.757100 -41.102100
H -6.506000 -24.725500 -43.137500
O -6.307500 -23.027300 -41.133300
C -5.764000 -24.137700 -43.217900
C -5.506700 -23.179700 -42.238200
H -5.072000 -24.871000 -44.985700
C -4.912400 -24.215900 -44.316400
H -4.552000 -27.932800 -49.375800
C -4.425000 -22.308600 -42.354300
H -4.258000 -21.662000 -41.678400
H -4.233100 -26.253400 -47.768500
C -3.828000 -23.348300 -44.450900
C -3.821600 -27.330400 -49.452800
H -3.720600 -29.071700 -51.185800
C -3.627900 -26.331400 -48.496800
C -3.596700 -22.390000 -43.456000
N -3.092300 -24.458900 -46.467400
O -3.051100 -28.410100 -51.472700
C -2.940500 -23.404700 -45.630700
C -2.935200 -27.435300 -50.518200
H -2.864400 -21.791000 -43.540100
C -2.556200 -25.448500 -48.600800
C -2.338200 -24.397900 -47.582000
N -2.040700 -22.431400 -45.788600
C -1.869800 -26.549000 -50.647500
C -1.692000 -25.558500 -49.689400
N -1.405700 -23.477700 -47.828500
H -1.271400 -26.620500 -51.382100
C -1.259100 -22.532100 -46.876300
H -0.970400 -24.946700 -49.777400
H -0.478800 -20.604900 -45.254100
C -0.179900 -21.552100 -47.039500
C 0.067200 -20.613000 -46.031400
H 0.479300 -22.173400 -48.864700
C 0.633500 -21.539900 -48.173800
C 1.093400 -19.699400 -46.152300
H 1.256800 -19.075100 -45.455100
C 1.657100 -20.624200 -48.310400
C 1.891500 -19.689900 -47.295200
H 2.200200 -20.628300 -49.089600
H 2.905500 -18.144600 -46.760200
O 2.914500 -18.815500 -47.480000
