6
Fragment
N -10.880600 -24.853700 -38.253800
C -10.070400 -24.059700 -38.362400
H -9.140300 -22.374300 -37.804400
H -9.092900 -22.637700 -39.382300
C -9.029400 -23.056700 -38.498800
H -8.151400 -23.481800 -38.401300
6
Fragment
H -13.451000 -28.044200 -37.959500
H -12.776300 -27.576000 -36.585800
C -12.630300 -27.702100 -37.546600
H -12.391700 -26.844600 -37.956100
C -11.549100 -28.656700 -37.752700
N -10.700200 -29.406100 -37.902200
12
Fragment
N -10.880600 -24.853700 -38.253800
C -10.070400 -24.059700 -38.362400
H -9.140300 -22.374300 -37.804400
H -9.092900 -22.637700 -39.382300
C -9.029400 -23.056700 -38.498800
H -8.151400 -23.481800 -38.401300
H -13.451000 -28.044200 -37.959500
H -12.776300 -27.576000 -36.585800
C -12.630300 -27.702100 -37.546600
H -12.391700 -26.844600 -37.956100
C -11.549100 -28.656700 -37.752700
N -10.700200 -29.406100 -37.902200
