17
Fragment
N -15.439100 -14.310500 -9.297500
H -15.430300 -15.214600 -9.444700
H -15.272900 -13.241300 -10.959200
H -14.947400 -14.166600 -8.601500
N -14.815800 -13.757600 -10.445800
H -13.787300 -13.113800 -12.581900
C -13.545200 -14.012200 -10.755300
C -13.038400 -13.385000 -12.028100
O -12.804600 -14.700900 -10.044400
O -12.674900 -11.180000 -11.148700
H -12.509700 -14.029400 -12.524400
C -12.184700 -12.172200 -11.685000
N -10.894900 -12.284500 -11.998400
H -10.613900 -13.027200 -12.329500
H -10.203100 -10.555600 -12.287300
H -10.021900 -10.964300 -10.956100
N -9.970800 -11.233700 -11.809200
3
Fragment
H -15.425700 -17.845700 -10.534100
O -15.018200 -17.109200 -10.787700
H -14.187100 -17.339800 -10.864100
20
Fragment
N -15.439100 -14.310500 -9.297500
H -15.430300 -15.214600 -9.444700
H -15.272900 -13.241300 -10.959200
H -14.947400 -14.166600 -8.601500
N -14.815800 -13.757600 -10.445800
H -13.787300 -13.113800 -12.581900
C -13.545200 -14.012200 -10.755300
C -13.038400 -13.385000 -12.028100
O -12.804600 -14.700900 -10.044400
O -12.674900 -11.180000 -11.148700
H -12.509700 -14.029400 -12.524400
C -12.184700 -12.172200 -11.685000
N -10.894900 -12.284500 -11.998400
H -10.613900 -13.027200 -12.329500
H -10.203100 -10.555600 -12.287300
H -10.021900 -10.964300 -10.956100
N -9.970800 -11.233700 -11.809200
H -15.425700 -17.845700 -10.534100
O -15.018200 -17.109200 -10.787700
H -14.187100 -17.339800 -10.864100
