17
Fragment
N -15.439100 -14.310500 -9.297500
H -15.430300 -15.214600 -9.444700
H -15.272900 -13.241300 -10.959200
H -14.947400 -14.166600 -8.601500
N -14.815800 -13.757600 -10.445800
H -13.787300 -13.113800 -12.581900
C -13.545200 -14.012200 -10.755300
C -13.038400 -13.385000 -12.028100
O -12.804600 -14.700900 -10.044400
O -12.674900 -11.180000 -11.148700
H -12.509700 -14.029400 -12.524400
C -12.184700 -12.172200 -11.685000
N -10.894900 -12.284500 -11.998400
H -10.613900 -13.027200 -12.329500
H -10.203100 -10.555600 -12.287300
H -10.021900 -10.964300 -10.956100
N -9.970800 -11.233700 -11.809200
17
Fragment
N -13.139500 -6.368400 -7.371700
H -13.088400 -6.099100 -8.224800
H -12.907200 -5.690400 -6.893600
H -12.496300 -8.161900 -6.851400
N -12.215300 -7.419200 -7.182500
C -10.925500 -7.306900 -7.495900
H -10.600500 -9.164200 -6.656500
O -10.435300 -6.314700 -8.032200
O -10.305700 -9.835700 -9.136500
C -10.071900 -8.519700 -7.152800
C -9.565100 -9.147000 -8.425600
H -9.322900 -8.248500 -6.599000
N -8.294500 -8.892300 -8.735100
H -8.162900 -9.301400 -10.579400
H -7.837300 -8.376000 -8.221700
H -7.680000 -10.349400 -9.736200
N -7.671200 -9.445200 -9.883400
34
Fragment
N -15.439100 -14.310500 -9.297500
H -15.430300 -15.214600 -9.444700
H -15.272900 -13.241300 -10.959200
H -14.947400 -14.166600 -8.601500
N -14.815800 -13.757600 -10.445800
H -13.787300 -13.113800 -12.581900
C -13.545200 -14.012200 -10.755300
C -13.038400 -13.385000 -12.028100
O -12.804600 -14.700900 -10.044400
O -12.674900 -11.180000 -11.148700
H -12.509700 -14.029400 -12.524400
C -12.184700 -12.172200 -11.685000
N -10.894900 -12.284500 -11.998400
H -10.613900 -13.027200 -12.329500
H -10.203100 -10.555600 -12.287300
H -10.021900 -10.964300 -10.956100
N -9.970800 -11.233700 -11.809200
N -13.139500 -6.368400 -7.371700
H -13.088400 -6.099100 -8.224800
H -12.907200 -5.690400 -6.893600
H -12.496300 -8.161900 -6.851400
N -12.215300 -7.419200 -7.182500
C -10.925500 -7.306900 -7.495900
H -10.600500 -9.164200 -6.656500
O -10.435300 -6.314700 -8.032200
O -10.305700 -9.835700 -9.136500
C -10.071900 -8.519700 -7.152800
C -9.565100 -9.147000 -8.425600
H -9.322900 -8.248500 -6.599000
N -8.294500 -8.892300 -8.735100
H -8.162900 -9.301400 -10.579400
H -7.837300 -8.376000 -8.221700
H -7.680000 -10.349400 -9.736200
N -7.671200 -9.445200 -9.883400
