17
Fragment
N -15.439100 -14.310500 -9.297500
H -15.430300 -15.214600 -9.444700
H -15.272900 -13.241300 -10.959200
H -14.947400 -14.166600 -8.601500
N -14.815800 -13.757600 -10.445800
H -13.787300 -13.113800 -12.581900
C -13.545200 -14.012200 -10.755300
C -13.038400 -13.385000 -12.028100
O -12.804600 -14.700900 -10.044400
O -12.674900 -11.180000 -11.148700
H -12.509700 -14.029400 -12.524400
C -12.184700 -12.172200 -11.685000
N -10.894900 -12.284500 -11.998400
H -10.613900 -13.027200 -12.329500
H -10.203100 -10.555600 -12.287300
H -10.021900 -10.964300 -10.956100
N -9.970800 -11.233700 -11.809200
17
Fragment
N -12.265200 -8.227300 -11.207900
H -12.214100 -8.496700 -12.060900
H -12.032900 -8.905400 -10.729800
H -11.622000 -6.433800 -10.687600
N -11.341000 -7.176500 -11.018700
C -10.051200 -7.288800 -11.332100
H -9.726200 -5.431600 -10.492700
O -9.561000 -8.281000 -11.868400
O -9.431400 -4.760100 -12.972700
C -9.197600 -6.076000 -10.989000
C -8.690800 -5.448800 -12.261700
H -8.448600 -6.347200 -10.435200
N -7.420200 -5.703400 -12.571300
H -7.288600 -5.294400 -14.415600
H -6.963000 -6.219700 -12.057900
H -6.805700 -4.246400 -13.572400
N -6.796800 -5.150500 -13.719600
34
Fragment
N -15.439100 -14.310500 -9.297500
H -15.430300 -15.214600 -9.444700
H -15.272900 -13.241300 -10.959200
H -14.947400 -14.166600 -8.601500
N -14.815800 -13.757600 -10.445800
H -13.787300 -13.113800 -12.581900
C -13.545200 -14.012200 -10.755300
C -13.038400 -13.385000 -12.028100
O -12.804600 -14.700900 -10.044400
O -12.674900 -11.180000 -11.148700
H -12.509700 -14.029400 -12.524400
C -12.184700 -12.172200 -11.685000
N -10.894900 -12.284500 -11.998400
H -10.613900 -13.027200 -12.329500
H -10.203100 -10.555600 -12.287300
H -10.021900 -10.964300 -10.956100
N -9.970800 -11.233700 -11.809200
N -12.265200 -8.227300 -11.207900
H -12.214100 -8.496700 -12.060900
H -12.032900 -8.905400 -10.729800
H -11.622000 -6.433800 -10.687600
N -11.341000 -7.176500 -11.018700
C -10.051200 -7.288800 -11.332100
H -9.726200 -5.431600 -10.492700
O -9.561000 -8.281000 -11.868400
O -9.431400 -4.760100 -12.972700
C -9.197600 -6.076000 -10.989000
C -8.690800 -5.448800 -12.261700
H -8.448600 -6.347200 -10.435200
N -7.420200 -5.703400 -12.571300
H -7.288600 -5.294400 -14.415600
H -6.963000 -6.219700 -12.057900
H -6.805700 -4.246400 -13.572400
N -6.796800 -5.150500 -13.719600
