17
Fragment
N -15.439100 -14.310500 -9.297500
H -15.430300 -15.214600 -9.444700
H -15.272900 -13.241300 -10.959200
H -14.947400 -14.166600 -8.601500
N -14.815800 -13.757600 -10.445800
H -13.787300 -13.113800 -12.581900
C -13.545200 -14.012200 -10.755300
C -13.038400 -13.385000 -12.028100
O -12.804600 -14.700900 -10.044400
O -12.674900 -11.180000 -11.148700
H -12.509700 -14.029400 -12.524400
C -12.184700 -12.172200 -11.685000
N -10.894900 -12.284500 -11.998400
H -10.613900 -13.027200 -12.329500
H -10.203100 -10.555600 -12.287300
H -10.021900 -10.964300 -10.956100
N -9.970800 -11.233700 -11.809200
17
Fragment
N -11.390900 -16.098900 -15.044000
H -11.339800 -15.829600 -15.897100
H -11.158600 -15.420900 -14.566000
H -10.747700 -17.892400 -14.523800
N -10.466700 -17.149700 -14.854800
C -9.176900 -17.037400 -15.168300
H -8.851900 -18.894700 -14.328900
O -8.686700 -16.045200 -15.704600
O -8.557100 -19.566200 -16.808800
C -8.323300 -18.250200 -14.825100
C -7.816500 -18.877500 -16.097900
H -7.574300 -17.979000 -14.271400
N -6.545900 -18.622800 -16.407500
H -6.414300 -19.031900 -18.251800
H -6.088700 -18.106500 -15.894100
H -5.931300 -20.079900 -17.408600
N -5.922500 -19.175700 -17.555700
34
Fragment
N -15.439100 -14.310500 -9.297500
H -15.430300 -15.214600 -9.444700
H -15.272900 -13.241300 -10.959200
H -14.947400 -14.166600 -8.601500
N -14.815800 -13.757600 -10.445800
H -13.787300 -13.113800 -12.581900
C -13.545200 -14.012200 -10.755300
C -13.038400 -13.385000 -12.028100
O -12.804600 -14.700900 -10.044400
O -12.674900 -11.180000 -11.148700
H -12.509700 -14.029400 -12.524400
C -12.184700 -12.172200 -11.685000
N -10.894900 -12.284500 -11.998400
H -10.613900 -13.027200 -12.329500
H -10.203100 -10.555600 -12.287300
H -10.021900 -10.964300 -10.956100
N -9.970800 -11.233700 -11.809200
N -11.390900 -16.098900 -15.044000
H -11.339800 -15.829600 -15.897100
H -11.158600 -15.420900 -14.566000
H -10.747700 -17.892400 -14.523800
N -10.466700 -17.149700 -14.854800
C -9.176900 -17.037400 -15.168300
H -8.851900 -18.894700 -14.328900
O -8.686700 -16.045200 -15.704600
O -8.557100 -19.566200 -16.808800
C -8.323300 -18.250200 -14.825100
C -7.816500 -18.877500 -16.097900
H -7.574300 -17.979000 -14.271400
N -6.545900 -18.622800 -16.407500
H -6.414300 -19.031900 -18.251800
H -6.088700 -18.106500 -15.894100
H -5.931300 -20.079900 -17.408600
N -5.922500 -19.175700 -17.555700
