30
Fragment
F -22.741500 -14.923000 -33.414000
F -21.878600 -16.863300 -33.135900
C -21.617200 -15.617200 -33.539400
F -21.312900 -15.673200 -34.828300
C -20.491600 -15.017800 -32.755100
N -20.452800 -14.984400 -31.435300
H -19.685900 -14.459600 -28.290700
N -19.430000 -14.434000 -33.365800
H -19.326600 -14.319700 -34.271100
C -19.274400 -14.325100 -31.157800
F -19.129000 -14.067100 -25.900900
N -19.031700 -14.116800 -28.614800
C -18.663500 -13.965200 -29.930400
C -18.628900 -13.976900 -32.352000
F -18.169900 -12.185000 -25.992700
C -18.081000 -13.444400 -26.390400
C -18.038100 -13.541500 -27.889900
C -17.429000 -13.296600 -29.905400
C -17.387200 -13.308300 -32.357400
N -17.051300 -13.041700 -28.604200
F -16.991800 -13.915500 -25.839100
C -16.797600 -12.976400 -31.132500
N -16.597900 -12.871400 -33.399700
N -15.624800 -12.338100 -31.441100
C -15.572400 -12.310100 -32.793500
H -14.949100 -12.073000 -30.941000
F -14.728500 -11.492100 -34.800300
C -14.424300 -11.682800 -33.524600
F -14.114200 -10.496100 -32.994500
F -13.324700 -12.429100 -33.476000
30
Fragment
F -29.044200 -12.286000 -23.020700
F -28.181300 -10.345700 -22.742500
C -27.919900 -11.591800 -23.146000
F -27.615600 -11.535800 -24.435000
C -26.794300 -12.191200 -22.361700
N -26.755500 -12.224600 -21.042000
H -25.988600 -12.749400 -17.897400
N -25.732700 -12.775000 -22.972400
H -25.629300 -12.889300 -23.877700
C -25.577100 -12.883900 -20.764500
F -25.431700 -13.141900 -15.507500
N -25.334400 -13.092200 -18.221400
C -24.966200 -13.243800 -19.537000
C -24.931600 -13.232100 -21.958700
F -24.472600 -15.024000 -15.599400
C -24.383700 -13.764600 -15.997000
C -24.340800 -13.667500 -17.496600
C -23.731700 -13.912400 -19.512100
C -23.689900 -13.900700 -21.964100
N -23.354000 -14.167300 -18.210800
F -23.294500 -13.293500 -15.445800
C -23.100300 -14.232600 -20.739100
N -22.900600 -14.337600 -23.006300
N -21.927500 -14.870900 -21.047800
C -21.875100 -14.898900 -22.400200
H -21.251800 -15.136000 -20.547700
F -21.031200 -15.716900 -24.406900
C -20.727000 -15.526200 -23.131200
F -20.416900 -16.712900 -22.601200
F -19.627400 -14.779900 -23.082600
60
Fragment
F -22.741500 -14.923000 -33.414000
F -21.878600 -16.863300 -33.135900
C -21.617200 -15.617200 -33.539400
F -21.312900 -15.673200 -34.828300
C -20.491600 -15.017800 -32.755100
N -20.452800 -14.984400 -31.435300
H -19.685900 -14.459600 -28.290700
N -19.430000 -14.434000 -33.365800
H -19.326600 -14.319700 -34.271100
C -19.274400 -14.325100 -31.157800
F -19.129000 -14.067100 -25.900900
N -19.031700 -14.116800 -28.614800
C -18.663500 -13.965200 -29.930400
C -18.628900 -13.976900 -32.352000
F -18.169900 -12.185000 -25.992700
C -18.081000 -13.444400 -26.390400
C -18.038100 -13.541500 -27.889900
C -17.429000 -13.296600 -29.905400
C -17.387200 -13.308300 -32.357400
N -17.051300 -13.041700 -28.604200
F -16.991800 -13.915500 -25.839100
C -16.797600 -12.976400 -31.132500
N -16.597900 -12.871400 -33.399700
N -15.624800 -12.338100 -31.441100
C -15.572400 -12.310100 -32.793500
H -14.949100 -12.073000 -30.941000
F -14.728500 -11.492100 -34.800300
C -14.424300 -11.682800 -33.524600
F -14.114200 -10.496100 -32.994500
F -13.324700 -12.429100 -33.476000
F -29.044200 -12.286000 -23.020700
F -28.181300 -10.345700 -22.742500
C -27.919900 -11.591800 -23.146000
F -27.615600 -11.535800 -24.435000
C -26.794300 -12.191200 -22.361700
N -26.755500 -12.224600 -21.042000
H -25.988600 -12.749400 -17.897400
N -25.732700 -12.775000 -22.972400
H -25.629300 -12.889300 -23.877700
C -25.577100 -12.883900 -20.764500
F -25.431700 -13.141900 -15.507500
N -25.334400 -13.092200 -18.221400
C -24.966200 -13.243800 -19.537000
C -24.931600 -13.232100 -21.958700
F -24.472600 -15.024000 -15.599400
C -24.383700 -13.764600 -15.997000
C -24.340800 -13.667500 -17.496600
C -23.731700 -13.912400 -19.512100
C -23.689900 -13.900700 -21.964100
N -23.354000 -14.167300 -18.210800
F -23.294500 -13.293500 -15.445800
C -23.100300 -14.232600 -20.739100
N -22.900600 -14.337600 -23.006300
N -21.927500 -14.870900 -21.047800
C -21.875100 -14.898900 -22.400200
H -21.251800 -15.136000 -20.547700
F -21.031200 -15.716900 -24.406900
C -20.727000 -15.526200 -23.131200
F -20.416900 -16.712900 -22.601200
F -19.627400 -14.779900 -23.082600
