30
Fragment
F -22.741500 -14.923000 -33.414000
F -21.878600 -16.863300 -33.135900
C -21.617200 -15.617200 -33.539400
F -21.312900 -15.673200 -34.828300
C -20.491600 -15.017800 -32.755100
N -20.452800 -14.984400 -31.435300
H -19.685900 -14.459600 -28.290700
N -19.430000 -14.434000 -33.365800
H -19.326600 -14.319700 -34.271100
C -19.274400 -14.325100 -31.157800
F -19.129000 -14.067100 -25.900900
N -19.031700 -14.116800 -28.614800
C -18.663500 -13.965200 -29.930400
C -18.628900 -13.976900 -32.352000
F -18.169900 -12.185000 -25.992700
C -18.081000 -13.444400 -26.390400
C -18.038100 -13.541500 -27.889900
C -17.429000 -13.296600 -29.905400
C -17.387200 -13.308300 -32.357400
N -17.051300 -13.041700 -28.604200
F -16.991800 -13.915500 -25.839100
C -16.797600 -12.976400 -31.132500
N -16.597900 -12.871400 -33.399700
N -15.624800 -12.338100 -31.441100
C -15.572400 -12.310100 -32.793500
H -14.949100 -12.073000 -30.941000
F -14.728500 -11.492100 -34.800300
C -14.424300 -11.682800 -33.524600
F -14.114200 -10.496100 -32.994500
F -13.324700 -12.429100 -33.476000
3
Fragment
H -21.457100 -15.182600 -38.206000
H -21.186000 -16.185500 -37.416100
O -20.852800 -15.563500 -37.828700
33
Fragment
F -22.741500 -14.923000 -33.414000
F -21.878600 -16.863300 -33.135900
C -21.617200 -15.617200 -33.539400
F -21.312900 -15.673200 -34.828300
C -20.491600 -15.017800 -32.755100
N -20.452800 -14.984400 -31.435300
H -19.685900 -14.459600 -28.290700
N -19.430000 -14.434000 -33.365800
H -19.326600 -14.319700 -34.271100
C -19.274400 -14.325100 -31.157800
F -19.129000 -14.067100 -25.900900
N -19.031700 -14.116800 -28.614800
C -18.663500 -13.965200 -29.930400
C -18.628900 -13.976900 -32.352000
F -18.169900 -12.185000 -25.992700
C -18.081000 -13.444400 -26.390400
C -18.038100 -13.541500 -27.889900
C -17.429000 -13.296600 -29.905400
C -17.387200 -13.308300 -32.357400
N -17.051300 -13.041700 -28.604200
F -16.991800 -13.915500 -25.839100
C -16.797600 -12.976400 -31.132500
N -16.597900 -12.871400 -33.399700
N -15.624800 -12.338100 -31.441100
C -15.572400 -12.310100 -32.793500
H -14.949100 -12.073000 -30.941000
F -14.728500 -11.492100 -34.800300
C -14.424300 -11.682800 -33.524600
F -14.114200 -10.496100 -32.994500
F -13.324700 -12.429100 -33.476000
H -21.457100 -15.182600 -38.206000
H -21.186000 -16.185500 -37.416100
O -20.852800 -15.563500 -37.828700
