30
Fragment
F -22.741500 -14.923000 -33.414000
F -21.878600 -16.863300 -33.135900
C -21.617200 -15.617200 -33.539400
F -21.312900 -15.673200 -34.828300
C -20.491600 -15.017800 -32.755100
N -20.452800 -14.984400 -31.435300
H -19.685900 -14.459600 -28.290700
N -19.430000 -14.434000 -33.365800
H -19.326600 -14.319700 -34.271100
C -19.274400 -14.325100 -31.157800
F -19.129000 -14.067100 -25.900900
N -19.031700 -14.116800 -28.614800
C -18.663500 -13.965200 -29.930400
C -18.628900 -13.976900 -32.352000
F -18.169900 -12.185000 -25.992700
C -18.081000 -13.444400 -26.390400
C -18.038100 -13.541500 -27.889900
C -17.429000 -13.296600 -29.905400
C -17.387200 -13.308300 -32.357400
N -17.051300 -13.041700 -28.604200
F -16.991800 -13.915500 -25.839100
C -16.797600 -12.976400 -31.132500
N -16.597900 -12.871400 -33.399700
N -15.624800 -12.338100 -31.441100
C -15.572400 -12.310100 -32.793500
H -14.949100 -12.073000 -30.941000
F -14.728500 -11.492100 -34.800300
C -14.424300 -11.682800 -33.524600
F -14.114200 -10.496100 -32.994500
F -13.324700 -12.429100 -33.476000
30
Fragment
F -22.641100 -10.892900 -28.884200
F -21.851600 -12.825900 -29.365600
C -21.541500 -11.639200 -28.835500
F -21.237300 -11.829900 -27.559900
H -21.016700 -11.249000 -31.419100
C -20.393400 -11.011900 -29.566600
N -20.341000 -10.983900 -30.919000
N -19.367900 -10.450600 -28.960500
C -19.168200 -10.345600 -31.227700
F -18.974000 -9.406500 -36.521000
N -18.914500 -10.280300 -33.756000
C -18.578600 -10.013700 -30.002700
C -18.536800 -10.025400 -32.454700
C -17.927700 -9.780500 -34.470200
C -17.884800 -9.877600 -35.969700
F -17.795900 -11.137000 -36.367400
C -17.336900 -9.345100 -30.008100
C -17.302300 -9.356800 -32.429800
N -16.934200 -9.205200 -33.745400
F -16.836800 -9.254900 -36.459300
C -16.691400 -8.996900 -31.202300
H -16.639200 -9.002300 -28.089100
N -16.535800 -8.888000 -28.994300
H -16.279900 -8.862400 -34.069400
N -15.513000 -8.337600 -30.924800
C -15.474200 -8.304200 -29.605100
F -14.652900 -7.648800 -27.531800
C -14.348600 -7.704800 -28.820800
F -14.087200 -6.458700 -29.224200
F -13.224300 -8.399000 -28.946100
60
Fragment
F -22.741500 -14.923000 -33.414000
F -21.878600 -16.863300 -33.135900
C -21.617200 -15.617200 -33.539400
F -21.312900 -15.673200 -34.828300
C -20.491600 -15.017800 -32.755100
N -20.452800 -14.984400 -31.435300
H -19.685900 -14.459600 -28.290700
N -19.430000 -14.434000 -33.365800
H -19.326600 -14.319700 -34.271100
C -19.274400 -14.325100 -31.157800
F -19.129000 -14.067100 -25.900900
N -19.031700 -14.116800 -28.614800
C -18.663500 -13.965200 -29.930400
C -18.628900 -13.976900 -32.352000
F -18.169900 -12.185000 -25.992700
C -18.081000 -13.444400 -26.390400
C -18.038100 -13.541500 -27.889900
C -17.429000 -13.296600 -29.905400
C -17.387200 -13.308300 -32.357400
N -17.051300 -13.041700 -28.604200
F -16.991800 -13.915500 -25.839100
C -16.797600 -12.976400 -31.132500
N -16.597900 -12.871400 -33.399700
N -15.624800 -12.338100 -31.441100
C -15.572400 -12.310100 -32.793500
H -14.949100 -12.073000 -30.941000
F -14.728500 -11.492100 -34.800300
C -14.424300 -11.682800 -33.524600
F -14.114200 -10.496100 -32.994500
F -13.324700 -12.429100 -33.476000
F -22.641100 -10.892900 -28.884200
F -21.851600 -12.825900 -29.365600
C -21.541500 -11.639200 -28.835500
F -21.237300 -11.829900 -27.559900
H -21.016700 -11.249000 -31.419100
C -20.393400 -11.011900 -29.566600
N -20.341000 -10.983900 -30.919000
N -19.367900 -10.450600 -28.960500
C -19.168200 -10.345600 -31.227700
F -18.974000 -9.406500 -36.521000
N -18.914500 -10.280300 -33.756000
C -18.578600 -10.013700 -30.002700
C -18.536800 -10.025400 -32.454700
C -17.927700 -9.780500 -34.470200
C -17.884800 -9.877600 -35.969700
F -17.795900 -11.137000 -36.367400
C -17.336900 -9.345100 -30.008100
C -17.302300 -9.356800 -32.429800
N -16.934200 -9.205200 -33.745400
F -16.836800 -9.254900 -36.459300
C -16.691400 -8.996900 -31.202300
H -16.639200 -9.002300 -28.089100
N -16.535800 -8.888000 -28.994300
H -16.279900 -8.862400 -34.069400
N -15.513000 -8.337600 -30.924800
C -15.474200 -8.304200 -29.605100
F -14.652900 -7.648800 -27.531800
C -14.348600 -7.704800 -28.820800
F -14.087200 -6.458700 -29.224200
F -13.224300 -8.399000 -28.946100
