30
Fragment
F -22.741500 -14.923000 -33.414000
F -21.878600 -16.863300 -33.135900
C -21.617200 -15.617200 -33.539400
F -21.312900 -15.673200 -34.828300
C -20.491600 -15.017800 -32.755100
N -20.452800 -14.984400 -31.435300
H -19.685900 -14.459600 -28.290700
N -19.430000 -14.434000 -33.365800
H -19.326600 -14.319700 -34.271100
C -19.274400 -14.325100 -31.157800
F -19.129000 -14.067100 -25.900900
N -19.031700 -14.116800 -28.614800
C -18.663500 -13.965200 -29.930400
C -18.628900 -13.976900 -32.352000
F -18.169900 -12.185000 -25.992700
C -18.081000 -13.444400 -26.390400
C -18.038100 -13.541500 -27.889900
C -17.429000 -13.296600 -29.905400
C -17.387200 -13.308300 -32.357400
N -17.051300 -13.041700 -28.604200
F -16.991800 -13.915500 -25.839100
C -16.797600 -12.976400 -31.132500
N -16.597900 -12.871400 -33.399700
N -15.624800 -12.338100 -31.441100
C -15.572400 -12.310100 -32.793500
H -14.949100 -12.073000 -30.941000
F -14.728500 -11.492100 -34.800300
C -14.424300 -11.682800 -33.524600
F -14.114200 -10.496100 -32.994500
F -13.324700 -12.429100 -33.476000
30
Fragment
F -28.735800 -12.286000 -43.807400
F -27.872900 -10.345700 -43.529200
C -27.611500 -11.591800 -43.932700
F -27.307200 -11.535800 -45.221700
C -26.485900 -12.191200 -43.148400
N -26.447100 -12.224600 -41.828700
H -25.680200 -12.749400 -38.684100
N -25.424300 -12.775000 -43.759100
H -25.320900 -12.889300 -44.664400
C -25.268700 -12.883900 -41.551200
F -25.123300 -13.141900 -36.294200
N -25.026000 -13.092200 -39.008100
C -24.657800 -13.243800 -40.323700
C -24.623200 -13.232100 -42.745400
F -24.164200 -15.024000 -36.386100
C -24.075300 -13.764600 -36.783800
C -24.032400 -13.667500 -38.283300
C -23.423300 -13.912400 -40.298800
C -23.381500 -13.900700 -42.750800
N -23.045600 -14.167300 -38.997500
F -22.986100 -13.293500 -36.232500
C -22.791900 -14.232600 -41.525800
N -22.592200 -14.337600 -43.793000
N -21.619100 -14.870900 -41.834500
C -21.566700 -14.898900 -43.186900
H -20.943400 -15.136000 -41.334400
F -20.722800 -15.716900 -45.193600
C -20.418600 -15.526200 -43.918000
F -20.108500 -16.712900 -43.387900
F -19.319000 -14.779900 -43.869300
60
Fragment
F -22.741500 -14.923000 -33.414000
F -21.878600 -16.863300 -33.135900
C -21.617200 -15.617200 -33.539400
F -21.312900 -15.673200 -34.828300
C -20.491600 -15.017800 -32.755100
N -20.452800 -14.984400 -31.435300
H -19.685900 -14.459600 -28.290700
N -19.430000 -14.434000 -33.365800
H -19.326600 -14.319700 -34.271100
C -19.274400 -14.325100 -31.157800
F -19.129000 -14.067100 -25.900900
N -19.031700 -14.116800 -28.614800
C -18.663500 -13.965200 -29.930400
C -18.628900 -13.976900 -32.352000
F -18.169900 -12.185000 -25.992700
C -18.081000 -13.444400 -26.390400
C -18.038100 -13.541500 -27.889900
C -17.429000 -13.296600 -29.905400
C -17.387200 -13.308300 -32.357400
N -17.051300 -13.041700 -28.604200
F -16.991800 -13.915500 -25.839100
C -16.797600 -12.976400 -31.132500
N -16.597900 -12.871400 -33.399700
N -15.624800 -12.338100 -31.441100
C -15.572400 -12.310100 -32.793500
H -14.949100 -12.073000 -30.941000
F -14.728500 -11.492100 -34.800300
C -14.424300 -11.682800 -33.524600
F -14.114200 -10.496100 -32.994500
F -13.324700 -12.429100 -33.476000
F -28.735800 -12.286000 -43.807400
F -27.872900 -10.345700 -43.529200
C -27.611500 -11.591800 -43.932700
F -27.307200 -11.535800 -45.221700
C -26.485900 -12.191200 -43.148400
N -26.447100 -12.224600 -41.828700
H -25.680200 -12.749400 -38.684100
N -25.424300 -12.775000 -43.759100
H -25.320900 -12.889300 -44.664400
C -25.268700 -12.883900 -41.551200
F -25.123300 -13.141900 -36.294200
N -25.026000 -13.092200 -39.008100
C -24.657800 -13.243800 -40.323700
C -24.623200 -13.232100 -42.745400
F -24.164200 -15.024000 -36.386100
C -24.075300 -13.764600 -36.783800
C -24.032400 -13.667500 -38.283300
C -23.423300 -13.912400 -40.298800
C -23.381500 -13.900700 -42.750800
N -23.045600 -14.167300 -38.997500
F -22.986100 -13.293500 -36.232500
C -22.791900 -14.232600 -41.525800
N -22.592200 -14.337600 -43.793000
N -21.619100 -14.870900 -41.834500
C -21.566700 -14.898900 -43.186900
H -20.943400 -15.136000 -41.334400
F -20.722800 -15.716900 -45.193600
C -20.418600 -15.526200 -43.918000
F -20.108500 -16.712900 -43.387900
F -19.319000 -14.779900 -43.869300
