6
Fragment
H -9.683900 -30.826200 -16.105200
H -9.345600 -29.968500 -14.837000
H -9.304900 -31.533800 -14.759300
C -9.136200 -30.771600 -15.319100
O -7.917500 -30.756600 -15.654700
H -7.369100 -30.526000 -14.753700
38
Fragment
H -9.912800 -36.296000 -9.223900
H -9.897000 -31.654700 -8.463700
H -9.817900 -30.609900 -7.298000
C -9.298700 -31.238100 -7.824000
H -9.133000 -36.027000 -7.890400
C -9.048000 -36.131100 -8.841000
N -8.757000 -32.275700 -6.930900
H -8.749500 -32.151800 -5.957800
H -8.671900 -36.565000 -11.634000
H -8.640000 -29.795100 -9.132600
N -8.483900 -34.905900 -9.418700
H -8.467800 -36.871000 -9.031300
C -8.401700 -35.692300 -11.803000
C -8.387800 -33.506500 -7.321700
C -8.253700 -33.683700 -8.795900
C -8.240300 -34.761700 -10.764600
H -8.223700 -35.853500 -13.791900
C -8.218500 -30.473400 -8.583000
O -8.151600 -34.419400 -6.507200
C -8.142200 -35.254600 -13.084600
C -7.811400 -33.430500 -11.006700
C -7.811000 -32.752900 -9.728300
C -7.756800 -33.923100 -13.351500
H -7.643600 -30.023100 -7.944500
H -7.612200 -33.656600 -14.231100
C -7.591400 -33.010000 -12.326700
C -7.365100 -31.369700 -9.470100
H -7.338500 -32.134200 -12.509100
C -6.210700 -30.894800 -9.996500
O -6.107300 -28.577900 -9.225100
C -5.590500 -29.535600 -9.828200
H -5.263700 -32.397400 -11.014600
N -5.229800 -31.600700 -10.724900
N -4.358400 -29.523900 -10.429400
C -4.177100 -30.760900 -10.937200
N -3.081100 -31.137700 -11.576900
H -3.009400 -31.913900 -11.859300
H -2.481600 -30.594300 -11.645300
44
Fragment
H -9.683900 -30.826200 -16.105200
H -9.345600 -29.968500 -14.837000
H -9.304900 -31.533800 -14.759300
C -9.136200 -30.771600 -15.319100
O -7.917500 -30.756600 -15.654700
H -7.369100 -30.526000 -14.753700
H -9.912800 -36.296000 -9.223900
H -9.897000 -31.654700 -8.463700
H -9.817900 -30.609900 -7.298000
C -9.298700 -31.238100 -7.824000
H -9.133000 -36.027000 -7.890400
C -9.048000 -36.131100 -8.841000
N -8.757000 -32.275700 -6.930900
H -8.749500 -32.151800 -5.957800
H -8.671900 -36.565000 -11.634000
H -8.640000 -29.795100 -9.132600
N -8.483900 -34.905900 -9.418700
H -8.467800 -36.871000 -9.031300
C -8.401700 -35.692300 -11.803000
C -8.387800 -33.506500 -7.321700
C -8.253700 -33.683700 -8.795900
C -8.240300 -34.761700 -10.764600
H -8.223700 -35.853500 -13.791900
C -8.218500 -30.473400 -8.583000
O -8.151600 -34.419400 -6.507200
C -8.142200 -35.254600 -13.084600
C -7.811400 -33.430500 -11.006700
C -7.811000 -32.752900 -9.728300
C -7.756800 -33.923100 -13.351500
H -7.643600 -30.023100 -7.944500
H -7.612200 -33.656600 -14.231100
C -7.591400 -33.010000 -12.326700
C -7.365100 -31.369700 -9.470100
H -7.338500 -32.134200 -12.509100
C -6.210700 -30.894800 -9.996500
O -6.107300 -28.577900 -9.225100
C -5.590500 -29.535600 -9.828200
H -5.263700 -32.397400 -11.014600
N -5.229800 -31.600700 -10.724900
N -4.358400 -29.523900 -10.429400
C -4.177100 -30.760900 -10.937200
N -3.081100 -31.137700 -11.576900
H -3.009400 -31.913900 -11.859300
H -2.481600 -30.594300 -11.645300
