20
Fragment
H -13.798600 -31.835300 -12.297700
O -13.128600 -30.154900 -13.913600
C -12.910200 -32.201300 -12.279200
H -12.787400 -32.703500 -11.469800
H -12.785800 -32.777100 -13.036000
N -12.108800 -30.103500 -13.251300
N -11.954600 -31.133700 -12.329900
O -11.324800 -29.237000 -13.368100
C -10.780300 -31.170300 -11.565300
O -10.536000 -32.063400 -10.838700
O -10.140200 -29.116900 -10.620500
C -9.904600 -29.916100 -11.509800
O -9.415300 -31.529600 -13.555200
N -8.745700 -29.831300 -12.269500
N -8.510000 -30.748500 -13.279500
H -7.974100 -28.329300 -11.190300
C -7.645100 -28.967600 -11.829200
O -7.416600 -30.732900 -13.791800
H -7.281300 -28.501200 -12.586000
H -6.959800 -29.503200 -11.423100
36
Fragment
O -7.337900 -27.953500 -5.428100
O -7.306500 -25.605700 -7.193000
H -6.447700 -28.137400 -7.562100
N -6.303100 -25.363600 -7.865000
N -6.297500 -27.405400 -5.140800
O -6.038100 -26.789400 -4.135600
O -5.937700 -24.265600 -8.287800
C -5.581400 -27.691100 -7.460800
N -5.537700 -26.441500 -8.239100
N -5.238000 -27.543300 -6.076800
H -4.805400 -29.289000 -8.633500
O -4.629500 -28.920100 -10.794800
C -4.444600 -28.496700 -8.186500
H -4.220600 -25.604400 -9.527700
C -4.203100 -26.213700 -8.760200
N -4.151400 -27.826700 -10.541600
C -3.987800 -26.947900 -5.768000
N -3.891600 -25.581400 -6.382600
H -3.854000 -26.903300 -4.797900
N -3.845300 -27.560300 -9.164400
O -3.826600 -26.965800 -11.333500
O -3.544200 -24.714400 -4.334300
N -3.450400 -28.863400 -7.193000
N -3.387400 -24.549500 -5.539100
C -3.191100 -25.711500 -7.649800
O -3.102500 -30.763000 -8.297500
O -2.900500 -23.586900 -6.067000
C -2.834100 -27.780300 -6.455700
H -2.753600 -24.874600 -7.910800
N -2.740200 -30.052200 -7.379000
N -2.214500 -26.743000 -7.286500
H -2.201600 -28.121800 -5.789500
O -1.866600 -30.303100 -6.587200
N -1.240800 -27.083400 -8.197200
O -1.064500 -26.291600 -9.120500
O -0.598700 -28.093900 -7.972200
56
Fragment
H -13.798600 -31.835300 -12.297700
O -13.128600 -30.154900 -13.913600
C -12.910200 -32.201300 -12.279200
H -12.787400 -32.703500 -11.469800
H -12.785800 -32.777100 -13.036000
N -12.108800 -30.103500 -13.251300
N -11.954600 -31.133700 -12.329900
O -11.324800 -29.237000 -13.368100
C -10.780300 -31.170300 -11.565300
O -10.536000 -32.063400 -10.838700
O -10.140200 -29.116900 -10.620500
C -9.904600 -29.916100 -11.509800
O -9.415300 -31.529600 -13.555200
N -8.745700 -29.831300 -12.269500
N -8.510000 -30.748500 -13.279500
H -7.974100 -28.329300 -11.190300
C -7.645100 -28.967600 -11.829200
O -7.416600 -30.732900 -13.791800
H -7.281300 -28.501200 -12.586000
H -6.959800 -29.503200 -11.423100
O -7.337900 -27.953500 -5.428100
O -7.306500 -25.605700 -7.193000
H -6.447700 -28.137400 -7.562100
N -6.303100 -25.363600 -7.865000
N -6.297500 -27.405400 -5.140800
O -6.038100 -26.789400 -4.135600
O -5.937700 -24.265600 -8.287800
C -5.581400 -27.691100 -7.460800
N -5.537700 -26.441500 -8.239100
N -5.238000 -27.543300 -6.076800
H -4.805400 -29.289000 -8.633500
O -4.629500 -28.920100 -10.794800
C -4.444600 -28.496700 -8.186500
H -4.220600 -25.604400 -9.527700
C -4.203100 -26.213700 -8.760200
N -4.151400 -27.826700 -10.541600
C -3.987800 -26.947900 -5.768000
N -3.891600 -25.581400 -6.382600
H -3.854000 -26.903300 -4.797900
N -3.845300 -27.560300 -9.164400
O -3.826600 -26.965800 -11.333500
O -3.544200 -24.714400 -4.334300
N -3.450400 -28.863400 -7.193000
N -3.387400 -24.549500 -5.539100
C -3.191100 -25.711500 -7.649800
O -3.102500 -30.763000 -8.297500
O -2.900500 -23.586900 -6.067000
C -2.834100 -27.780300 -6.455700
H -2.753600 -24.874600 -7.910800
N -2.740200 -30.052200 -7.379000
N -2.214500 -26.743000 -7.286500
H -2.201600 -28.121800 -5.789500
O -1.866600 -30.303100 -6.587200
N -1.240800 -27.083400 -8.197200
O -1.064500 -26.291600 -9.120500
O -0.598700 -28.093900 -7.972200
