20
Fragment
H -13.798600 -31.835300 -12.297700
O -13.128600 -30.154900 -13.913600
C -12.910200 -32.201300 -12.279200
H -12.787400 -32.703500 -11.469800
H -12.785800 -32.777100 -13.036000
N -12.108800 -30.103500 -13.251300
N -11.954600 -31.133700 -12.329900
O -11.324800 -29.237000 -13.368100
C -10.780300 -31.170300 -11.565300
O -10.536000 -32.063400 -10.838700
O -10.140200 -29.116900 -10.620500
C -9.904600 -29.916100 -11.509800
O -9.415300 -31.529600 -13.555200
N -8.745700 -29.831300 -12.269500
N -8.510000 -30.748500 -13.279500
H -7.974100 -28.329300 -11.190300
C -7.645100 -28.967600 -11.829200
O -7.416600 -30.732900 -13.791800
H -7.281300 -28.501200 -12.586000
H -6.959800 -29.503200 -11.423100
36
Fragment
O -12.039200 -21.891100 -11.239000
O -11.571700 -23.674200 -10.079000
N -11.426900 -22.917000 -11.044200
O -10.947000 -19.786600 -12.837300
H -10.501700 -21.975600 -13.522000
N -10.476000 -23.291900 -11.967500
N -10.061500 -19.961500 -12.026000
H -9.921700 -25.135700 -11.289600
C -9.870900 -22.274700 -12.833400
O -9.737400 -19.181500 -11.136700
O -9.627000 -26.502400 -13.051600
C -9.493500 -24.297300 -11.561400
O -9.358000 -20.838800 -8.601400
N -9.311500 -21.147700 -12.120500
N -9.216500 -25.519600 -13.646700
N -9.135400 -22.018900 -8.779600
O -9.123000 -22.908500 -7.950800
O -9.103900 -25.381500 -14.829100
N -8.925000 -22.396300 -10.117900
H -8.791500 -23.187500 -14.443400
N -8.742100 -24.447500 -12.812000
C -8.682300 -23.107100 -13.473300
C -8.518000 -23.740900 -10.438400
H -8.503900 -24.316700 -9.646500
C -8.363200 -21.442300 -11.089000
H -8.055900 -20.623200 -10.644800
N -7.452600 -22.432700 -13.145100
N -7.166500 -23.463500 -10.939000
C -7.151700 -22.225600 -11.750300
O -6.718000 -25.629600 -10.855200
O -6.562500 -23.205300 -15.042500
N -6.372100 -24.540100 -11.303300
N -6.371800 -22.540300 -14.045100
H -6.310000 -21.736900 -11.638300
O -5.397600 -24.293100 -11.982100
O -5.369700 -21.914300 -13.752900
56
Fragment
H -13.798600 -31.835300 -12.297700
O -13.128600 -30.154900 -13.913600
C -12.910200 -32.201300 -12.279200
H -12.787400 -32.703500 -11.469800
H -12.785800 -32.777100 -13.036000
N -12.108800 -30.103500 -13.251300
N -11.954600 -31.133700 -12.329900
O -11.324800 -29.237000 -13.368100
C -10.780300 -31.170300 -11.565300
O -10.536000 -32.063400 -10.838700
O -10.140200 -29.116900 -10.620500
C -9.904600 -29.916100 -11.509800
O -9.415300 -31.529600 -13.555200
N -8.745700 -29.831300 -12.269500
N -8.510000 -30.748500 -13.279500
H -7.974100 -28.329300 -11.190300
C -7.645100 -28.967600 -11.829200
O -7.416600 -30.732900 -13.791800
H -7.281300 -28.501200 -12.586000
H -6.959800 -29.503200 -11.423100
O -12.039200 -21.891100 -11.239000
O -11.571700 -23.674200 -10.079000
N -11.426900 -22.917000 -11.044200
O -10.947000 -19.786600 -12.837300
H -10.501700 -21.975600 -13.522000
N -10.476000 -23.291900 -11.967500
N -10.061500 -19.961500 -12.026000
H -9.921700 -25.135700 -11.289600
C -9.870900 -22.274700 -12.833400
O -9.737400 -19.181500 -11.136700
O -9.627000 -26.502400 -13.051600
C -9.493500 -24.297300 -11.561400
O -9.358000 -20.838800 -8.601400
N -9.311500 -21.147700 -12.120500
N -9.216500 -25.519600 -13.646700
N -9.135400 -22.018900 -8.779600
O -9.123000 -22.908500 -7.950800
O -9.103900 -25.381500 -14.829100
N -8.925000 -22.396300 -10.117900
H -8.791500 -23.187500 -14.443400
N -8.742100 -24.447500 -12.812000
C -8.682300 -23.107100 -13.473300
C -8.518000 -23.740900 -10.438400
H -8.503900 -24.316700 -9.646500
C -8.363200 -21.442300 -11.089000
H -8.055900 -20.623200 -10.644800
N -7.452600 -22.432700 -13.145100
N -7.166500 -23.463500 -10.939000
C -7.151700 -22.225600 -11.750300
O -6.718000 -25.629600 -10.855200
O -6.562500 -23.205300 -15.042500
N -6.372100 -24.540100 -11.303300
N -6.371800 -22.540300 -14.045100
H -6.310000 -21.736900 -11.638300
O -5.397600 -24.293100 -11.982100
O -5.369700 -21.914300 -13.752900
