20
Fragment
H -13.798600 -31.835300 -12.297700
O -13.128600 -30.154900 -13.913600
C -12.910200 -32.201300 -12.279200
H -12.787400 -32.703500 -11.469800
H -12.785800 -32.777100 -13.036000
N -12.108800 -30.103500 -13.251300
N -11.954600 -31.133700 -12.329900
O -11.324800 -29.237000 -13.368100
C -10.780300 -31.170300 -11.565300
O -10.536000 -32.063400 -10.838700
O -10.140200 -29.116900 -10.620500
C -9.904600 -29.916100 -11.509800
O -9.415300 -31.529600 -13.555200
N -8.745700 -29.831300 -12.269500
N -8.510000 -30.748500 -13.279500
H -7.974100 -28.329300 -11.190300
C -7.645100 -28.967600 -11.829200
O -7.416600 -30.732900 -13.791800
H -7.281300 -28.501200 -12.586000
H -6.959800 -29.503200 -11.423100
36
Fragment
O -15.831600 -27.953500 -5.428100
O -15.800200 -25.605700 -7.193000
H -14.941400 -28.137400 -7.562100
N -14.796800 -25.363600 -7.865000
N -14.791200 -27.405400 -5.140800
O -14.531800 -26.789400 -4.135600
O -14.431400 -24.265600 -8.287800
C -14.075100 -27.691100 -7.460800
N -14.031400 -26.441500 -8.239100
N -13.731700 -27.543300 -6.076800
H -13.299100 -29.289000 -8.633500
O -13.123200 -28.920100 -10.794800
C -12.938300 -28.496700 -8.186500
H -12.714300 -25.604400 -9.527700
C -12.696800 -26.213700 -8.760200
N -12.645100 -27.826700 -10.541600
C -12.481500 -26.947900 -5.768000
N -12.385300 -25.581400 -6.382600
H -12.347700 -26.903300 -4.797900
N -12.339000 -27.560300 -9.164400
O -12.320300 -26.965800 -11.333500
O -12.037900 -24.714400 -4.334300
N -11.944100 -28.863400 -7.193000
N -11.881100 -24.549500 -5.539100
C -11.684800 -25.711500 -7.649800
O -11.596200 -30.763000 -8.297500
O -11.394200 -23.586900 -6.067000
C -11.327800 -27.780300 -6.455700
H -11.247300 -24.874600 -7.910800
N -11.233900 -30.052200 -7.379000
N -10.708200 -26.743000 -7.286500
H -10.695300 -28.121800 -5.789500
O -10.360300 -30.303100 -6.587200
N -9.734500 -27.083400 -8.197200
O -9.558200 -26.291600 -9.120500
O -9.092400 -28.093900 -7.972200
56
Fragment
H -13.798600 -31.835300 -12.297700
O -13.128600 -30.154900 -13.913600
C -12.910200 -32.201300 -12.279200
H -12.787400 -32.703500 -11.469800
H -12.785800 -32.777100 -13.036000
N -12.108800 -30.103500 -13.251300
N -11.954600 -31.133700 -12.329900
O -11.324800 -29.237000 -13.368100
C -10.780300 -31.170300 -11.565300
O -10.536000 -32.063400 -10.838700
O -10.140200 -29.116900 -10.620500
C -9.904600 -29.916100 -11.509800
O -9.415300 -31.529600 -13.555200
N -8.745700 -29.831300 -12.269500
N -8.510000 -30.748500 -13.279500
H -7.974100 -28.329300 -11.190300
C -7.645100 -28.967600 -11.829200
O -7.416600 -30.732900 -13.791800
H -7.281300 -28.501200 -12.586000
H -6.959800 -29.503200 -11.423100
O -15.831600 -27.953500 -5.428100
O -15.800200 -25.605700 -7.193000
H -14.941400 -28.137400 -7.562100
N -14.796800 -25.363600 -7.865000
N -14.791200 -27.405400 -5.140800
O -14.531800 -26.789400 -4.135600
O -14.431400 -24.265600 -8.287800
C -14.075100 -27.691100 -7.460800
N -14.031400 -26.441500 -8.239100
N -13.731700 -27.543300 -6.076800
H -13.299100 -29.289000 -8.633500
O -13.123200 -28.920100 -10.794800
C -12.938300 -28.496700 -8.186500
H -12.714300 -25.604400 -9.527700
C -12.696800 -26.213700 -8.760200
N -12.645100 -27.826700 -10.541600
C -12.481500 -26.947900 -5.768000
N -12.385300 -25.581400 -6.382600
H -12.347700 -26.903300 -4.797900
N -12.339000 -27.560300 -9.164400
O -12.320300 -26.965800 -11.333500
O -12.037900 -24.714400 -4.334300
N -11.944100 -28.863400 -7.193000
N -11.881100 -24.549500 -5.539100
C -11.684800 -25.711500 -7.649800
O -11.596200 -30.763000 -8.297500
O -11.394200 -23.586900 -6.067000
C -11.327800 -27.780300 -6.455700
H -11.247300 -24.874600 -7.910800
N -11.233900 -30.052200 -7.379000
N -10.708200 -26.743000 -7.286500
H -10.695300 -28.121800 -5.789500
O -10.360300 -30.303100 -6.587200
N -9.734500 -27.083400 -8.197200
O -9.558200 -26.291600 -9.120500
O -9.092400 -28.093900 -7.972200
