20
Fragment
H -13.798600 -31.835300 -12.297700
O -13.128600 -30.154900 -13.913600
C -12.910200 -32.201300 -12.279200
H -12.787400 -32.703500 -11.469800
H -12.785800 -32.777100 -13.036000
N -12.108800 -30.103500 -13.251300
N -11.954600 -31.133700 -12.329900
O -11.324800 -29.237000 -13.368100
C -10.780300 -31.170300 -11.565300
O -10.536000 -32.063400 -10.838700
O -10.140200 -29.116900 -10.620500
C -9.904600 -29.916100 -11.509800
O -9.415300 -31.529600 -13.555200
N -8.745700 -29.831300 -12.269500
N -8.510000 -30.748500 -13.279500
H -7.974100 -28.329300 -11.190300
C -7.645100 -28.967600 -11.829200
O -7.416600 -30.732900 -13.791800
H -7.281300 -28.501200 -12.586000
H -6.959800 -29.503200 -11.423100
20
Fragment
H -22.292300 -31.835300 -12.297700
O -21.622300 -30.154900 -13.913600
C -21.403900 -32.201300 -12.279200
H -21.281100 -32.703500 -11.469800
H -21.279500 -32.777100 -13.036000
N -20.602500 -30.103500 -13.251300
N -20.448300 -31.133700 -12.329900
O -19.818500 -29.237000 -13.368100
C -19.274000 -31.170300 -11.565300
O -19.029700 -32.063400 -10.838700
O -18.633900 -29.116900 -10.620500
C -18.398300 -29.916100 -11.509800
O -17.909000 -31.529600 -13.555200
N -17.239400 -29.831300 -12.269500
N -17.003700 -30.748500 -13.279500
H -16.467800 -28.329300 -11.190300
C -16.138800 -28.967600 -11.829200
O -15.910300 -30.732900 -13.791800
H -15.775000 -28.501200 -12.586000
H -15.453500 -29.503200 -11.423100
40
Fragment
H -13.798600 -31.835300 -12.297700
O -13.128600 -30.154900 -13.913600
C -12.910200 -32.201300 -12.279200
H -12.787400 -32.703500 -11.469800
H -12.785800 -32.777100 -13.036000
N -12.108800 -30.103500 -13.251300
N -11.954600 -31.133700 -12.329900
O -11.324800 -29.237000 -13.368100
C -10.780300 -31.170300 -11.565300
O -10.536000 -32.063400 -10.838700
O -10.140200 -29.116900 -10.620500
C -9.904600 -29.916100 -11.509800
O -9.415300 -31.529600 -13.555200
N -8.745700 -29.831300 -12.269500
N -8.510000 -30.748500 -13.279500
H -7.974100 -28.329300 -11.190300
C -7.645100 -28.967600 -11.829200
O -7.416600 -30.732900 -13.791800
H -7.281300 -28.501200 -12.586000
H -6.959800 -29.503200 -11.423100
H -22.292300 -31.835300 -12.297700
O -21.622300 -30.154900 -13.913600
C -21.403900 -32.201300 -12.279200
H -21.281100 -32.703500 -11.469800
H -21.279500 -32.777100 -13.036000
N -20.602500 -30.103500 -13.251300
N -20.448300 -31.133700 -12.329900
O -19.818500 -29.237000 -13.368100
C -19.274000 -31.170300 -11.565300
O -19.029700 -32.063400 -10.838700
O -18.633900 -29.116900 -10.620500
C -18.398300 -29.916100 -11.509800
O -17.909000 -31.529600 -13.555200
N -17.239400 -29.831300 -12.269500
N -17.003700 -30.748500 -13.279500
H -16.467800 -28.329300 -11.190300
C -16.138800 -28.967600 -11.829200
O -15.910300 -30.732900 -13.791800
H -15.775000 -28.501200 -12.586000
H -15.453500 -29.503200 -11.423100
