20
Fragment
H -13.798600 -31.835300 -12.297700
O -13.128600 -30.154900 -13.913600
C -12.910200 -32.201300 -12.279200
H -12.787400 -32.703500 -11.469800
H -12.785800 -32.777100 -13.036000
N -12.108800 -30.103500 -13.251300
N -11.954600 -31.133700 -12.329900
O -11.324800 -29.237000 -13.368100
C -10.780300 -31.170300 -11.565300
O -10.536000 -32.063400 -10.838700
O -10.140200 -29.116900 -10.620500
C -9.904600 -29.916100 -11.509800
O -9.415300 -31.529600 -13.555200
N -8.745700 -29.831300 -12.269500
N -8.510000 -30.748500 -13.279500
H -7.974100 -28.329300 -11.190300
C -7.645100 -28.967600 -11.829200
O -7.416600 -30.732900 -13.791800
H -7.281300 -28.501200 -12.586000
H -6.959800 -29.503200 -11.423100
36
Fragment
O -15.827300 -27.953500 -15.168100
O -15.796000 -25.605700 -16.933000
H -14.937100 -28.137400 -17.302100
N -14.792600 -25.363600 -17.605000
N -14.787000 -27.405400 -14.880800
O -14.527500 -26.789400 -13.875600
O -14.427200 -24.265600 -18.027800
C -14.070800 -27.691100 -17.200800
N -14.027100 -26.441500 -17.979100
N -13.727400 -27.543300 -15.816800
H -13.294800 -29.289000 -18.373500
O -13.118900 -28.920100 -20.534800
C -12.934000 -28.496700 -17.926500
H -12.710100 -25.604400 -19.267700
C -12.692600 -26.213700 -18.500200
N -12.640800 -27.826700 -20.281600
C -12.477300 -26.947900 -15.508000
N -12.381000 -25.581400 -16.122600
H -12.343500 -26.903300 -14.537900
N -12.334800 -27.560300 -18.904400
O -12.316000 -26.965800 -21.073500
O -12.033700 -24.714400 -14.074300
N -11.939900 -28.863400 -16.933000
N -11.876900 -24.549500 -15.279100
C -11.680600 -25.711500 -17.389800
O -11.592000 -30.763000 -18.037500
O -11.389900 -23.586900 -15.807000
C -11.323500 -27.780300 -16.195700
H -11.243100 -24.874600 -17.650800
N -11.229700 -30.052200 -17.119000
N -10.704000 -26.743000 -17.026500
H -10.691000 -28.121800 -15.529500
O -10.356000 -30.303100 -16.327200
N -9.730200 -27.083400 -17.937200
O -9.554000 -26.291600 -18.860500
O -9.088200 -28.093900 -17.712200
56
Fragment
H -13.798600 -31.835300 -12.297700
O -13.128600 -30.154900 -13.913600
C -12.910200 -32.201300 -12.279200
H -12.787400 -32.703500 -11.469800
H -12.785800 -32.777100 -13.036000
N -12.108800 -30.103500 -13.251300
N -11.954600 -31.133700 -12.329900
O -11.324800 -29.237000 -13.368100
C -10.780300 -31.170300 -11.565300
O -10.536000 -32.063400 -10.838700
O -10.140200 -29.116900 -10.620500
C -9.904600 -29.916100 -11.509800
O -9.415300 -31.529600 -13.555200
N -8.745700 -29.831300 -12.269500
N -8.510000 -30.748500 -13.279500
H -7.974100 -28.329300 -11.190300
C -7.645100 -28.967600 -11.829200
O -7.416600 -30.732900 -13.791800
H -7.281300 -28.501200 -12.586000
H -6.959800 -29.503200 -11.423100
O -15.827300 -27.953500 -15.168100
O -15.796000 -25.605700 -16.933000
H -14.937100 -28.137400 -17.302100
N -14.792600 -25.363600 -17.605000
N -14.787000 -27.405400 -14.880800
O -14.527500 -26.789400 -13.875600
O -14.427200 -24.265600 -18.027800
C -14.070800 -27.691100 -17.200800
N -14.027100 -26.441500 -17.979100
N -13.727400 -27.543300 -15.816800
H -13.294800 -29.289000 -18.373500
O -13.118900 -28.920100 -20.534800
C -12.934000 -28.496700 -17.926500
H -12.710100 -25.604400 -19.267700
C -12.692600 -26.213700 -18.500200
N -12.640800 -27.826700 -20.281600
C -12.477300 -26.947900 -15.508000
N -12.381000 -25.581400 -16.122600
H -12.343500 -26.903300 -14.537900
N -12.334800 -27.560300 -18.904400
O -12.316000 -26.965800 -21.073500
O -12.033700 -24.714400 -14.074300
N -11.939900 -28.863400 -16.933000
N -11.876900 -24.549500 -15.279100
C -11.680600 -25.711500 -17.389800
O -11.592000 -30.763000 -18.037500
O -11.389900 -23.586900 -15.807000
C -11.323500 -27.780300 -16.195700
H -11.243100 -24.874600 -17.650800
N -11.229700 -30.052200 -17.119000
N -10.704000 -26.743000 -17.026500
H -10.691000 -28.121800 -15.529500
O -10.356000 -30.303100 -16.327200
N -9.730200 -27.083400 -17.937200
O -9.554000 -26.291600 -18.860500
O -9.088200 -28.093900 -17.712200
