22
Fragment
H -23.599900 -13.721200 -12.806800
H -22.934600 -12.488200 -12.424300
C -22.835500 -13.441400 -12.291600
H -22.831800 -13.566500 -11.410300
H -21.653700 -16.046800 -12.709800
C -21.600000 -14.005700 -12.916700
C -21.206800 -15.350200 -12.967900
N -20.716900 -13.204700 -13.485900
C -20.001800 -15.367800 -13.598500
N -19.710100 -14.057500 -13.934300
H -19.475000 -16.969700 -13.700000
H -19.243200 -11.541400 -14.797300
N -19.199600 -16.442100 -13.913300
C -18.631700 -13.501200 -14.633500
C -18.464000 -12.029900 -14.482500
H -18.395000 -16.293900 -13.838200
H -18.198100 -11.887300 -13.587500
H -17.919100 -15.213900 -15.561500
C -17.826300 -14.256700 -15.393100
H -17.734600 -11.751000 -14.893400
C -16.706700 -13.682100 -16.061200
N -15.818600 -13.252500 -16.615800
22
Fragment
N -30.588300 -17.237500 -6.263400
C -29.700200 -17.667100 -6.818000
H -28.672400 -15.736000 -7.985700
C -28.580700 -18.241700 -7.486100
H -28.487800 -19.198900 -7.317700
H -28.208800 -15.872300 -9.291700
H -28.011900 -20.278900 -9.040900
C -27.942900 -16.014900 -8.396700
C -27.775300 -17.486200 -8.245700
N -27.207300 -20.427100 -8.965900
H -27.163800 -15.526400 -8.081800
H -26.931900 -20.954700 -9.179100
N -26.696900 -18.042500 -8.944800
C -26.405200 -19.352800 -9.280700
N -25.690000 -17.189700 -9.393300
C -25.200200 -19.335200 -9.911300
C -24.806900 -17.990700 -9.962500
H -24.753200 -20.031800 -10.169300
H -23.575100 -17.551500 -11.468900
C -23.571400 -17.426400 -10.587600
H -23.472400 -16.473200 -10.454900
H -22.807100 -17.706200 -10.072300
44
Fragment
H -23.599900 -13.721200 -12.806800
H -22.934600 -12.488200 -12.424300
C -22.835500 -13.441400 -12.291600
H -22.831800 -13.566500 -11.410300
H -21.653700 -16.046800 -12.709800
C -21.600000 -14.005700 -12.916700
C -21.206800 -15.350200 -12.967900
N -20.716900 -13.204700 -13.485900
C -20.001800 -15.367800 -13.598500
N -19.710100 -14.057500 -13.934300
H -19.475000 -16.969700 -13.700000
H -19.243200 -11.541400 -14.797300
N -19.199600 -16.442100 -13.913300
C -18.631700 -13.501200 -14.633500
C -18.464000 -12.029900 -14.482500
H -18.395000 -16.293900 -13.838200
H -18.198100 -11.887300 -13.587500
H -17.919100 -15.213900 -15.561500
C -17.826300 -14.256700 -15.393100
H -17.734600 -11.751000 -14.893400
C -16.706700 -13.682100 -16.061200
N -15.818600 -13.252500 -16.615800
N -30.588300 -17.237500 -6.263400
C -29.700200 -17.667100 -6.818000
H -28.672400 -15.736000 -7.985700
C -28.580700 -18.241700 -7.486100
H -28.487800 -19.198900 -7.317700
H -28.208800 -15.872300 -9.291700
H -28.011900 -20.278900 -9.040900
C -27.942900 -16.014900 -8.396700
C -27.775300 -17.486200 -8.245700
N -27.207300 -20.427100 -8.965900
H -27.163800 -15.526400 -8.081800
H -26.931900 -20.954700 -9.179100
N -26.696900 -18.042500 -8.944800
C -26.405200 -19.352800 -9.280700
N -25.690000 -17.189700 -9.393300
C -25.200200 -19.335200 -9.911300
C -24.806900 -17.990700 -9.962500
H -24.753200 -20.031800 -10.169300
H -23.575100 -17.551500 -11.468900
C -23.571400 -17.426400 -10.587600
H -23.472400 -16.473200 -10.454900
H -22.807100 -17.706200 -10.072300
