22
Fragment
H -23.599900 -13.721200 -12.806800
H -22.934600 -12.488200 -12.424300
C -22.835500 -13.441400 -12.291600
H -22.831800 -13.566500 -11.410300
H -21.653700 -16.046800 -12.709800
C -21.600000 -14.005700 -12.916700
C -21.206800 -15.350200 -12.967900
N -20.716900 -13.204700 -13.485900
C -20.001800 -15.367800 -13.598500
N -19.710100 -14.057500 -13.934300
H -19.475000 -16.969700 -13.700000
H -19.243200 -11.541400 -14.797300
N -19.199600 -16.442100 -13.913300
C -18.631700 -13.501200 -14.633500
C -18.464000 -12.029900 -14.482500
H -18.395000 -16.293900 -13.838200
H -18.198100 -11.887300 -13.587500
H -17.919100 -15.213900 -15.561500
C -17.826300 -14.256700 -15.393100
H -17.734600 -11.751000 -14.893400
C -16.706700 -13.682100 -16.061200
N -15.818600 -13.252500 -16.615800
22
Fragment
N -29.789700 -18.627500 -10.839200
C -28.901600 -18.197900 -11.393800
H -27.873800 -20.129000 -12.561600
C -27.782100 -17.623300 -12.061900
H -27.689200 -16.666100 -11.893500
H -27.410200 -19.992700 -13.867500
H -27.213300 -15.586100 -13.616800
C -27.144300 -19.850100 -12.972500
C -26.976700 -18.378800 -12.821500
N -26.408700 -15.437900 -13.541700
H -26.365200 -20.338600 -12.657700
H -26.133300 -14.910300 -13.755000
N -25.898300 -17.822500 -13.520700
C -25.606600 -16.512200 -13.856500
N -24.891400 -18.675300 -13.969100
C -24.401600 -16.529800 -14.487100
C -24.008300 -17.874300 -14.538300
H -23.954600 -15.833200 -14.745200
H -22.776500 -18.313500 -16.044700
C -22.772800 -18.438600 -15.163400
H -22.673700 -19.391800 -15.030700
H -22.008400 -18.158800 -14.648200
44
Fragment
H -23.599900 -13.721200 -12.806800
H -22.934600 -12.488200 -12.424300
C -22.835500 -13.441400 -12.291600
H -22.831800 -13.566500 -11.410300
H -21.653700 -16.046800 -12.709800
C -21.600000 -14.005700 -12.916700
C -21.206800 -15.350200 -12.967900
N -20.716900 -13.204700 -13.485900
C -20.001800 -15.367800 -13.598500
N -19.710100 -14.057500 -13.934300
H -19.475000 -16.969700 -13.700000
H -19.243200 -11.541400 -14.797300
N -19.199600 -16.442100 -13.913300
C -18.631700 -13.501200 -14.633500
C -18.464000 -12.029900 -14.482500
H -18.395000 -16.293900 -13.838200
H -18.198100 -11.887300 -13.587500
H -17.919100 -15.213900 -15.561500
C -17.826300 -14.256700 -15.393100
H -17.734600 -11.751000 -14.893400
C -16.706700 -13.682100 -16.061200
N -15.818600 -13.252500 -16.615800
N -29.789700 -18.627500 -10.839200
C -28.901600 -18.197900 -11.393800
H -27.873800 -20.129000 -12.561600
C -27.782100 -17.623300 -12.061900
H -27.689200 -16.666100 -11.893500
H -27.410200 -19.992700 -13.867500
H -27.213300 -15.586100 -13.616800
C -27.144300 -19.850100 -12.972500
C -26.976700 -18.378800 -12.821500
N -26.408700 -15.437900 -13.541700
H -26.365200 -20.338600 -12.657700
H -26.133300 -14.910300 -13.755000
N -25.898300 -17.822500 -13.520700
C -25.606600 -16.512200 -13.856500
N -24.891400 -18.675300 -13.969100
C -24.401600 -16.529800 -14.487100
C -24.008300 -17.874300 -14.538300
H -23.954600 -15.833200 -14.745200
H -22.776500 -18.313500 -16.044700
C -22.772800 -18.438600 -15.163400
H -22.673700 -19.391800 -15.030700
H -22.008400 -18.158800 -14.648200
