22
Fragment
H -14.548700 -3.796900 -27.533200
H -14.079200 -4.816300 -25.622100
N -13.763000 -3.865600 -27.802900
H -13.492400 -3.457100 -28.544000
N -13.197800 -4.752800 -25.778300
C -12.816300 -4.335100 -27.001300
H -12.634100 -5.163500 -25.304300
N -11.707100 -3.353700 -29.435600
N -11.514500 -4.426300 -27.293500
N -11.100100 -3.011300 -30.557400
C -11.002900 -4.034000 -28.499200
C -9.804700 -3.353000 -30.729000
N -9.707500 -4.375700 -28.670800
N -9.293100 -2.960700 -31.934700
N -9.100500 -4.033300 -29.792600
H -8.173500 -2.223500 -33.923900
C -7.991300 -3.051900 -32.226800
N -7.609800 -2.634200 -33.449900
H -7.315200 -3.929900 -30.684100
N -7.044500 -3.521400 -31.425300
H -6.728400 -2.570700 -33.606100
H -6.258900 -3.590100 -31.695000
3
Fragment
O -11.992800 -2.409300 -23.458100
H -11.564600 -3.176400 -23.418800
H -11.477700 -1.817200 -22.990400
25
Fragment
H -14.548700 -3.796900 -27.533200
H -14.079200 -4.816300 -25.622100
N -13.763000 -3.865600 -27.802900
H -13.492400 -3.457100 -28.544000
N -13.197800 -4.752800 -25.778300
C -12.816300 -4.335100 -27.001300
H -12.634100 -5.163500 -25.304300
N -11.707100 -3.353700 -29.435600
N -11.514500 -4.426300 -27.293500
N -11.100100 -3.011300 -30.557400
C -11.002900 -4.034000 -28.499200
C -9.804700 -3.353000 -30.729000
N -9.707500 -4.375700 -28.670800
N -9.293100 -2.960700 -31.934700
N -9.100500 -4.033300 -29.792600
H -8.173500 -2.223500 -33.923900
C -7.991300 -3.051900 -32.226800
N -7.609800 -2.634200 -33.449900
H -7.315200 -3.929900 -30.684100
N -7.044500 -3.521400 -31.425300
H -6.728400 -2.570700 -33.606100
H -6.258900 -3.590100 -31.695000
O -11.992800 -2.409300 -23.458100
H -11.564600 -3.176400 -23.418800
H -11.477700 -1.817200 -22.990400
