22
Fragment
H -14.548700 -3.796900 -27.533200
H -14.079200 -4.816300 -25.622100
N -13.763000 -3.865600 -27.802900
H -13.492400 -3.457100 -28.544000
N -13.197800 -4.752800 -25.778300
C -12.816300 -4.335100 -27.001300
H -12.634100 -5.163500 -25.304300
N -11.707100 -3.353700 -29.435600
N -11.514500 -4.426300 -27.293500
N -11.100100 -3.011300 -30.557400
C -11.002900 -4.034000 -28.499200
C -9.804700 -3.353000 -30.729000
N -9.707500 -4.375700 -28.670800
N -9.293100 -2.960700 -31.934700
N -9.100500 -4.033300 -29.792600
H -8.173500 -2.223500 -33.923900
C -7.991300 -3.051900 -32.226800
N -7.609800 -2.634200 -33.449900
H -7.315200 -3.929900 -30.684100
N -7.044500 -3.521400 -31.425300
H -6.728400 -2.570700 -33.606100
H -6.258900 -3.590100 -31.695000
22
Fragment
H -21.978300 -5.436800 -17.661800
H -21.508700 -4.417400 -15.750700
N -21.192600 -5.368100 -17.931500
H -20.922000 -5.776600 -18.672700
N -20.627400 -4.481000 -15.906900
C -20.245900 -4.898700 -17.130000
H -20.063600 -4.070200 -15.432900
N -19.136600 -5.880100 -19.564300
N -18.944100 -4.807500 -17.422200
N -18.529700 -6.222400 -20.686000
C -18.432500 -5.199700 -18.627900
C -17.234200 -5.880800 -20.857600
N -17.137000 -4.858100 -18.799400
N -16.722600 -6.273000 -22.063300
N -16.530100 -5.200400 -19.921200
H -15.603100 -7.010300 -24.052600
C -15.420800 -6.181800 -22.355500
N -15.039400 -6.599500 -23.578500
H -14.744800 -5.303900 -20.812800
N -14.474100 -5.712400 -21.553900
H -14.158000 -6.663100 -23.734700
H -13.688400 -5.643700 -21.823600
44
Fragment
H -14.548700 -3.796900 -27.533200
H -14.079200 -4.816300 -25.622100
N -13.763000 -3.865600 -27.802900
H -13.492400 -3.457100 -28.544000
N -13.197800 -4.752800 -25.778300
C -12.816300 -4.335100 -27.001300
H -12.634100 -5.163500 -25.304300
N -11.707100 -3.353700 -29.435600
N -11.514500 -4.426300 -27.293500
N -11.100100 -3.011300 -30.557400
C -11.002900 -4.034000 -28.499200
C -9.804700 -3.353000 -30.729000
N -9.707500 -4.375700 -28.670800
N -9.293100 -2.960700 -31.934700
N -9.100500 -4.033300 -29.792600
H -8.173500 -2.223500 -33.923900
C -7.991300 -3.051900 -32.226800
N -7.609800 -2.634200 -33.449900
H -7.315200 -3.929900 -30.684100
N -7.044500 -3.521400 -31.425300
H -6.728400 -2.570700 -33.606100
H -6.258900 -3.590100 -31.695000
H -21.978300 -5.436800 -17.661800
H -21.508700 -4.417400 -15.750700
N -21.192600 -5.368100 -17.931500
H -20.922000 -5.776600 -18.672700
N -20.627400 -4.481000 -15.906900
C -20.245900 -4.898700 -17.130000
H -20.063600 -4.070200 -15.432900
N -19.136600 -5.880100 -19.564300
N -18.944100 -4.807500 -17.422200
N -18.529700 -6.222400 -20.686000
C -18.432500 -5.199700 -18.627900
C -17.234200 -5.880800 -20.857600
N -17.137000 -4.858100 -18.799400
N -16.722600 -6.273000 -22.063300
N -16.530100 -5.200400 -19.921200
H -15.603100 -7.010300 -24.052600
C -15.420800 -6.181800 -22.355500
N -15.039400 -6.599500 -23.578500
H -14.744800 -5.303900 -20.812800
N -14.474100 -5.712400 -21.553900
H -14.158000 -6.663100 -23.734700
H -13.688400 -5.643700 -21.823600
