22
Fragment
H -14.548700 -3.796900 -27.533200
H -14.079200 -4.816300 -25.622100
N -13.763000 -3.865600 -27.802900
H -13.492400 -3.457100 -28.544000
N -13.197800 -4.752800 -25.778300
C -12.816300 -4.335100 -27.001300
H -12.634100 -5.163500 -25.304300
N -11.707100 -3.353700 -29.435600
N -11.514500 -4.426300 -27.293500
N -11.100100 -3.011300 -30.557400
C -11.002900 -4.034000 -28.499200
C -9.804700 -3.353000 -30.729000
N -9.707500 -4.375700 -28.670800
N -9.293100 -2.960700 -31.934700
N -9.100500 -4.033300 -29.792600
H -8.173500 -2.223500 -33.923900
C -7.991300 -3.051900 -32.226800
N -7.609800 -2.634200 -33.449900
H -7.315200 -3.929900 -30.684100
N -7.044500 -3.521400 -31.425300
H -6.728400 -2.570700 -33.606100
H -6.258900 -3.590100 -31.695000
22
Fragment
H -8.010200 -5.643700 -27.533200
H -7.540700 -6.663100 -25.622100
N -7.224500 -5.712400 -27.802900
H -6.953900 -5.303900 -28.544000
N -6.659300 -6.599500 -25.778300
C -6.277800 -6.181800 -27.001300
H -6.095600 -7.010300 -25.304300
N -5.168600 -5.200400 -29.435600
N -4.976000 -6.273000 -27.293500
N -4.561600 -4.858100 -30.557400
C -4.464400 -5.880800 -28.499200
C -3.266200 -5.199700 -30.729000
N -3.169000 -6.222400 -28.670800
N -2.754600 -4.807500 -31.934700
N -2.562000 -5.880100 -29.792600
H -1.635000 -4.070200 -33.923900
C -1.452800 -4.898700 -32.226800
N -1.071300 -4.481000 -33.449900
H -0.776700 -5.776600 -30.684100
N -0.506000 -5.368100 -31.425300
H -0.189900 -4.417400 -33.606100
H 0.279600 -5.436800 -31.695000
44
Fragment
H -14.548700 -3.796900 -27.533200
H -14.079200 -4.816300 -25.622100
N -13.763000 -3.865600 -27.802900
H -13.492400 -3.457100 -28.544000
N -13.197800 -4.752800 -25.778300
C -12.816300 -4.335100 -27.001300
H -12.634100 -5.163500 -25.304300
N -11.707100 -3.353700 -29.435600
N -11.514500 -4.426300 -27.293500
N -11.100100 -3.011300 -30.557400
C -11.002900 -4.034000 -28.499200
C -9.804700 -3.353000 -30.729000
N -9.707500 -4.375700 -28.670800
N -9.293100 -2.960700 -31.934700
N -9.100500 -4.033300 -29.792600
H -8.173500 -2.223500 -33.923900
C -7.991300 -3.051900 -32.226800
N -7.609800 -2.634200 -33.449900
H -7.315200 -3.929900 -30.684100
N -7.044500 -3.521400 -31.425300
H -6.728400 -2.570700 -33.606100
H -6.258900 -3.590100 -31.695000
H -8.010200 -5.643700 -27.533200
H -7.540700 -6.663100 -25.622100
N -7.224500 -5.712400 -27.802900
H -6.953900 -5.303900 -28.544000
N -6.659300 -6.599500 -25.778300
C -6.277800 -6.181800 -27.001300
H -6.095600 -7.010300 -25.304300
N -5.168600 -5.200400 -29.435600
N -4.976000 -6.273000 -27.293500
N -4.561600 -4.858100 -30.557400
C -4.464400 -5.880800 -28.499200
C -3.266200 -5.199700 -30.729000
N -3.169000 -6.222400 -28.670800
N -2.754600 -4.807500 -31.934700
N -2.562000 -5.880100 -29.792600
H -1.635000 -4.070200 -33.923900
C -1.452800 -4.898700 -32.226800
N -1.071300 -4.481000 -33.449900
H -0.776700 -5.776600 -30.684100
N -0.506000 -5.368100 -31.425300
H -0.189900 -4.417400 -33.606100
H 0.279600 -5.436800 -31.695000
