35
Fragment
H -23.258600 -10.368900 -14.115900
N -22.798600 -10.981300 -14.479400
H -22.650800 -11.742000 -14.104500
N -22.021400 -9.378800 -15.929800
C -21.984400 -10.647400 -15.481800
H -21.270700 -8.128900 -17.186000
C -21.192500 -9.012100 -16.906000
C -21.080500 -11.538400 -16.088700
N -20.755300 -12.861600 -15.847500
C -20.265100 -11.012500 -17.077400
N -20.263700 -9.739200 -17.541500
C -19.767900 -13.096400 -16.689900
N -19.435400 -12.022900 -17.461400
H -19.338000 -13.919500 -16.751700
H -19.315400 -11.219300 -19.990900
H -18.928300 -13.520900 -19.568000
H -18.858400 -8.894300 -18.459300
H -18.525900 -8.870100 -20.572700
C -18.461100 -11.390100 -19.756600
C -18.311700 -11.901200 -18.354100
C -18.172200 -12.839000 -19.523400
O -18.057300 -8.517400 -18.699300
C -17.744900 -8.977800 -20.006900
H -17.307500 -10.542800 -17.215700
C -17.304800 -10.435200 -20.046900
H -17.269100 -13.177600 -19.693700
C -17.044600 -11.309000 -17.767800
H -17.035600 -8.425400 -20.372600
H -16.936700 -10.635700 -20.933800
O -16.340300 -12.225700 -16.923100
C -16.238700 -10.760500 -18.970200
H -16.095400 -12.857700 -17.487700
H -15.771000 -9.939700 -18.708400
O -15.310100 -11.707700 -19.440000
H -14.713200 -11.765400 -19.019300
35
Fragment
H -30.338100 -15.666400 -9.555400
O -29.741200 -15.608700 -9.134800
H -29.280300 -13.840700 -9.866300
H -28.955900 -16.758700 -11.087000
C -28.812600 -14.661500 -9.604500
O -28.711000 -16.126700 -11.651600
H -28.114600 -14.536700 -7.640900
H -28.015700 -12.326400 -8.202100
C -28.006700 -15.210000 -10.807000
H -27.782300 -17.078600 -8.881000
C -27.746500 -14.336200 -8.527800
H -27.743800 -14.443800 -11.359000
C -27.306400 -12.878800 -8.567800
O -26.994100 -12.418400 -9.875400
C -26.879200 -16.740000 -9.051300
C -26.739700 -15.802200 -10.220600
C -26.590300 -15.291100 -8.818200
H -26.525400 -12.771100 -8.002100
H -26.193000 -12.795300 -10.115500
H -26.123100 -17.421900 -9.006800
H -25.736000 -15.120300 -8.583800
H -25.713300 -17.820500 -11.823100
N -25.616000 -15.923900 -11.113300
C -25.283500 -16.997400 -11.884800
N -24.787600 -13.640200 -11.033300
C -24.786300 -14.913500 -11.497300
N -24.296000 -16.762600 -12.727200
C -23.970800 -15.439400 -12.486000
C -23.858800 -12.913100 -11.668800
H -23.780600 -12.029900 -11.388700
C -23.066900 -14.548400 -13.092900
N -23.029900 -13.279800 -12.644900
H -22.400600 -15.643000 -14.470200
N -22.252700 -14.882300 -14.095300
H -21.792800 -14.269900 -14.458800
70
Fragment
H -23.258600 -10.368900 -14.115900
N -22.798600 -10.981300 -14.479400
H -22.650800 -11.742000 -14.104500
N -22.021400 -9.378800 -15.929800
C -21.984400 -10.647400 -15.481800
H -21.270700 -8.128900 -17.186000
C -21.192500 -9.012100 -16.906000
C -21.080500 -11.538400 -16.088700
N -20.755300 -12.861600 -15.847500
C -20.265100 -11.012500 -17.077400
N -20.263700 -9.739200 -17.541500
C -19.767900 -13.096400 -16.689900
N -19.435400 -12.022900 -17.461400
H -19.338000 -13.919500 -16.751700
H -19.315400 -11.219300 -19.990900
H -18.928300 -13.520900 -19.568000
H -18.858400 -8.894300 -18.459300
H -18.525900 -8.870100 -20.572700
C -18.461100 -11.390100 -19.756600
C -18.311700 -11.901200 -18.354100
C -18.172200 -12.839000 -19.523400
O -18.057300 -8.517400 -18.699300
C -17.744900 -8.977800 -20.006900
H -17.307500 -10.542800 -17.215700
C -17.304800 -10.435200 -20.046900
H -17.269100 -13.177600 -19.693700
C -17.044600 -11.309000 -17.767800
H -17.035600 -8.425400 -20.372600
H -16.936700 -10.635700 -20.933800
O -16.340300 -12.225700 -16.923100
C -16.238700 -10.760500 -18.970200
H -16.095400 -12.857700 -17.487700
H -15.771000 -9.939700 -18.708400
O -15.310100 -11.707700 -19.440000
H -14.713200 -11.765400 -19.019300
H -30.338100 -15.666400 -9.555400
O -29.741200 -15.608700 -9.134800
H -29.280300 -13.840700 -9.866300
H -28.955900 -16.758700 -11.087000
C -28.812600 -14.661500 -9.604500
O -28.711000 -16.126700 -11.651600
H -28.114600 -14.536700 -7.640900
H -28.015700 -12.326400 -8.202100
C -28.006700 -15.210000 -10.807000
H -27.782300 -17.078600 -8.881000
C -27.746500 -14.336200 -8.527800
H -27.743800 -14.443800 -11.359000
C -27.306400 -12.878800 -8.567800
O -26.994100 -12.418400 -9.875400
C -26.879200 -16.740000 -9.051300
C -26.739700 -15.802200 -10.220600
C -26.590300 -15.291100 -8.818200
H -26.525400 -12.771100 -8.002100
H -26.193000 -12.795300 -10.115500
H -26.123100 -17.421900 -9.006800
H -25.736000 -15.120300 -8.583800
H -25.713300 -17.820500 -11.823100
N -25.616000 -15.923900 -11.113300
C -25.283500 -16.997400 -11.884800
N -24.787600 -13.640200 -11.033300
C -24.786300 -14.913500 -11.497300
N -24.296000 -16.762600 -12.727200
C -23.970800 -15.439400 -12.486000
C -23.858800 -12.913100 -11.668800
H -23.780600 -12.029900 -11.388700
C -23.066900 -14.548400 -13.092900
N -23.029900 -13.279800 -12.644900
H -22.400600 -15.643000 -14.470200
N -22.252700 -14.882300 -14.095300
H -21.792800 -14.269900 -14.458800
