35
Fragment
H -23.258600 -10.368900 -14.115900
N -22.798600 -10.981300 -14.479400
H -22.650800 -11.742000 -14.104500
N -22.021400 -9.378800 -15.929800
C -21.984400 -10.647400 -15.481800
H -21.270700 -8.128900 -17.186000
C -21.192500 -9.012100 -16.906000
C -21.080500 -11.538400 -16.088700
N -20.755300 -12.861600 -15.847500
C -20.265100 -11.012500 -17.077400
N -20.263700 -9.739200 -17.541500
C -19.767900 -13.096400 -16.689900
N -19.435400 -12.022900 -17.461400
H -19.338000 -13.919500 -16.751700
H -19.315400 -11.219300 -19.990900
H -18.928300 -13.520900 -19.568000
H -18.858400 -8.894300 -18.459300
H -18.525900 -8.870100 -20.572700
C -18.461100 -11.390100 -19.756600
C -18.311700 -11.901200 -18.354100
C -18.172200 -12.839000 -19.523400
O -18.057300 -8.517400 -18.699300
C -17.744900 -8.977800 -20.006900
H -17.307500 -10.542800 -17.215700
C -17.304800 -10.435200 -20.046900
H -17.269100 -13.177600 -19.693700
C -17.044600 -11.309000 -17.767800
H -17.035600 -8.425400 -20.372600
H -16.936700 -10.635700 -20.933800
O -16.340300 -12.225700 -16.923100
C -16.238700 -10.760500 -18.970200
H -16.095400 -12.857700 -17.487700
H -15.771000 -9.939700 -18.708400
O -15.310100 -11.707700 -19.440000
H -14.713200 -11.765400 -19.019300
35
Fragment
H -23.258600 -18.170900 -14.115900
N -22.798600 -18.783300 -14.479400
H -22.650800 -19.544000 -14.104500
N -22.021400 -17.180800 -15.929800
C -21.984400 -18.449400 -15.481800
H -21.270700 -15.930900 -17.186000
C -21.192500 -16.814100 -16.906000
C -21.080500 -19.340400 -16.088700
N -20.755300 -20.663600 -15.847500
C -20.265100 -18.814500 -17.077400
N -20.263700 -17.541200 -17.541500
C -19.767900 -20.898400 -16.689900
N -19.435400 -19.824900 -17.461400
H -19.338000 -21.721500 -16.751700
H -19.315400 -19.021300 -19.990900
H -18.928300 -21.322900 -19.568000
H -18.858400 -16.696300 -18.459300
H -18.525900 -16.672100 -20.572700
C -18.461100 -19.192100 -19.756600
C -18.311700 -19.703200 -18.354100
C -18.172200 -20.641000 -19.523400
O -18.057300 -16.319400 -18.699300
C -17.744900 -16.779800 -20.006900
H -17.307500 -18.344800 -17.215700
C -17.304800 -18.237200 -20.046900
H -17.269100 -20.979600 -19.693700
C -17.044600 -19.111000 -17.767800
H -17.035600 -16.227400 -20.372600
H -16.936700 -18.437700 -20.933800
O -16.340300 -20.027700 -16.923100
C -16.238700 -18.562500 -18.970200
H -16.095400 -20.659700 -17.487700
H -15.771000 -17.741700 -18.708400
O -15.310100 -19.509700 -19.440000
H -14.713200 -19.567400 -19.019300
70
Fragment
H -23.258600 -10.368900 -14.115900
N -22.798600 -10.981300 -14.479400
H -22.650800 -11.742000 -14.104500
N -22.021400 -9.378800 -15.929800
C -21.984400 -10.647400 -15.481800
H -21.270700 -8.128900 -17.186000
C -21.192500 -9.012100 -16.906000
C -21.080500 -11.538400 -16.088700
N -20.755300 -12.861600 -15.847500
C -20.265100 -11.012500 -17.077400
N -20.263700 -9.739200 -17.541500
C -19.767900 -13.096400 -16.689900
N -19.435400 -12.022900 -17.461400
H -19.338000 -13.919500 -16.751700
H -19.315400 -11.219300 -19.990900
H -18.928300 -13.520900 -19.568000
H -18.858400 -8.894300 -18.459300
H -18.525900 -8.870100 -20.572700
C -18.461100 -11.390100 -19.756600
C -18.311700 -11.901200 -18.354100
C -18.172200 -12.839000 -19.523400
O -18.057300 -8.517400 -18.699300
C -17.744900 -8.977800 -20.006900
H -17.307500 -10.542800 -17.215700
C -17.304800 -10.435200 -20.046900
H -17.269100 -13.177600 -19.693700
C -17.044600 -11.309000 -17.767800
H -17.035600 -8.425400 -20.372600
H -16.936700 -10.635700 -20.933800
O -16.340300 -12.225700 -16.923100
C -16.238700 -10.760500 -18.970200
H -16.095400 -12.857700 -17.487700
H -15.771000 -9.939700 -18.708400
O -15.310100 -11.707700 -19.440000
H -14.713200 -11.765400 -19.019300
H -23.258600 -18.170900 -14.115900
N -22.798600 -18.783300 -14.479400
H -22.650800 -19.544000 -14.104500
N -22.021400 -17.180800 -15.929800
C -21.984400 -18.449400 -15.481800
H -21.270700 -15.930900 -17.186000
C -21.192500 -16.814100 -16.906000
C -21.080500 -19.340400 -16.088700
N -20.755300 -20.663600 -15.847500
C -20.265100 -18.814500 -17.077400
N -20.263700 -17.541200 -17.541500
C -19.767900 -20.898400 -16.689900
N -19.435400 -19.824900 -17.461400
H -19.338000 -21.721500 -16.751700
H -19.315400 -19.021300 -19.990900
H -18.928300 -21.322900 -19.568000
H -18.858400 -16.696300 -18.459300
H -18.525900 -16.672100 -20.572700
C -18.461100 -19.192100 -19.756600
C -18.311700 -19.703200 -18.354100
C -18.172200 -20.641000 -19.523400
O -18.057300 -16.319400 -18.699300
C -17.744900 -16.779800 -20.006900
H -17.307500 -18.344800 -17.215700
C -17.304800 -18.237200 -20.046900
H -17.269100 -20.979600 -19.693700
C -17.044600 -19.111000 -17.767800
H -17.035600 -16.227400 -20.372600
H -16.936700 -18.437700 -20.933800
O -16.340300 -20.027700 -16.923100
C -16.238700 -18.562500 -18.970200
H -16.095400 -20.659700 -17.487700
H -15.771000 -17.741700 -18.708400
O -15.310100 -19.509700 -19.440000
H -14.713200 -19.567400 -19.019300
