31
Fragment
O -27.645300 -17.890500 -9.134700
N -26.544600 -17.397700 -9.247000
H -26.390100 -19.970100 -8.848900
O -26.368300 -16.204600 -9.416400
C -25.537900 -19.617400 -8.960400
C -25.376200 -18.276900 -9.200300
H -24.533100 -21.355900 -8.714300
C -24.431400 -20.446100 -8.883000
C -24.122500 -17.715700 -9.380800
H -24.028000 -16.802700 -9.534900
O -23.434800 -24.883400 -9.580900
C -23.161300 -19.897500 -9.062900
C -23.025000 -18.537000 -9.327800
N -22.754100 -22.749000 -9.258100
C -22.536300 -24.074700 -9.396200
H -22.178300 -18.180000 -9.471500
N -21.944500 -20.613500 -8.954100
C -21.747700 -21.949800 -9.062200
H -21.429700 -26.319700 -10.244700
H -21.331600 -20.122800 -8.777700
H -21.257100 -26.449300 -8.692000
N -21.213800 -24.545400 -9.329200
C -20.957300 -25.988000 -9.477700
N -20.439100 -22.371000 -8.984800
C -20.141400 -23.722000 -9.138900
H -20.014300 -26.134400 -9.594900
H -19.411000 -20.948400 -8.017100
C -19.312900 -21.442200 -8.834200
H -19.298400 -20.833600 -9.576700
O -18.998400 -24.124200 -9.129800
H -18.489800 -21.938200 -8.811200
31
Fragment
H -26.935200 -20.181800 -5.325200
O -26.426600 -17.995800 -5.643800
H -26.126600 -21.286400 -6.090700
C -26.112100 -20.677800 -5.348200
H -26.014000 -21.171600 -4.531100
H -25.410700 -15.985600 -6.108900
C -25.283600 -18.398000 -5.652900
N -24.985900 -19.749000 -5.498800
C -24.467700 -16.132000 -5.991700
N -24.211200 -17.574600 -5.843200
H -24.167900 -15.670700 -5.206000
H -24.093400 -21.997200 -5.291700
H -23.995300 -15.800300 -6.758700
C -23.677300 -20.170200 -5.576200
N -23.480500 -21.506500 -5.468100
H -23.246700 -23.940000 -5.985500
C -22.888700 -18.045300 -5.910200
N -22.670900 -19.371000 -5.772100
C -22.400000 -23.583000 -5.841800
C -22.263700 -22.222500 -5.576900
O -21.990200 -17.236600 -6.094900
H -21.397000 -25.317300 -6.048900
C -21.302500 -24.404300 -5.894800
C -20.993600 -21.673900 -5.397000
H -20.891900 -20.764100 -5.228300
C -20.048800 -23.843100 -5.714300
C -19.887100 -22.502600 -5.474400
O -19.056700 -25.915400 -5.930400
H -19.034900 -22.149900 -5.362900
N -18.880400 -24.722300 -5.761000
O -17.779700 -24.229500 -5.648700
62
Fragment
O -27.645300 -17.890500 -9.134700
N -26.544600 -17.397700 -9.247000
H -26.390100 -19.970100 -8.848900
O -26.368300 -16.204600 -9.416400
C -25.537900 -19.617400 -8.960400
C -25.376200 -18.276900 -9.200300
H -24.533100 -21.355900 -8.714300
C -24.431400 -20.446100 -8.883000
C -24.122500 -17.715700 -9.380800
H -24.028000 -16.802700 -9.534900
O -23.434800 -24.883400 -9.580900
C -23.161300 -19.897500 -9.062900
C -23.025000 -18.537000 -9.327800
N -22.754100 -22.749000 -9.258100
C -22.536300 -24.074700 -9.396200
H -22.178300 -18.180000 -9.471500
N -21.944500 -20.613500 -8.954100
C -21.747700 -21.949800 -9.062200
H -21.429700 -26.319700 -10.244700
H -21.331600 -20.122800 -8.777700
H -21.257100 -26.449300 -8.692000
N -21.213800 -24.545400 -9.329200
C -20.957300 -25.988000 -9.477700
N -20.439100 -22.371000 -8.984800
C -20.141400 -23.722000 -9.138900
H -20.014300 -26.134400 -9.594900
H -19.411000 -20.948400 -8.017100
C -19.312900 -21.442200 -8.834200
H -19.298400 -20.833600 -9.576700
O -18.998400 -24.124200 -9.129800
H -18.489800 -21.938200 -8.811200
H -26.935200 -20.181800 -5.325200
O -26.426600 -17.995800 -5.643800
H -26.126600 -21.286400 -6.090700
C -26.112100 -20.677800 -5.348200
H -26.014000 -21.171600 -4.531100
H -25.410700 -15.985600 -6.108900
C -25.283600 -18.398000 -5.652900
N -24.985900 -19.749000 -5.498800
C -24.467700 -16.132000 -5.991700
N -24.211200 -17.574600 -5.843200
H -24.167900 -15.670700 -5.206000
H -24.093400 -21.997200 -5.291700
H -23.995300 -15.800300 -6.758700
C -23.677300 -20.170200 -5.576200
N -23.480500 -21.506500 -5.468100
H -23.246700 -23.940000 -5.985500
C -22.888700 -18.045300 -5.910200
N -22.670900 -19.371000 -5.772100
C -22.400000 -23.583000 -5.841800
C -22.263700 -22.222500 -5.576900
O -21.990200 -17.236600 -6.094900
H -21.397000 -25.317300 -6.048900
C -21.302500 -24.404300 -5.894800
C -20.993600 -21.673900 -5.397000
H -20.891900 -20.764100 -5.228300
C -20.048800 -23.843100 -5.714300
C -19.887100 -22.502600 -5.474400
O -19.056700 -25.915400 -5.930400
H -19.034900 -22.149900 -5.362900
N -18.880400 -24.722300 -5.761000
O -17.779700 -24.229500 -5.648700
