31
Fragment
O -27.645300 -17.890500 -9.134700
N -26.544600 -17.397700 -9.247000
H -26.390100 -19.970100 -8.848900
O -26.368300 -16.204600 -9.416400
C -25.537900 -19.617400 -8.960400
C -25.376200 -18.276900 -9.200300
H -24.533100 -21.355900 -8.714300
C -24.431400 -20.446100 -8.883000
C -24.122500 -17.715700 -9.380800
H -24.028000 -16.802700 -9.534900
O -23.434800 -24.883400 -9.580900
C -23.161300 -19.897500 -9.062900
C -23.025000 -18.537000 -9.327800
N -22.754100 -22.749000 -9.258100
C -22.536300 -24.074700 -9.396200
H -22.178300 -18.180000 -9.471500
N -21.944500 -20.613500 -8.954100
C -21.747700 -21.949800 -9.062200
H -21.429700 -26.319700 -10.244700
H -21.331600 -20.122800 -8.777700
H -21.257100 -26.449300 -8.692000
N -21.213800 -24.545400 -9.329200
C -20.957300 -25.988000 -9.477700
N -20.439100 -22.371000 -8.984800
C -20.141400 -23.722000 -9.138900
H -20.014300 -26.134400 -9.594900
H -19.411000 -20.948400 -8.017100
C -19.312900 -21.442200 -8.834200
H -19.298400 -20.833600 -9.576700
O -18.998400 -24.124200 -9.129800
H -18.489800 -21.938200 -8.811200
31
Fragment
O -18.560300 -18.964500 -11.781300
N -17.459600 -19.457300 -11.669000
H -17.305100 -16.884900 -12.067100
O -17.283300 -20.650400 -11.499600
C -16.452900 -17.237600 -11.955600
C -16.291200 -18.578100 -11.715700
H -15.448100 -15.499100 -12.201700
C -15.346400 -16.408900 -12.033000
C -15.037500 -19.139300 -11.535200
H -14.943000 -20.052300 -11.381100
O -14.349800 -11.971600 -11.335100
C -14.076300 -16.957500 -11.853100
C -13.940000 -18.318000 -11.588200
N -13.669100 -14.106000 -11.657900
C -13.451300 -12.780300 -11.519800
H -13.093300 -18.675000 -11.444500
N -12.859500 -16.241500 -11.961900
C -12.662700 -14.905200 -11.853800
H -12.344700 -10.535300 -10.671300
H -12.246600 -16.732200 -12.138300
H -12.172100 -10.405700 -12.224000
N -12.128800 -12.309600 -11.586800
C -11.872300 -10.867000 -11.438300
N -11.354100 -14.484000 -11.931200
C -11.056400 -13.133000 -11.777100
H -10.929300 -10.720600 -11.321100
H -10.326000 -15.906600 -12.898900
C -10.227900 -15.412800 -12.081800
H -10.213400 -16.021400 -11.339300
O -9.913400 -12.730800 -11.786200
H -9.404800 -14.916800 -12.104800
62
Fragment
O -27.645300 -17.890500 -9.134700
N -26.544600 -17.397700 -9.247000
H -26.390100 -19.970100 -8.848900
O -26.368300 -16.204600 -9.416400
C -25.537900 -19.617400 -8.960400
C -25.376200 -18.276900 -9.200300
H -24.533100 -21.355900 -8.714300
C -24.431400 -20.446100 -8.883000
C -24.122500 -17.715700 -9.380800
H -24.028000 -16.802700 -9.534900
O -23.434800 -24.883400 -9.580900
C -23.161300 -19.897500 -9.062900
C -23.025000 -18.537000 -9.327800
N -22.754100 -22.749000 -9.258100
C -22.536300 -24.074700 -9.396200
H -22.178300 -18.180000 -9.471500
N -21.944500 -20.613500 -8.954100
C -21.747700 -21.949800 -9.062200
H -21.429700 -26.319700 -10.244700
H -21.331600 -20.122800 -8.777700
H -21.257100 -26.449300 -8.692000
N -21.213800 -24.545400 -9.329200
C -20.957300 -25.988000 -9.477700
N -20.439100 -22.371000 -8.984800
C -20.141400 -23.722000 -9.138900
H -20.014300 -26.134400 -9.594900
H -19.411000 -20.948400 -8.017100
C -19.312900 -21.442200 -8.834200
H -19.298400 -20.833600 -9.576700
O -18.998400 -24.124200 -9.129800
H -18.489800 -21.938200 -8.811200
O -18.560300 -18.964500 -11.781300
N -17.459600 -19.457300 -11.669000
H -17.305100 -16.884900 -12.067100
O -17.283300 -20.650400 -11.499600
C -16.452900 -17.237600 -11.955600
C -16.291200 -18.578100 -11.715700
H -15.448100 -15.499100 -12.201700
C -15.346400 -16.408900 -12.033000
C -15.037500 -19.139300 -11.535200
H -14.943000 -20.052300 -11.381100
O -14.349800 -11.971600 -11.335100
C -14.076300 -16.957500 -11.853100
C -13.940000 -18.318000 -11.588200
N -13.669100 -14.106000 -11.657900
C -13.451300 -12.780300 -11.519800
H -13.093300 -18.675000 -11.444500
N -12.859500 -16.241500 -11.961900
C -12.662700 -14.905200 -11.853800
H -12.344700 -10.535300 -10.671300
H -12.246600 -16.732200 -12.138300
H -12.172100 -10.405700 -12.224000
N -12.128800 -12.309600 -11.586800
C -11.872300 -10.867000 -11.438300
N -11.354100 -14.484000 -11.931200
C -11.056400 -13.133000 -11.777100
H -10.929300 -10.720600 -11.321100
H -10.326000 -15.906600 -12.898900
C -10.227900 -15.412800 -12.081800
H -10.213400 -16.021400 -11.339300
O -9.913400 -12.730800 -11.786200
H -9.404800 -14.916800 -12.104800
