31
Fragment
O -27.645300 -17.890500 -9.134700
N -26.544600 -17.397700 -9.247000
H -26.390100 -19.970100 -8.848900
O -26.368300 -16.204600 -9.416400
C -25.537900 -19.617400 -8.960400
C -25.376200 -18.276900 -9.200300
H -24.533100 -21.355900 -8.714300
C -24.431400 -20.446100 -8.883000
C -24.122500 -17.715700 -9.380800
H -24.028000 -16.802700 -9.534900
O -23.434800 -24.883400 -9.580900
C -23.161300 -19.897500 -9.062900
C -23.025000 -18.537000 -9.327800
N -22.754100 -22.749000 -9.258100
C -22.536300 -24.074700 -9.396200
H -22.178300 -18.180000 -9.471500
N -21.944500 -20.613500 -8.954100
C -21.747700 -21.949800 -9.062200
H -21.429700 -26.319700 -10.244700
H -21.331600 -20.122800 -8.777700
H -21.257100 -26.449300 -8.692000
N -21.213800 -24.545400 -9.329200
C -20.957300 -25.988000 -9.477700
N -20.439100 -22.371000 -8.984800
C -20.141400 -23.722000 -9.138900
H -20.014300 -26.134400 -9.594900
H -19.411000 -20.948400 -8.017100
C -19.312900 -21.442200 -8.834200
H -19.298400 -20.833600 -9.576700
O -18.998400 -24.124200 -9.129800
H -18.489800 -21.938200 -8.811200
31
Fragment
H -17.850200 -27.203200 -8.618800
O -17.341600 -29.389200 -8.300200
H -17.041600 -26.098600 -7.853300
C -17.027100 -26.707200 -8.595800
H -16.929000 -26.213400 -9.412900
H -16.325700 -31.399400 -7.835100
C -16.198600 -28.987000 -8.291100
N -15.900900 -27.636000 -8.445200
C -15.382700 -31.253000 -7.952300
N -15.126200 -29.810400 -8.100800
H -15.082900 -31.714300 -8.738000
H -15.008400 -25.387800 -8.652300
H -14.910300 -31.584700 -7.185300
C -14.592300 -27.214800 -8.367800
N -14.395500 -25.878500 -8.475900
H -14.161700 -23.445000 -7.958500
C -13.803700 -29.339700 -8.033800
N -13.585900 -28.014000 -8.171900
C -13.315000 -23.802000 -8.102200
C -13.178700 -25.162500 -8.367100
O -12.905200 -30.148400 -7.849100
H -12.312000 -22.067700 -7.895100
C -12.217500 -22.980700 -8.049200
C -11.908600 -25.711100 -8.547000
H -11.806900 -26.620900 -8.715700
C -10.963800 -23.541900 -8.229700
C -10.802100 -24.882400 -8.469600
O -9.971700 -21.469600 -8.013600
H -9.949900 -25.235100 -8.581100
N -9.795400 -22.662700 -8.183000
O -8.694700 -23.155500 -8.295300
62
Fragment
O -27.645300 -17.890500 -9.134700
N -26.544600 -17.397700 -9.247000
H -26.390100 -19.970100 -8.848900
O -26.368300 -16.204600 -9.416400
C -25.537900 -19.617400 -8.960400
C -25.376200 -18.276900 -9.200300
H -24.533100 -21.355900 -8.714300
C -24.431400 -20.446100 -8.883000
C -24.122500 -17.715700 -9.380800
H -24.028000 -16.802700 -9.534900
O -23.434800 -24.883400 -9.580900
C -23.161300 -19.897500 -9.062900
C -23.025000 -18.537000 -9.327800
N -22.754100 -22.749000 -9.258100
C -22.536300 -24.074700 -9.396200
H -22.178300 -18.180000 -9.471500
N -21.944500 -20.613500 -8.954100
C -21.747700 -21.949800 -9.062200
H -21.429700 -26.319700 -10.244700
H -21.331600 -20.122800 -8.777700
H -21.257100 -26.449300 -8.692000
N -21.213800 -24.545400 -9.329200
C -20.957300 -25.988000 -9.477700
N -20.439100 -22.371000 -8.984800
C -20.141400 -23.722000 -9.138900
H -20.014300 -26.134400 -9.594900
H -19.411000 -20.948400 -8.017100
C -19.312900 -21.442200 -8.834200
H -19.298400 -20.833600 -9.576700
O -18.998400 -24.124200 -9.129800
H -18.489800 -21.938200 -8.811200
H -17.850200 -27.203200 -8.618800
O -17.341600 -29.389200 -8.300200
H -17.041600 -26.098600 -7.853300
C -17.027100 -26.707200 -8.595800
H -16.929000 -26.213400 -9.412900
H -16.325700 -31.399400 -7.835100
C -16.198600 -28.987000 -8.291100
N -15.900900 -27.636000 -8.445200
C -15.382700 -31.253000 -7.952300
N -15.126200 -29.810400 -8.100800
H -15.082900 -31.714300 -8.738000
H -15.008400 -25.387800 -8.652300
H -14.910300 -31.584700 -7.185300
C -14.592300 -27.214800 -8.367800
N -14.395500 -25.878500 -8.475900
H -14.161700 -23.445000 -7.958500
C -13.803700 -29.339700 -8.033800
N -13.585900 -28.014000 -8.171900
C -13.315000 -23.802000 -8.102200
C -13.178700 -25.162500 -8.367100
O -12.905200 -30.148400 -7.849100
H -12.312000 -22.067700 -7.895100
C -12.217500 -22.980700 -8.049200
C -11.908600 -25.711100 -8.547000
H -11.806900 -26.620900 -8.715700
C -10.963800 -23.541900 -8.229700
C -10.802100 -24.882400 -8.469600
O -9.971700 -21.469600 -8.013600
H -9.949900 -25.235100 -8.581100
N -9.795400 -22.662700 -8.183000
O -8.694700 -23.155500 -8.295300
