31
Fragment
O -27.645300 -17.890500 -9.134700
N -26.544600 -17.397700 -9.247000
H -26.390100 -19.970100 -8.848900
O -26.368300 -16.204600 -9.416400
C -25.537900 -19.617400 -8.960400
C -25.376200 -18.276900 -9.200300
H -24.533100 -21.355900 -8.714300
C -24.431400 -20.446100 -8.883000
C -24.122500 -17.715700 -9.380800
H -24.028000 -16.802700 -9.534900
O -23.434800 -24.883400 -9.580900
C -23.161300 -19.897500 -9.062900
C -23.025000 -18.537000 -9.327800
N -22.754100 -22.749000 -9.258100
C -22.536300 -24.074700 -9.396200
H -22.178300 -18.180000 -9.471500
N -21.944500 -20.613500 -8.954100
C -21.747700 -21.949800 -9.062200
H -21.429700 -26.319700 -10.244700
H -21.331600 -20.122800 -8.777700
H -21.257100 -26.449300 -8.692000
N -21.213800 -24.545400 -9.329200
C -20.957300 -25.988000 -9.477700
N -20.439100 -22.371000 -8.984800
C -20.141400 -23.722000 -9.138900
H -20.014300 -26.134400 -9.594900
H -19.411000 -20.948400 -8.017100
C -19.312900 -21.442200 -8.834200
H -19.298400 -20.833600 -9.576700
O -18.998400 -24.124200 -9.129800
H -18.489800 -21.938200 -8.811200
31
Fragment
H -26.935200 -30.711800 -12.297200
O -26.426600 -28.525800 -12.615800
H -26.126600 -31.816400 -13.062700
C -26.112100 -31.207800 -12.320200
H -26.014000 -31.701600 -11.503100
H -25.410700 -26.515600 -13.080900
C -25.283600 -28.928000 -12.624900
N -24.985900 -30.279000 -12.470800
C -24.467700 -26.662000 -12.963700
N -24.211200 -28.104600 -12.815200
H -24.167900 -26.200700 -12.178000
H -24.093400 -32.527200 -12.263700
H -23.995300 -26.330300 -13.730700
C -23.677300 -30.700200 -12.548200
N -23.480500 -32.036500 -12.440100
H -23.246700 -34.470000 -12.957500
C -22.888700 -28.575300 -12.882200
N -22.670900 -29.901000 -12.744100
C -22.400000 -34.113000 -12.813800
C -22.263700 -32.752500 -12.548900
O -21.990200 -27.766600 -13.066900
H -21.397000 -35.847300 -13.020900
C -21.302500 -34.934300 -12.866800
C -20.993600 -32.203900 -12.369000
H -20.891900 -31.294100 -12.200300
C -20.048800 -34.373100 -12.686300
C -19.887100 -33.032600 -12.446400
O -19.056700 -36.445400 -12.902400
H -19.034900 -32.679900 -12.334900
N -18.880400 -35.252300 -12.733000
O -17.779700 -34.759500 -12.620700
62
Fragment
O -27.645300 -17.890500 -9.134700
N -26.544600 -17.397700 -9.247000
H -26.390100 -19.970100 -8.848900
O -26.368300 -16.204600 -9.416400
C -25.537900 -19.617400 -8.960400
C -25.376200 -18.276900 -9.200300
H -24.533100 -21.355900 -8.714300
C -24.431400 -20.446100 -8.883000
C -24.122500 -17.715700 -9.380800
H -24.028000 -16.802700 -9.534900
O -23.434800 -24.883400 -9.580900
C -23.161300 -19.897500 -9.062900
C -23.025000 -18.537000 -9.327800
N -22.754100 -22.749000 -9.258100
C -22.536300 -24.074700 -9.396200
H -22.178300 -18.180000 -9.471500
N -21.944500 -20.613500 -8.954100
C -21.747700 -21.949800 -9.062200
H -21.429700 -26.319700 -10.244700
H -21.331600 -20.122800 -8.777700
H -21.257100 -26.449300 -8.692000
N -21.213800 -24.545400 -9.329200
C -20.957300 -25.988000 -9.477700
N -20.439100 -22.371000 -8.984800
C -20.141400 -23.722000 -9.138900
H -20.014300 -26.134400 -9.594900
H -19.411000 -20.948400 -8.017100
C -19.312900 -21.442200 -8.834200
H -19.298400 -20.833600 -9.576700
O -18.998400 -24.124200 -9.129800
H -18.489800 -21.938200 -8.811200
H -26.935200 -30.711800 -12.297200
O -26.426600 -28.525800 -12.615800
H -26.126600 -31.816400 -13.062700
C -26.112100 -31.207800 -12.320200
H -26.014000 -31.701600 -11.503100
H -25.410700 -26.515600 -13.080900
C -25.283600 -28.928000 -12.624900
N -24.985900 -30.279000 -12.470800
C -24.467700 -26.662000 -12.963700
N -24.211200 -28.104600 -12.815200
H -24.167900 -26.200700 -12.178000
H -24.093400 -32.527200 -12.263700
H -23.995300 -26.330300 -13.730700
C -23.677300 -30.700200 -12.548200
N -23.480500 -32.036500 -12.440100
H -23.246700 -34.470000 -12.957500
C -22.888700 -28.575300 -12.882200
N -22.670900 -29.901000 -12.744100
C -22.400000 -34.113000 -12.813800
C -22.263700 -32.752500 -12.548900
O -21.990200 -27.766600 -13.066900
H -21.397000 -35.847300 -13.020900
C -21.302500 -34.934300 -12.866800
C -20.993600 -32.203900 -12.369000
H -20.891900 -31.294100 -12.200300
C -20.048800 -34.373100 -12.686300
C -19.887100 -33.032600 -12.446400
O -19.056700 -36.445400 -12.902400
H -19.034900 -32.679900 -12.334900
N -18.880400 -35.252300 -12.733000
O -17.779700 -34.759500 -12.620700
