31
Fragment
O -27.645300 -17.890500 -9.134700
N -26.544600 -17.397700 -9.247000
H -26.390100 -19.970100 -8.848900
O -26.368300 -16.204600 -9.416400
C -25.537900 -19.617400 -8.960400
C -25.376200 -18.276900 -9.200300
H -24.533100 -21.355900 -8.714300
C -24.431400 -20.446100 -8.883000
C -24.122500 -17.715700 -9.380800
H -24.028000 -16.802700 -9.534900
O -23.434800 -24.883400 -9.580900
C -23.161300 -19.897500 -9.062900
C -23.025000 -18.537000 -9.327800
N -22.754100 -22.749000 -9.258100
C -22.536300 -24.074700 -9.396200
H -22.178300 -18.180000 -9.471500
N -21.944500 -20.613500 -8.954100
C -21.747700 -21.949800 -9.062200
H -21.429700 -26.319700 -10.244700
H -21.331600 -20.122800 -8.777700
H -21.257100 -26.449300 -8.692000
N -21.213800 -24.545400 -9.329200
C -20.957300 -25.988000 -9.477700
N -20.439100 -22.371000 -8.984800
C -20.141400 -23.722000 -9.138900
H -20.014300 -26.134400 -9.594900
H -19.411000 -20.948400 -8.017100
C -19.312900 -21.442200 -8.834200
H -19.298400 -20.833600 -9.576700
O -18.998400 -24.124200 -9.129800
H -18.489800 -21.938200 -8.811200
31
Fragment
O -27.645300 -28.420500 -9.134700
N -26.544600 -27.927700 -9.247000
H -26.390100 -30.500100 -8.848900
O -26.368300 -26.734600 -9.416400
C -25.537900 -30.147400 -8.960400
C -25.376200 -28.806900 -9.200300
H -24.533100 -31.885900 -8.714300
C -24.431400 -30.976100 -8.883000
C -24.122500 -28.245700 -9.380800
H -24.028000 -27.332700 -9.534900
O -23.434800 -35.413400 -9.580900
C -23.161300 -30.427500 -9.062900
C -23.025000 -29.067000 -9.327800
N -22.754100 -33.279000 -9.258100
C -22.536300 -34.604700 -9.396200
H -22.178300 -28.710000 -9.471500
N -21.944500 -31.143500 -8.954100
C -21.747700 -32.479800 -9.062200
H -21.429700 -36.849700 -10.244700
H -21.331600 -30.652800 -8.777700
H -21.257100 -36.979300 -8.692000
N -21.213800 -35.075400 -9.329200
C -20.957300 -36.518000 -9.477700
N -20.439100 -32.901000 -8.984800
C -20.141400 -34.252000 -9.138900
H -20.014300 -36.664400 -9.594900
H -19.411000 -31.478400 -8.017100
C -19.312900 -31.972200 -8.834200
H -19.298400 -31.363600 -9.576700
O -18.998400 -34.654200 -9.129800
H -18.489800 -32.468200 -8.811200
62
Fragment
O -27.645300 -17.890500 -9.134700
N -26.544600 -17.397700 -9.247000
H -26.390100 -19.970100 -8.848900
O -26.368300 -16.204600 -9.416400
C -25.537900 -19.617400 -8.960400
C -25.376200 -18.276900 -9.200300
H -24.533100 -21.355900 -8.714300
C -24.431400 -20.446100 -8.883000
C -24.122500 -17.715700 -9.380800
H -24.028000 -16.802700 -9.534900
O -23.434800 -24.883400 -9.580900
C -23.161300 -19.897500 -9.062900
C -23.025000 -18.537000 -9.327800
N -22.754100 -22.749000 -9.258100
C -22.536300 -24.074700 -9.396200
H -22.178300 -18.180000 -9.471500
N -21.944500 -20.613500 -8.954100
C -21.747700 -21.949800 -9.062200
H -21.429700 -26.319700 -10.244700
H -21.331600 -20.122800 -8.777700
H -21.257100 -26.449300 -8.692000
N -21.213800 -24.545400 -9.329200
C -20.957300 -25.988000 -9.477700
N -20.439100 -22.371000 -8.984800
C -20.141400 -23.722000 -9.138900
H -20.014300 -26.134400 -9.594900
H -19.411000 -20.948400 -8.017100
C -19.312900 -21.442200 -8.834200
H -19.298400 -20.833600 -9.576700
O -18.998400 -24.124200 -9.129800
H -18.489800 -21.938200 -8.811200
O -27.645300 -28.420500 -9.134700
N -26.544600 -27.927700 -9.247000
H -26.390100 -30.500100 -8.848900
O -26.368300 -26.734600 -9.416400
C -25.537900 -30.147400 -8.960400
C -25.376200 -28.806900 -9.200300
H -24.533100 -31.885900 -8.714300
C -24.431400 -30.976100 -8.883000
C -24.122500 -28.245700 -9.380800
H -24.028000 -27.332700 -9.534900
O -23.434800 -35.413400 -9.580900
C -23.161300 -30.427500 -9.062900
C -23.025000 -29.067000 -9.327800
N -22.754100 -33.279000 -9.258100
C -22.536300 -34.604700 -9.396200
H -22.178300 -28.710000 -9.471500
N -21.944500 -31.143500 -8.954100
C -21.747700 -32.479800 -9.062200
H -21.429700 -36.849700 -10.244700
H -21.331600 -30.652800 -8.777700
H -21.257100 -36.979300 -8.692000
N -21.213800 -35.075400 -9.329200
C -20.957300 -36.518000 -9.477700
N -20.439100 -32.901000 -8.984800
C -20.141400 -34.252000 -9.138900
H -20.014300 -36.664400 -9.594900
H -19.411000 -31.478400 -8.017100
C -19.312900 -31.972200 -8.834200
H -19.298400 -31.363600 -9.576700
O -18.998400 -34.654200 -9.129800
H -18.489800 -32.468200 -8.811200
