16
Fragment
H -17.216000 -7.412900 -19.080800
H -17.068900 -9.044800 -20.703300
O -16.544600 -5.537000 -17.617600
H -16.523000 -4.874600 -17.134200
C -16.414100 -7.538100 -19.536700
C -16.331500 -8.513400 -20.506800
C -15.421400 -5.684500 -18.182500
C -15.312600 -6.733300 -19.225200
C -15.142100 -8.692400 -21.183000
H -15.083800 -9.347100 -21.841000
O -14.404600 -5.002900 -17.901600
C -14.108800 -6.935600 -19.914200
C -14.048800 -7.923600 -20.901600
H -13.257700 -8.057900 -21.371500
H -13.135700 -5.675400 -19.088500
O -12.994700 -6.216000 -19.688500
16
Fragment
O -23.284800 -8.751700 -18.540400
H -23.143700 -8.211100 -19.140500
H -23.021700 -10.593600 -16.857400
C -22.230600 -10.459300 -17.327400
C -22.170700 -9.471300 -18.314700
O -21.874900 -7.538600 -20.327400
H -21.195700 -11.882800 -16.388000
C -21.137400 -11.228100 -17.046000
C -20.966900 -9.269000 -19.003800
C -20.858100 -8.220200 -20.046500
C -19.948000 -11.049100 -17.722200
C -19.865400 -10.073800 -18.692300
H -19.756500 -7.410300 -21.094700
O -19.734900 -8.072700 -20.611400
H -19.210500 -11.580500 -17.525700
H -19.063500 -9.948600 -19.148100
32
Fragment
H -17.216000 -7.412900 -19.080800
H -17.068900 -9.044800 -20.703300
O -16.544600 -5.537000 -17.617600
H -16.523000 -4.874600 -17.134200
C -16.414100 -7.538100 -19.536700
C -16.331500 -8.513400 -20.506800
C -15.421400 -5.684500 -18.182500
C -15.312600 -6.733300 -19.225200
C -15.142100 -8.692400 -21.183000
H -15.083800 -9.347100 -21.841000
O -14.404600 -5.002900 -17.901600
C -14.108800 -6.935600 -19.914200
C -14.048800 -7.923600 -20.901600
H -13.257700 -8.057900 -21.371500
H -13.135700 -5.675400 -19.088500
O -12.994700 -6.216000 -19.688500
O -23.284800 -8.751700 -18.540400
H -23.143700 -8.211100 -19.140500
H -23.021700 -10.593600 -16.857400
C -22.230600 -10.459300 -17.327400
C -22.170700 -9.471300 -18.314700
O -21.874900 -7.538600 -20.327400
H -21.195700 -11.882800 -16.388000
C -21.137400 -11.228100 -17.046000
C -20.966900 -9.269000 -19.003800
C -20.858100 -8.220200 -20.046500
C -19.948000 -11.049100 -17.722200
C -19.865400 -10.073800 -18.692300
H -19.756500 -7.410300 -21.094700
O -19.734900 -8.072700 -20.611400
H -19.210500 -11.580500 -17.525700
H -19.063500 -9.948600 -19.148100
