16
Fragment
H -17.216000 -7.412900 -19.080800
H -17.068900 -9.044800 -20.703300
O -16.544600 -5.537000 -17.617600
H -16.523000 -4.874600 -17.134200
C -16.414100 -7.538100 -19.536700
C -16.331500 -8.513400 -20.506800
C -15.421400 -5.684500 -18.182500
C -15.312600 -6.733300 -19.225200
C -15.142100 -8.692400 -21.183000
H -15.083800 -9.347100 -21.841000
O -14.404600 -5.002900 -17.901600
C -14.108800 -6.935600 -19.914200
C -14.048800 -7.923600 -20.901600
H -13.257700 -8.057900 -21.371500
H -13.135700 -5.675400 -19.088500
O -12.994700 -6.216000 -19.688500
16
Fragment
H -24.131000 -10.300000 -21.795100
H -23.896100 -8.547800 -23.490900
C -23.349000 -10.061200 -22.239300
C -23.212800 -9.091500 -23.171500
N -22.112100 -10.622600 -22.076800
H -21.916900 -11.270700 -21.545800
N -21.902300 -9.039800 -23.569700
C -21.263200 -9.988600 -22.884200
C -19.852800 -10.297000 -22.990600
N -19.213700 -11.245800 -22.305100
H -19.199100 -9.014900 -24.328900
N -19.004000 -9.663000 -23.798000
C -17.903200 -11.194100 -22.703300
C -17.767000 -10.224400 -23.635400
H -17.219900 -11.737800 -22.383800
H -16.985000 -9.985600 -24.079700
32
Fragment
H -17.216000 -7.412900 -19.080800
H -17.068900 -9.044800 -20.703300
O -16.544600 -5.537000 -17.617600
H -16.523000 -4.874600 -17.134200
C -16.414100 -7.538100 -19.536700
C -16.331500 -8.513400 -20.506800
C -15.421400 -5.684500 -18.182500
C -15.312600 -6.733300 -19.225200
C -15.142100 -8.692400 -21.183000
H -15.083800 -9.347100 -21.841000
O -14.404600 -5.002900 -17.901600
C -14.108800 -6.935600 -19.914200
C -14.048800 -7.923600 -20.901600
H -13.257700 -8.057900 -21.371500
H -13.135700 -5.675400 -19.088500
O -12.994700 -6.216000 -19.688500
H -24.131000 -10.300000 -21.795100
H -23.896100 -8.547800 -23.490900
C -23.349000 -10.061200 -22.239300
C -23.212800 -9.091500 -23.171500
N -22.112100 -10.622600 -22.076800
H -21.916900 -11.270700 -21.545800
N -21.902300 -9.039800 -23.569700
C -21.263200 -9.988600 -22.884200
C -19.852800 -10.297000 -22.990600
N -19.213700 -11.245800 -22.305100
H -19.199100 -9.014900 -24.328900
N -19.004000 -9.663000 -23.798000
C -17.903200 -11.194100 -22.703300
C -17.767000 -10.224400 -23.635400
H -17.219900 -11.737800 -22.383800
H -16.985000 -9.985600 -24.079700
