16
Fragment
H -17.216000 -7.412900 -19.080800
H -17.068900 -9.044800 -20.703300
O -16.544600 -5.537000 -17.617600
H -16.523000 -4.874600 -17.134200
C -16.414100 -7.538100 -19.536700
C -16.331500 -8.513400 -20.506800
C -15.421400 -5.684500 -18.182500
C -15.312600 -6.733300 -19.225200
C -15.142100 -8.692400 -21.183000
H -15.083800 -9.347100 -21.841000
O -14.404600 -5.002900 -17.901600
C -14.108800 -6.935600 -19.914200
C -14.048800 -7.923600 -20.901600
H -13.257700 -8.057900 -21.371500
H -13.135700 -5.675400 -19.088500
O -12.994700 -6.216000 -19.688500
16
Fragment
H -24.131000 -5.228600 -21.795100
H -23.896100 -3.476400 -23.490900
C -23.349000 -4.989800 -22.239300
C -23.212800 -4.020100 -23.171500
N -22.112100 -5.551200 -22.076800
H -21.916900 -6.199300 -21.545800
N -21.902300 -3.968400 -23.569700
C -21.263200 -4.917200 -22.884200
C -19.852800 -5.225600 -22.990600
N -19.213700 -6.174400 -22.305100
H -19.199100 -3.943500 -24.328900
N -19.004000 -4.591600 -23.798000
C -17.903200 -6.122700 -22.703300
C -17.767000 -5.153000 -23.635400
H -17.219900 -6.666400 -22.383800
H -16.985000 -4.914200 -24.079700
32
Fragment
H -17.216000 -7.412900 -19.080800
H -17.068900 -9.044800 -20.703300
O -16.544600 -5.537000 -17.617600
H -16.523000 -4.874600 -17.134200
C -16.414100 -7.538100 -19.536700
C -16.331500 -8.513400 -20.506800
C -15.421400 -5.684500 -18.182500
C -15.312600 -6.733300 -19.225200
C -15.142100 -8.692400 -21.183000
H -15.083800 -9.347100 -21.841000
O -14.404600 -5.002900 -17.901600
C -14.108800 -6.935600 -19.914200
C -14.048800 -7.923600 -20.901600
H -13.257700 -8.057900 -21.371500
H -13.135700 -5.675400 -19.088500
O -12.994700 -6.216000 -19.688500
H -24.131000 -5.228600 -21.795100
H -23.896100 -3.476400 -23.490900
C -23.349000 -4.989800 -22.239300
C -23.212800 -4.020100 -23.171500
N -22.112100 -5.551200 -22.076800
H -21.916900 -6.199300 -21.545800
N -21.902300 -3.968400 -23.569700
C -21.263200 -4.917200 -22.884200
C -19.852800 -5.225600 -22.990600
N -19.213700 -6.174400 -22.305100
H -19.199100 -3.943500 -24.328900
N -19.004000 -4.591600 -23.798000
C -17.903200 -6.122700 -22.703300
C -17.767000 -5.153000 -23.635400
H -17.219900 -6.666400 -22.383800
H -16.985000 -4.914200 -24.079700
