16
Fragment
H -17.216000 -7.412900 -19.080800
H -17.068900 -9.044800 -20.703300
O -16.544600 -5.537000 -17.617600
H -16.523000 -4.874600 -17.134200
C -16.414100 -7.538100 -19.536700
C -16.331500 -8.513400 -20.506800
C -15.421400 -5.684500 -18.182500
C -15.312600 -6.733300 -19.225200
C -15.142100 -8.692400 -21.183000
H -15.083800 -9.347100 -21.841000
O -14.404600 -5.002900 -17.901600
C -14.108800 -6.935600 -19.914200
C -14.048800 -7.923600 -20.901600
H -13.257700 -8.057900 -21.371500
H -13.135700 -5.675400 -19.088500
O -12.994700 -6.216000 -19.688500
16
Fragment
H -17.216000 -2.341500 -19.080800
H -17.068900 -3.973400 -20.703300
O -16.544600 -0.465600 -17.617600
H -16.523000 0.196800 -17.134200
C -16.414100 -2.466700 -19.536700
C -16.331500 -3.442000 -20.506800
C -15.421400 -0.613100 -18.182500
C -15.312600 -1.661900 -19.225200
C -15.142100 -3.621000 -21.183000
H -15.083800 -4.275700 -21.841000
O -14.404600 0.068500 -17.901600
C -14.108800 -1.864200 -19.914200
C -14.048800 -2.852200 -20.901600
H -13.257700 -2.986500 -21.371500
H -13.135700 -0.604000 -19.088500
O -12.994700 -1.144600 -19.688500
32
Fragment
H -17.216000 -7.412900 -19.080800
H -17.068900 -9.044800 -20.703300
O -16.544600 -5.537000 -17.617600
H -16.523000 -4.874600 -17.134200
C -16.414100 -7.538100 -19.536700
C -16.331500 -8.513400 -20.506800
C -15.421400 -5.684500 -18.182500
C -15.312600 -6.733300 -19.225200
C -15.142100 -8.692400 -21.183000
H -15.083800 -9.347100 -21.841000
O -14.404600 -5.002900 -17.901600
C -14.108800 -6.935600 -19.914200
C -14.048800 -7.923600 -20.901600
H -13.257700 -8.057900 -21.371500
H -13.135700 -5.675400 -19.088500
O -12.994700 -6.216000 -19.688500
H -17.216000 -2.341500 -19.080800
H -17.068900 -3.973400 -20.703300
O -16.544600 -0.465600 -17.617600
H -16.523000 0.196800 -17.134200
C -16.414100 -2.466700 -19.536700
C -16.331500 -3.442000 -20.506800
C -15.421400 -0.613100 -18.182500
C -15.312600 -1.661900 -19.225200
C -15.142100 -3.621000 -21.183000
H -15.083800 -4.275700 -21.841000
O -14.404600 0.068500 -17.901600
C -14.108800 -1.864200 -19.914200
C -14.048800 -2.852200 -20.901600
H -13.257700 -2.986500 -21.371500
H -13.135700 -0.604000 -19.088500
O -12.994700 -1.144600 -19.688500
