16
Fragment
H -17.216000 -7.412900 -19.080800
H -17.068900 -9.044800 -20.703300
O -16.544600 -5.537000 -17.617600
H -16.523000 -4.874600 -17.134200
C -16.414100 -7.538100 -19.536700
C -16.331500 -8.513400 -20.506800
C -15.421400 -5.684500 -18.182500
C -15.312600 -6.733300 -19.225200
C -15.142100 -8.692400 -21.183000
H -15.083800 -9.347100 -21.841000
O -14.404600 -5.002900 -17.901600
C -14.108800 -6.935600 -19.914200
C -14.048800 -7.923600 -20.901600
H -13.257700 -8.057900 -21.371500
H -13.135700 -5.675400 -19.088500
O -12.994700 -6.216000 -19.688500
16
Fragment
H -19.294500 -7.449900 -14.149300
H -19.059600 -9.202100 -15.845100
C -18.512400 -7.688700 -14.593500
C -18.376300 -8.658400 -15.525700
N -17.275500 -7.127300 -14.431000
H -17.080400 -6.479200 -13.900100
N -17.065700 -8.710100 -15.923900
C -16.426700 -7.761300 -15.238400
C -15.016300 -7.452900 -15.344800
N -14.377200 -6.504100 -14.659300
H -14.362600 -8.735000 -16.683100
N -14.167400 -8.086900 -16.152200
C -13.066700 -6.555800 -15.057500
C -12.930500 -7.525500 -15.989600
H -12.383400 -6.012100 -14.738000
H -12.148500 -7.764300 -16.433900
32
Fragment
H -17.216000 -7.412900 -19.080800
H -17.068900 -9.044800 -20.703300
O -16.544600 -5.537000 -17.617600
H -16.523000 -4.874600 -17.134200
C -16.414100 -7.538100 -19.536700
C -16.331500 -8.513400 -20.506800
C -15.421400 -5.684500 -18.182500
C -15.312600 -6.733300 -19.225200
C -15.142100 -8.692400 -21.183000
H -15.083800 -9.347100 -21.841000
O -14.404600 -5.002900 -17.901600
C -14.108800 -6.935600 -19.914200
C -14.048800 -7.923600 -20.901600
H -13.257700 -8.057900 -21.371500
H -13.135700 -5.675400 -19.088500
O -12.994700 -6.216000 -19.688500
H -19.294500 -7.449900 -14.149300
H -19.059600 -9.202100 -15.845100
C -18.512400 -7.688700 -14.593500
C -18.376300 -8.658400 -15.525700
N -17.275500 -7.127300 -14.431000
H -17.080400 -6.479200 -13.900100
N -17.065700 -8.710100 -15.923900
C -16.426700 -7.761300 -15.238400
C -15.016300 -7.452900 -15.344800
N -14.377200 -6.504100 -14.659300
H -14.362600 -8.735000 -16.683100
N -14.167400 -8.086900 -16.152200
C -13.066700 -6.555800 -15.057500
C -12.930500 -7.525500 -15.989600
H -12.383400 -6.012100 -14.738000
H -12.148500 -7.764300 -16.433900
