16
Fragment
H -17.216000 -7.412900 -19.080800
H -17.068900 -9.044800 -20.703300
O -16.544600 -5.537000 -17.617600
H -16.523000 -4.874600 -17.134200
C -16.414100 -7.538100 -19.536700
C -16.331500 -8.513400 -20.506800
C -15.421400 -5.684500 -18.182500
C -15.312600 -6.733300 -19.225200
C -15.142100 -8.692400 -21.183000
H -15.083800 -9.347100 -21.841000
O -14.404600 -5.002900 -17.901600
C -14.108800 -6.935600 -19.914200
C -14.048800 -7.923600 -20.901600
H -13.257700 -8.057900 -21.371500
H -13.135700 -5.675400 -19.088500
O -12.994700 -6.216000 -19.688500
16
Fragment
O -16.024400 -8.998200 -26.186200
H -15.883400 -9.538800 -26.786300
H -15.761400 -7.156300 -24.503200
C -14.970300 -7.290600 -24.973200
C -14.910300 -8.278600 -25.960500
O -14.614500 -10.211300 -27.973200
H -13.935400 -5.867100 -24.033800
C -13.877000 -6.521800 -24.691800
C -13.706500 -8.480900 -26.649600
C -13.597700 -9.529700 -27.692300
C -12.687700 -6.700800 -25.368000
C -12.605000 -7.676100 -26.338100
H -12.496100 -10.339600 -28.740500
O -12.474500 -9.677200 -28.257200
H -11.950200 -6.169400 -25.171500
H -11.803100 -7.801300 -26.793900
32
Fragment
H -17.216000 -7.412900 -19.080800
H -17.068900 -9.044800 -20.703300
O -16.544600 -5.537000 -17.617600
H -16.523000 -4.874600 -17.134200
C -16.414100 -7.538100 -19.536700
C -16.331500 -8.513400 -20.506800
C -15.421400 -5.684500 -18.182500
C -15.312600 -6.733300 -19.225200
C -15.142100 -8.692400 -21.183000
H -15.083800 -9.347100 -21.841000
O -14.404600 -5.002900 -17.901600
C -14.108800 -6.935600 -19.914200
C -14.048800 -7.923600 -20.901600
H -13.257700 -8.057900 -21.371500
H -13.135700 -5.675400 -19.088500
O -12.994700 -6.216000 -19.688500
O -16.024400 -8.998200 -26.186200
H -15.883400 -9.538800 -26.786300
H -15.761400 -7.156300 -24.503200
C -14.970300 -7.290600 -24.973200
C -14.910300 -8.278600 -25.960500
O -14.614500 -10.211300 -27.973200
H -13.935400 -5.867100 -24.033800
C -13.877000 -6.521800 -24.691800
C -13.706500 -8.480900 -26.649600
C -13.597700 -9.529700 -27.692300
C -12.687700 -6.700800 -25.368000
C -12.605000 -7.676100 -26.338100
H -12.496100 -10.339600 -28.740500
O -12.474500 -9.677200 -28.257200
H -11.950200 -6.169400 -25.171500
H -11.803100 -7.801300 -26.793900
