66
Fragment
H -13.854400 -4.968400 -40.204800
O -13.440300 -2.684600 -41.159600
N -13.145300 -4.907900 -40.918900
C -12.864900 -3.745500 -41.473300
H -12.649400 -5.737700 -41.209100
H -12.306100 -3.845400 -43.439600
C -11.847300 -3.754700 -42.588700
H -11.372700 -2.909100 -42.593900
H -11.222200 -5.657200 -44.222200
N -10.887900 -4.844300 -42.441500
C -10.432800 -5.403000 -43.719200
H -10.170800 -3.931000 -40.796100
H -10.061800 -3.798800 -44.965700
H -9.947600 -6.218900 -43.522200
H -9.871500 -5.623900 -46.359200
C -9.803000 -4.462500 -41.520900
H -9.688800 -6.110300 -40.309100
C -9.558500 -4.559900 -44.635700
H -9.436600 -3.850100 -47.648300
H -9.158900 -3.914100 -41.996100
C -9.097200 -5.673100 -40.943000
C -9.094500 -5.431700 -45.811800
H -8.913300 -6.301400 -41.659100
H -8.890500 -5.343000 -36.663400
H -8.788900 -4.227800 -44.146100
H -8.785900 -6.276300 -45.448300
C -8.477800 -3.789100 -47.509200
N -8.455000 -5.361500 -37.573000
H -8.300500 -2.964400 -47.030900
H -8.297700 -4.499900 -38.074300
O -8.258300 -7.604800 -37.535200
C -8.090500 -6.511600 -38.106700
N -8.043300 -4.915600 -46.693800
N -7.833700 -5.334800 -40.263700
C -7.786500 -3.738800 -48.850700
O -7.618600 -2.645600 -49.422300
H -7.579300 -5.750500 -48.883100
H -7.576500 -7.286000 -39.926500
N -7.421900 -4.888900 -49.384400
C -7.399100 -6.461300 -39.448200
H -7.091000 -3.974100 -41.509100
H -7.088000 -6.022600 -42.811300
H -6.986400 -4.907400 -50.294000
H -6.963700 -3.949000 -45.298300
C -6.782500 -4.818700 -41.145700
C -6.779700 -4.577300 -46.014400
H -6.718100 -6.336300 -44.961300
H -6.440400 -6.400300 -39.309100
C -6.318400 -5.690500 -42.321800
H -6.188100 -4.140100 -46.648300
C -6.073900 -5.787900 -45.436600
H -6.005400 -4.626500 -40.598300
H -5.929300 -4.031500 -43.435200
H -5.815200 -6.451600 -41.991800
H -5.706200 -6.319400 -46.161400
C -5.444100 -4.847400 -43.238300
N -4.989000 -5.406100 -44.515900
H -4.654700 -4.593200 -42.735200
H -4.504200 -7.341300 -44.363500
C -4.029700 -6.495700 -44.368700
H -3.570900 -6.405000 -43.517900
H -3.227500 -4.512700 -45.748300
C -3.012000 -6.504900 -45.484200
N -2.731600 -5.342500 -46.038500
O -2.436600 -7.565800 -45.797900
H -2.022600 -5.282000 -46.752700
66
Fragment
H -6.569300 -7.844600 -51.074500
O -6.155300 -10.128400 -52.029300
N -5.860300 -7.905100 -51.788600
C -5.579800 -9.067500 -52.343000
H -5.364400 -7.075300 -52.078800
H -5.021000 -8.967600 -54.309300
C -4.562200 -9.058300 -53.458400
H -4.087700 -9.903900 -53.463600
H -3.937100 -7.155800 -55.091900
N -3.602800 -7.968700 -53.311200
C -3.147700 -7.410000 -54.588800
H -2.885700 -8.882000 -51.665800
H -2.776700 -9.014200 -55.835400
H -2.662500 -6.594100 -54.391900
H -2.586500 -7.189100 -57.228900
C -2.518000 -8.350500 -52.390600
H -2.403800 -6.702700 -51.178800
C -2.273500 -8.253100 -55.505400
H -2.151500 -8.962900 -58.518000
H -1.873800 -8.898900 -52.865800
C -1.812200 -7.139900 -51.812700
C -1.809400 -7.381300 -56.681500
H -1.628200 -6.511600 -52.528800
H -1.605400 -7.470000 -47.533100
H -1.503900 -8.585200 -55.015800
H -1.500900 -6.536700 -56.318000
C -1.192800 -9.023900 -58.378900
N -1.170000 -7.451500 -48.442700
H -1.015400 -9.848600 -57.900600
H -1.012600 -8.313100 -48.944000
O -0.973300 -5.208200 -48.404900
C -0.805400 -6.301400 -48.976400
N -0.758200 -7.897400 -57.563400
N -0.548600 -7.478200 -51.133400
C -0.501400 -9.074200 -59.720400
O -0.333500 -10.167400 -60.291900
H -0.294200 -7.062500 -59.752800
H -0.291400 -5.527000 -50.796200
N -0.136800 -7.924100 -60.254100
C -0.114000 -6.351700 -50.317900
H 0.194000 -8.838900 -52.378800
H 0.197000 -6.790400 -53.681000
H 0.298600 -7.905600 -61.163700
H 0.321400 -8.864000 -56.168000
C 0.502600 -7.994300 -52.015300
C 0.505300 -8.235700 -56.884100
H 0.567000 -6.476700 -55.831000
H 0.844700 -6.412700 -50.178800
C 0.966700 -7.122500 -53.191400
H 1.096900 -8.672900 -57.518000
C 1.211100 -7.025100 -56.306300
H 1.279600 -8.186500 -51.467900
H 1.355700 -8.781500 -54.304900
H 1.469900 -6.361400 -52.861400
H 1.578900 -6.493600 -57.031000
C 1.840900 -7.965600 -54.108000
N 2.296000 -7.406900 -55.385600
H 2.630300 -8.219800 -53.604900
H 2.780900 -5.471700 -55.233200
C 3.255400 -6.317300 -55.238400
H 3.714200 -6.408000 -54.387500
H 4.057500 -8.300300 -56.618000
C 4.273000 -6.308100 -56.353900
N 4.553400 -7.470500 -56.908200
O 4.848400 -5.247200 -56.667600
H 5.262500 -7.531000 -57.622400
132
Fragment
H -13.854400 -4.968400 -40.204800
O -13.440300 -2.684600 -41.159600
N -13.145300 -4.907900 -40.918900
C -12.864900 -3.745500 -41.473300
H -12.649400 -5.737700 -41.209100
H -12.306100 -3.845400 -43.439600
C -11.847300 -3.754700 -42.588700
H -11.372700 -2.909100 -42.593900
H -11.222200 -5.657200 -44.222200
N -10.887900 -4.844300 -42.441500
C -10.432800 -5.403000 -43.719200
H -10.170800 -3.931000 -40.796100
H -10.061800 -3.798800 -44.965700
H -9.947600 -6.218900 -43.522200
H -9.871500 -5.623900 -46.359200
C -9.803000 -4.462500 -41.520900
H -9.688800 -6.110300 -40.309100
C -9.558500 -4.559900 -44.635700
H -9.436600 -3.850100 -47.648300
H -9.158900 -3.914100 -41.996100
C -9.097200 -5.673100 -40.943000
C -9.094500 -5.431700 -45.811800
H -8.913300 -6.301400 -41.659100
H -8.890500 -5.343000 -36.663400
H -8.788900 -4.227800 -44.146100
H -8.785900 -6.276300 -45.448300
C -8.477800 -3.789100 -47.509200
N -8.455000 -5.361500 -37.573000
H -8.300500 -2.964400 -47.030900
H -8.297700 -4.499900 -38.074300
O -8.258300 -7.604800 -37.535200
C -8.090500 -6.511600 -38.106700
N -8.043300 -4.915600 -46.693800
N -7.833700 -5.334800 -40.263700
C -7.786500 -3.738800 -48.850700
O -7.618600 -2.645600 -49.422300
H -7.579300 -5.750500 -48.883100
H -7.576500 -7.286000 -39.926500
N -7.421900 -4.888900 -49.384400
C -7.399100 -6.461300 -39.448200
H -7.091000 -3.974100 -41.509100
H -7.088000 -6.022600 -42.811300
H -6.986400 -4.907400 -50.294000
H -6.963700 -3.949000 -45.298300
C -6.782500 -4.818700 -41.145700
C -6.779700 -4.577300 -46.014400
H -6.718100 -6.336300 -44.961300
H -6.440400 -6.400300 -39.309100
C -6.318400 -5.690500 -42.321800
H -6.188100 -4.140100 -46.648300
C -6.073900 -5.787900 -45.436600
H -6.005400 -4.626500 -40.598300
H -5.929300 -4.031500 -43.435200
H -5.815200 -6.451600 -41.991800
H -5.706200 -6.319400 -46.161400
C -5.444100 -4.847400 -43.238300
N -4.989000 -5.406100 -44.515900
H -4.654700 -4.593200 -42.735200
H -4.504200 -7.341300 -44.363500
C -4.029700 -6.495700 -44.368700
H -3.570900 -6.405000 -43.517900
H -3.227500 -4.512700 -45.748300
C -3.012000 -6.504900 -45.484200
N -2.731600 -5.342500 -46.038500
O -2.436600 -7.565800 -45.797900
H -2.022600 -5.282000 -46.752700
H -6.569300 -7.844600 -51.074500
O -6.155300 -10.128400 -52.029300
N -5.860300 -7.905100 -51.788600
C -5.579800 -9.067500 -52.343000
H -5.364400 -7.075300 -52.078800
H -5.021000 -8.967600 -54.309300
C -4.562200 -9.058300 -53.458400
H -4.087700 -9.903900 -53.463600
H -3.937100 -7.155800 -55.091900
N -3.602800 -7.968700 -53.311200
C -3.147700 -7.410000 -54.588800
H -2.885700 -8.882000 -51.665800
H -2.776700 -9.014200 -55.835400
H -2.662500 -6.594100 -54.391900
H -2.586500 -7.189100 -57.228900
C -2.518000 -8.350500 -52.390600
H -2.403800 -6.702700 -51.178800
C -2.273500 -8.253100 -55.505400
H -2.151500 -8.962900 -58.518000
H -1.873800 -8.898900 -52.865800
C -1.812200 -7.139900 -51.812700
C -1.809400 -7.381300 -56.681500
H -1.628200 -6.511600 -52.528800
H -1.605400 -7.470000 -47.533100
H -1.503900 -8.585200 -55.015800
H -1.500900 -6.536700 -56.318000
C -1.192800 -9.023900 -58.378900
N -1.170000 -7.451500 -48.442700
H -1.015400 -9.848600 -57.900600
H -1.012600 -8.313100 -48.944000
O -0.973300 -5.208200 -48.404900
C -0.805400 -6.301400 -48.976400
N -0.758200 -7.897400 -57.563400
N -0.548600 -7.478200 -51.133400
C -0.501400 -9.074200 -59.720400
O -0.333500 -10.167400 -60.291900
H -0.294200 -7.062500 -59.752800
H -0.291400 -5.527000 -50.796200
N -0.136800 -7.924100 -60.254100
C -0.114000 -6.351700 -50.317900
H 0.194000 -8.838900 -52.378800
H 0.197000 -6.790400 -53.681000
H 0.298600 -7.905600 -61.163700
H 0.321400 -8.864000 -56.168000
C 0.502600 -7.994300 -52.015300
C 0.505300 -8.235700 -56.884100
H 0.567000 -6.476700 -55.831000
H 0.844700 -6.412700 -50.178800
C 0.966700 -7.122500 -53.191400
H 1.096900 -8.672900 -57.518000
C 1.211100 -7.025100 -56.306300
H 1.279600 -8.186500 -51.467900
H 1.355700 -8.781500 -54.304900
H 1.469900 -6.361400 -52.861400
H 1.578900 -6.493600 -57.031000
C 1.840900 -7.965600 -54.108000
N 2.296000 -7.406900 -55.385600
H 2.630300 -8.219800 -53.604900
H 2.780900 -5.471700 -55.233200
C 3.255400 -6.317300 -55.238400
H 3.714200 -6.408000 -54.387500
H 4.057500 -8.300300 -56.618000
C 4.273000 -6.308100 -56.353900
N 4.553400 -7.470500 -56.908200
O 4.848400 -5.247200 -56.667600
H 5.262500 -7.531000 -57.622400
