66
Fragment
H -13.854400 -4.968400 -40.204800
O -13.440300 -2.684600 -41.159600
N -13.145300 -4.907900 -40.918900
C -12.864900 -3.745500 -41.473300
H -12.649400 -5.737700 -41.209100
H -12.306100 -3.845400 -43.439600
C -11.847300 -3.754700 -42.588700
H -11.372700 -2.909100 -42.593900
H -11.222200 -5.657200 -44.222200
N -10.887900 -4.844300 -42.441500
C -10.432800 -5.403000 -43.719200
H -10.170800 -3.931000 -40.796100
H -10.061800 -3.798800 -44.965700
H -9.947600 -6.218900 -43.522200
H -9.871500 -5.623900 -46.359200
C -9.803000 -4.462500 -41.520900
H -9.688800 -6.110300 -40.309100
C -9.558500 -4.559900 -44.635700
H -9.436600 -3.850100 -47.648300
H -9.158900 -3.914100 -41.996100
C -9.097200 -5.673100 -40.943000
C -9.094500 -5.431700 -45.811800
H -8.913300 -6.301400 -41.659100
H -8.890500 -5.343000 -36.663400
H -8.788900 -4.227800 -44.146100
H -8.785900 -6.276300 -45.448300
C -8.477800 -3.789100 -47.509200
N -8.455000 -5.361500 -37.573000
H -8.300500 -2.964400 -47.030900
H -8.297700 -4.499900 -38.074300
O -8.258300 -7.604800 -37.535200
C -8.090500 -6.511600 -38.106700
N -8.043300 -4.915600 -46.693800
N -7.833700 -5.334800 -40.263700
C -7.786500 -3.738800 -48.850700
O -7.618600 -2.645600 -49.422300
H -7.579300 -5.750500 -48.883100
H -7.576500 -7.286000 -39.926500
N -7.421900 -4.888900 -49.384400
C -7.399100 -6.461300 -39.448200
H -7.091000 -3.974100 -41.509100
H -7.088000 -6.022600 -42.811300
H -6.986400 -4.907400 -50.294000
H -6.963700 -3.949000 -45.298300
C -6.782500 -4.818700 -41.145700
C -6.779700 -4.577300 -46.014400
H -6.718100 -6.336300 -44.961300
H -6.440400 -6.400300 -39.309100
C -6.318400 -5.690500 -42.321800
H -6.188100 -4.140100 -46.648300
C -6.073900 -5.787900 -45.436600
H -6.005400 -4.626500 -40.598300
H -5.929300 -4.031500 -43.435200
H -5.815200 -6.451600 -41.991800
H -5.706200 -6.319400 -46.161400
C -5.444100 -4.847400 -43.238300
N -4.989000 -5.406100 -44.515900
H -4.654700 -4.593200 -42.735200
H -4.504200 -7.341300 -44.363500
C -4.029700 -6.495700 -44.368700
H -3.570900 -6.405000 -43.517900
H -3.227500 -4.512700 -45.748300
C -3.012000 -6.504900 -45.484200
N -2.731600 -5.342500 -46.038500
O -2.436600 -7.565800 -45.797900
H -2.022600 -5.282000 -46.752700
66
Fragment
H -3.260500 -10.093600 -40.204800
O -2.846400 -7.809800 -41.159600
N -2.551400 -10.033100 -40.918900
C -2.271000 -8.870700 -41.473300
H -2.055500 -10.862900 -41.209100
H -1.712200 -8.970600 -43.439600
C -1.253400 -8.879900 -42.588700
H -0.778800 -8.034300 -42.593900
H -0.628300 -10.782400 -44.222200
N -0.294000 -9.969500 -42.441500
C 0.161100 -10.528200 -43.719200
H 0.423100 -9.056200 -40.796100
H 0.532100 -8.924000 -44.965700
H 0.646300 -11.344100 -43.522200
H 0.722400 -10.749100 -46.359200
C 0.790900 -9.587700 -41.520900
H 0.905100 -11.235500 -40.309100
C 1.035400 -9.685100 -44.635700
H 1.157300 -8.975300 -47.648300
H 1.435000 -9.039300 -41.996100
C 1.496700 -10.798300 -40.943000
C 1.499400 -10.556900 -45.811800
H 1.680600 -11.426600 -41.659100
H 1.703400 -10.468200 -36.663400
H 1.805000 -9.353000 -44.146100
H 1.808000 -11.401500 -45.448300
C 2.116100 -8.914300 -47.509200
N 2.138900 -10.486700 -37.573000
H 2.293400 -8.089600 -47.030900
H 2.296200 -9.625100 -38.074300
O 2.335600 -12.730000 -37.535200
C 2.503400 -11.636800 -38.106700
N 2.550600 -10.040800 -46.693800
N 2.760200 -10.460000 -40.263700
C 2.807400 -8.864000 -48.850700
O 2.975300 -7.770800 -49.422300
H 3.014600 -10.875700 -48.883100
H 3.017400 -12.411200 -39.926500
N 3.172000 -10.014100 -49.384400
C 3.194800 -11.586500 -39.448200
H 3.502900 -9.099300 -41.509100
H 3.505900 -11.147800 -42.811300
H 3.607500 -10.032600 -50.294000
H 3.630200 -9.074200 -45.298300
C 3.811400 -9.943900 -41.145700
C 3.814200 -9.702500 -46.014400
H 3.875800 -11.461500 -44.961300
H 4.153500 -11.525500 -39.309100
C 4.275500 -10.815700 -42.321800
H 4.405800 -9.265300 -46.648300
C 4.520000 -10.913100 -45.436600
H 4.588500 -9.751700 -40.598300
H 4.664600 -9.156700 -43.435200
H 4.778700 -11.576800 -41.991800
H 4.887700 -11.444600 -46.161400
C 5.149800 -9.972600 -43.238300
N 5.604900 -10.531300 -44.515900
H 5.939200 -9.718400 -42.735200
H 6.089700 -12.466500 -44.363500
C 6.564200 -11.620900 -44.368700
H 7.023000 -11.530200 -43.517900
H 7.366400 -9.637900 -45.748300
C 7.581900 -11.630100 -45.484200
N 7.862300 -10.467700 -46.038500
O 8.157300 -12.691000 -45.797900
H 8.571300 -10.407200 -46.752700
132
Fragment
H -13.854400 -4.968400 -40.204800
O -13.440300 -2.684600 -41.159600
N -13.145300 -4.907900 -40.918900
C -12.864900 -3.745500 -41.473300
H -12.649400 -5.737700 -41.209100
H -12.306100 -3.845400 -43.439600
C -11.847300 -3.754700 -42.588700
H -11.372700 -2.909100 -42.593900
H -11.222200 -5.657200 -44.222200
N -10.887900 -4.844300 -42.441500
C -10.432800 -5.403000 -43.719200
H -10.170800 -3.931000 -40.796100
H -10.061800 -3.798800 -44.965700
H -9.947600 -6.218900 -43.522200
H -9.871500 -5.623900 -46.359200
C -9.803000 -4.462500 -41.520900
H -9.688800 -6.110300 -40.309100
C -9.558500 -4.559900 -44.635700
H -9.436600 -3.850100 -47.648300
H -9.158900 -3.914100 -41.996100
C -9.097200 -5.673100 -40.943000
C -9.094500 -5.431700 -45.811800
H -8.913300 -6.301400 -41.659100
H -8.890500 -5.343000 -36.663400
H -8.788900 -4.227800 -44.146100
H -8.785900 -6.276300 -45.448300
C -8.477800 -3.789100 -47.509200
N -8.455000 -5.361500 -37.573000
H -8.300500 -2.964400 -47.030900
H -8.297700 -4.499900 -38.074300
O -8.258300 -7.604800 -37.535200
C -8.090500 -6.511600 -38.106700
N -8.043300 -4.915600 -46.693800
N -7.833700 -5.334800 -40.263700
C -7.786500 -3.738800 -48.850700
O -7.618600 -2.645600 -49.422300
H -7.579300 -5.750500 -48.883100
H -7.576500 -7.286000 -39.926500
N -7.421900 -4.888900 -49.384400
C -7.399100 -6.461300 -39.448200
H -7.091000 -3.974100 -41.509100
H -7.088000 -6.022600 -42.811300
H -6.986400 -4.907400 -50.294000
H -6.963700 -3.949000 -45.298300
C -6.782500 -4.818700 -41.145700
C -6.779700 -4.577300 -46.014400
H -6.718100 -6.336300 -44.961300
H -6.440400 -6.400300 -39.309100
C -6.318400 -5.690500 -42.321800
H -6.188100 -4.140100 -46.648300
C -6.073900 -5.787900 -45.436600
H -6.005400 -4.626500 -40.598300
H -5.929300 -4.031500 -43.435200
H -5.815200 -6.451600 -41.991800
H -5.706200 -6.319400 -46.161400
C -5.444100 -4.847400 -43.238300
N -4.989000 -5.406100 -44.515900
H -4.654700 -4.593200 -42.735200
H -4.504200 -7.341300 -44.363500
C -4.029700 -6.495700 -44.368700
H -3.570900 -6.405000 -43.517900
H -3.227500 -4.512700 -45.748300
C -3.012000 -6.504900 -45.484200
N -2.731600 -5.342500 -46.038500
O -2.436600 -7.565800 -45.797900
H -2.022600 -5.282000 -46.752700
H -3.260500 -10.093600 -40.204800
O -2.846400 -7.809800 -41.159600
N -2.551400 -10.033100 -40.918900
C -2.271000 -8.870700 -41.473300
H -2.055500 -10.862900 -41.209100
H -1.712200 -8.970600 -43.439600
C -1.253400 -8.879900 -42.588700
H -0.778800 -8.034300 -42.593900
H -0.628300 -10.782400 -44.222200
N -0.294000 -9.969500 -42.441500
C 0.161100 -10.528200 -43.719200
H 0.423100 -9.056200 -40.796100
H 0.532100 -8.924000 -44.965700
H 0.646300 -11.344100 -43.522200
H 0.722400 -10.749100 -46.359200
C 0.790900 -9.587700 -41.520900
H 0.905100 -11.235500 -40.309100
C 1.035400 -9.685100 -44.635700
H 1.157300 -8.975300 -47.648300
H 1.435000 -9.039300 -41.996100
C 1.496700 -10.798300 -40.943000
C 1.499400 -10.556900 -45.811800
H 1.680600 -11.426600 -41.659100
H 1.703400 -10.468200 -36.663400
H 1.805000 -9.353000 -44.146100
H 1.808000 -11.401500 -45.448300
C 2.116100 -8.914300 -47.509200
N 2.138900 -10.486700 -37.573000
H 2.293400 -8.089600 -47.030900
H 2.296200 -9.625100 -38.074300
O 2.335600 -12.730000 -37.535200
C 2.503400 -11.636800 -38.106700
N 2.550600 -10.040800 -46.693800
N 2.760200 -10.460000 -40.263700
C 2.807400 -8.864000 -48.850700
O 2.975300 -7.770800 -49.422300
H 3.014600 -10.875700 -48.883100
H 3.017400 -12.411200 -39.926500
N 3.172000 -10.014100 -49.384400
C 3.194800 -11.586500 -39.448200
H 3.502900 -9.099300 -41.509100
H 3.505900 -11.147800 -42.811300
H 3.607500 -10.032600 -50.294000
H 3.630200 -9.074200 -45.298300
C 3.811400 -9.943900 -41.145700
C 3.814200 -9.702500 -46.014400
H 3.875800 -11.461500 -44.961300
H 4.153500 -11.525500 -39.309100
C 4.275500 -10.815700 -42.321800
H 4.405800 -9.265300 -46.648300
C 4.520000 -10.913100 -45.436600
H 4.588500 -9.751700 -40.598300
H 4.664600 -9.156700 -43.435200
H 4.778700 -11.576800 -41.991800
H 4.887700 -11.444600 -46.161400
C 5.149800 -9.972600 -43.238300
N 5.604900 -10.531300 -44.515900
H 5.939200 -9.718400 -42.735200
H 6.089700 -12.466500 -44.363500
C 6.564200 -11.620900 -44.368700
H 7.023000 -11.530200 -43.517900
H 7.366400 -9.637900 -45.748300
C 7.581900 -11.630100 -45.484200
N 7.862300 -10.467700 -46.038500
O 8.157300 -12.691000 -45.797900
H 8.571300 -10.407200 -46.752700
