14
Fragment
H -13.749400 -16.418700 -47.537200
O -13.674200 -18.225700 -48.339200
H -13.282300 -17.528200 -46.529600
C -13.203500 -17.214300 -47.444100
H -13.146900 -20.056600 -48.851900
H -12.910500 -19.739900 -47.332500
C -12.842400 -19.377300 -48.229100
C -11.781900 -16.880400 -47.734600
H -11.713800 -16.517800 -48.631200
H -11.477400 -16.201100 -47.111800
C -11.420800 -19.043400 -48.519600
H -11.342000 -18.729500 -49.434100
O -10.950100 -18.032000 -47.624500
H -10.874900 -19.839000 -48.426500
32
Fragment
H -21.465000 -21.829600 -54.865600
H -21.377200 -22.568000 -53.483800
H -20.970900 -24.124700 -55.156700
C -20.861700 -22.279800 -54.253700
H -20.569500 -21.005300 -51.097500
C -20.264200 -23.495200 -54.940800
H -20.204200 -20.577500 -53.317400
H -20.027800 -23.017600 -51.670100
H -19.843100 -23.221800 -55.770900
O -19.827400 -21.240400 -50.832000
C -19.785600 -21.305500 -53.801400
H -19.679700 -24.533200 -53.266300
H -19.352200 -20.929200 -54.584200
C -19.317800 -22.349100 -51.532500
C -19.237300 -24.173600 -54.051600
H -18.835100 -24.912700 -54.533000
C -18.717800 -21.958500 -52.902900
H -18.558500 -23.458700 -49.993900
N -18.411600 -18.515400 -51.998600
N -18.295000 -22.926200 -50.686100
C -18.142400 -23.200000 -53.613300
C -18.081600 -19.574400 -52.250600
H -17.638400 -22.916100 -54.392200
C -17.564500 -20.922900 -52.614700
H -17.532500 -23.655700 -53.013500
C -17.093400 -22.360700 -50.642300
C -16.775700 -20.705200 -53.854800
C -16.641100 -21.420700 -51.507200
N -16.152700 -20.511000 -54.782500
Cl -16.073700 -22.930000 -49.374600
C -15.339300 -20.886500 -51.394300
N -14.288700 -20.434800 -51.330700
46
Fragment
H -13.749400 -16.418700 -47.537200
O -13.674200 -18.225700 -48.339200
H -13.282300 -17.528200 -46.529600
C -13.203500 -17.214300 -47.444100
H -13.146900 -20.056600 -48.851900
H -12.910500 -19.739900 -47.332500
C -12.842400 -19.377300 -48.229100
C -11.781900 -16.880400 -47.734600
H -11.713800 -16.517800 -48.631200
H -11.477400 -16.201100 -47.111800
C -11.420800 -19.043400 -48.519600
H -11.342000 -18.729500 -49.434100
O -10.950100 -18.032000 -47.624500
H -10.874900 -19.839000 -48.426500
H -21.465000 -21.829600 -54.865600
H -21.377200 -22.568000 -53.483800
H -20.970900 -24.124700 -55.156700
C -20.861700 -22.279800 -54.253700
H -20.569500 -21.005300 -51.097500
C -20.264200 -23.495200 -54.940800
H -20.204200 -20.577500 -53.317400
H -20.027800 -23.017600 -51.670100
H -19.843100 -23.221800 -55.770900
O -19.827400 -21.240400 -50.832000
C -19.785600 -21.305500 -53.801400
H -19.679700 -24.533200 -53.266300
H -19.352200 -20.929200 -54.584200
C -19.317800 -22.349100 -51.532500
C -19.237300 -24.173600 -54.051600
H -18.835100 -24.912700 -54.533000
C -18.717800 -21.958500 -52.902900
H -18.558500 -23.458700 -49.993900
N -18.411600 -18.515400 -51.998600
N -18.295000 -22.926200 -50.686100
C -18.142400 -23.200000 -53.613300
C -18.081600 -19.574400 -52.250600
H -17.638400 -22.916100 -54.392200
C -17.564500 -20.922900 -52.614700
H -17.532500 -23.655700 -53.013500
C -17.093400 -22.360700 -50.642300
C -16.775700 -20.705200 -53.854800
C -16.641100 -21.420700 -51.507200
N -16.152700 -20.511000 -54.782500
Cl -16.073700 -22.930000 -49.374600
C -15.339300 -20.886500 -51.394300
N -14.288700 -20.434800 -51.330700
