14
Fragment
H -13.749400 -16.418700 -47.537200
O -13.674200 -18.225700 -48.339200
H -13.282300 -17.528200 -46.529600
C -13.203500 -17.214300 -47.444100
H -13.146900 -20.056600 -48.851900
H -12.910500 -19.739900 -47.332500
C -12.842400 -19.377300 -48.229100
C -11.781900 -16.880400 -47.734600
H -11.713800 -16.517800 -48.631200
H -11.477400 -16.201100 -47.111800
C -11.420800 -19.043400 -48.519600
H -11.342000 -18.729500 -49.434100
O -10.950100 -18.032000 -47.624500
H -10.874900 -19.839000 -48.426500
32
Fragment
N -10.335600 -15.822900 -44.633000
C -9.285000 -15.371200 -44.569400
Cl -8.550600 -13.327700 -46.589100
N -8.471600 -15.746700 -41.181200
C -7.983200 -14.837000 -44.456500
C -7.848600 -15.552500 -42.108900
C -7.530900 -13.897000 -45.321400
H -7.091800 -12.602000 -42.950200
C -7.059800 -15.334800 -43.349000
H -6.985900 -13.341600 -41.571500
C -6.542700 -16.683300 -43.713100
C -6.481900 -13.057700 -42.350400
N -6.329300 -13.331500 -45.277600
N -6.212700 -17.742300 -43.965100
H -6.065800 -12.799000 -45.969800
C -5.906500 -14.299200 -43.060800
H -5.789200 -11.345000 -41.430700
C -5.387000 -12.084100 -41.912100
C -5.306500 -13.908600 -44.431200
H -5.272100 -15.328500 -41.379500
H -4.944600 -11.724500 -42.697400
C -4.838700 -14.952200 -42.162300
O -4.796900 -15.017300 -45.131700
H -4.781200 -13.035900 -40.192800
H -4.596500 -13.240100 -44.293600
H -4.420100 -15.680200 -42.646300
C -4.360100 -12.762500 -41.022900
H -4.054800 -15.252400 -44.866200
C -3.762600 -13.977900 -41.710000
H -3.653400 -12.133000 -40.807000
H -3.247100 -13.689700 -42.479900
H -3.159300 -14.428100 -41.098100
46
Fragment
H -13.749400 -16.418700 -47.537200
O -13.674200 -18.225700 -48.339200
H -13.282300 -17.528200 -46.529600
C -13.203500 -17.214300 -47.444100
H -13.146900 -20.056600 -48.851900
H -12.910500 -19.739900 -47.332500
C -12.842400 -19.377300 -48.229100
C -11.781900 -16.880400 -47.734600
H -11.713800 -16.517800 -48.631200
H -11.477400 -16.201100 -47.111800
C -11.420800 -19.043400 -48.519600
H -11.342000 -18.729500 -49.434100
O -10.950100 -18.032000 -47.624500
H -10.874900 -19.839000 -48.426500
N -10.335600 -15.822900 -44.633000
C -9.285000 -15.371200 -44.569400
Cl -8.550600 -13.327700 -46.589100
N -8.471600 -15.746700 -41.181200
C -7.983200 -14.837000 -44.456500
C -7.848600 -15.552500 -42.108900
C -7.530900 -13.897000 -45.321400
H -7.091800 -12.602000 -42.950200
C -7.059800 -15.334800 -43.349000
H -6.985900 -13.341600 -41.571500
C -6.542700 -16.683300 -43.713100
C -6.481900 -13.057700 -42.350400
N -6.329300 -13.331500 -45.277600
N -6.212700 -17.742300 -43.965100
H -6.065800 -12.799000 -45.969800
C -5.906500 -14.299200 -43.060800
H -5.789200 -11.345000 -41.430700
C -5.387000 -12.084100 -41.912100
C -5.306500 -13.908600 -44.431200
H -5.272100 -15.328500 -41.379500
H -4.944600 -11.724500 -42.697400
C -4.838700 -14.952200 -42.162300
O -4.796900 -15.017300 -45.131700
H -4.781200 -13.035900 -40.192800
H -4.596500 -13.240100 -44.293600
H -4.420100 -15.680200 -42.646300
C -4.360100 -12.762500 -41.022900
H -4.054800 -15.252400 -44.866200
C -3.762600 -13.977900 -41.710000
H -3.653400 -12.133000 -40.807000
H -3.247100 -13.689700 -42.479900
H -3.159300 -14.428100 -41.098100
