14
Fragment
H -13.749400 -16.418700 -47.537200
O -13.674200 -18.225700 -48.339200
H -13.282300 -17.528200 -46.529600
C -13.203500 -17.214300 -47.444100
H -13.146900 -20.056600 -48.851900
H -12.910500 -19.739900 -47.332500
C -12.842400 -19.377300 -48.229100
C -11.781900 -16.880400 -47.734600
H -11.713800 -16.517800 -48.631200
H -11.477400 -16.201100 -47.111800
C -11.420800 -19.043400 -48.519600
H -11.342000 -18.729500 -49.434100
O -10.950100 -18.032000 -47.624500
H -10.874900 -19.839000 -48.426500
32
Fragment
H -13.256900 -20.471100 -41.098100
H -13.169100 -19.732600 -42.479900
H -12.762800 -18.176000 -40.807000
C -12.653600 -20.020900 -41.710000
H -12.361400 -21.295400 -44.866200
C -12.056100 -18.805400 -41.022900
H -11.996100 -21.723200 -42.646300
H -11.819700 -19.283100 -44.293600
H -11.635000 -19.078800 -40.192800
O -11.619300 -21.060300 -45.131700
C -11.577500 -20.995100 -42.162300
H -11.471600 -17.767500 -42.697400
H -11.144100 -21.371500 -41.379500
C -11.109700 -19.951500 -44.431200
C -11.029200 -18.127000 -41.912100
H -10.627000 -17.388000 -41.430700
C -10.509700 -20.342100 -43.060800
H -10.350400 -18.841900 -45.969800
N -10.203500 -23.785300 -43.965100
N -10.086900 -19.374400 -45.277600
C -9.934300 -19.100700 -42.350400
C -9.873500 -22.726200 -43.713100
H -9.430300 -19.384600 -41.571500
C -9.356400 -21.377800 -43.349000
H -9.324400 -18.644900 -42.950200
C -8.885300 -19.939900 -45.321400
C -8.567600 -21.595400 -42.108900
C -8.433000 -20.880000 -44.456500
N -7.944600 -21.789700 -41.181200
Cl -7.865600 -19.370700 -46.589100
C -7.131200 -21.414200 -44.569400
N -6.080600 -21.865800 -44.633000
46
Fragment
H -13.749400 -16.418700 -47.537200
O -13.674200 -18.225700 -48.339200
H -13.282300 -17.528200 -46.529600
C -13.203500 -17.214300 -47.444100
H -13.146900 -20.056600 -48.851900
H -12.910500 -19.739900 -47.332500
C -12.842400 -19.377300 -48.229100
C -11.781900 -16.880400 -47.734600
H -11.713800 -16.517800 -48.631200
H -11.477400 -16.201100 -47.111800
C -11.420800 -19.043400 -48.519600
H -11.342000 -18.729500 -49.434100
O -10.950100 -18.032000 -47.624500
H -10.874900 -19.839000 -48.426500
H -13.256900 -20.471100 -41.098100
H -13.169100 -19.732600 -42.479900
H -12.762800 -18.176000 -40.807000
C -12.653600 -20.020900 -41.710000
H -12.361400 -21.295400 -44.866200
C -12.056100 -18.805400 -41.022900
H -11.996100 -21.723200 -42.646300
H -11.819700 -19.283100 -44.293600
H -11.635000 -19.078800 -40.192800
O -11.619300 -21.060300 -45.131700
C -11.577500 -20.995100 -42.162300
H -11.471600 -17.767500 -42.697400
H -11.144100 -21.371500 -41.379500
C -11.109700 -19.951500 -44.431200
C -11.029200 -18.127000 -41.912100
H -10.627000 -17.388000 -41.430700
C -10.509700 -20.342100 -43.060800
H -10.350400 -18.841900 -45.969800
N -10.203500 -23.785300 -43.965100
N -10.086900 -19.374400 -45.277600
C -9.934300 -19.100700 -42.350400
C -9.873500 -22.726200 -43.713100
H -9.430300 -19.384600 -41.571500
C -9.356400 -21.377800 -43.349000
H -9.324400 -18.644900 -42.950200
C -8.885300 -19.939900 -45.321400
C -8.567600 -21.595400 -42.108900
C -8.433000 -20.880000 -44.456500
N -7.944600 -21.789700 -41.181200
Cl -7.865600 -19.370700 -46.589100
C -7.131200 -21.414200 -44.569400
N -6.080600 -21.865800 -44.633000
