14
Fragment
H -13.749400 -16.418700 -47.537200
O -13.674200 -18.225700 -48.339200
H -13.282300 -17.528200 -46.529600
C -13.203500 -17.214300 -47.444100
H -13.146900 -20.056600 -48.851900
H -12.910500 -19.739900 -47.332500
C -12.842400 -19.377300 -48.229100
C -11.781900 -16.880400 -47.734600
H -11.713800 -16.517800 -48.631200
H -11.477400 -16.201100 -47.111800
C -11.420800 -19.043400 -48.519600
H -11.342000 -18.729500 -49.434100
O -10.950100 -18.032000 -47.624500
H -10.874900 -19.839000 -48.426500
32
Fragment
H -21.465000 -20.471100 -41.098100
H -21.377200 -19.732600 -42.479900
H -20.970900 -18.176000 -40.807000
C -20.861700 -20.020900 -41.710000
H -20.569500 -21.295400 -44.866200
C -20.264200 -18.805400 -41.022900
H -20.204200 -21.723200 -42.646300
H -20.027800 -19.283100 -44.293600
H -19.843100 -19.078800 -40.192800
O -19.827400 -21.060300 -45.131700
C -19.785600 -20.995100 -42.162300
H -19.679700 -17.767500 -42.697400
H -19.352200 -21.371500 -41.379500
C -19.317800 -19.951500 -44.431200
C -19.237300 -18.127000 -41.912100
H -18.835100 -17.388000 -41.430700
C -18.717800 -20.342100 -43.060800
H -18.558500 -18.841900 -45.969800
N -18.411600 -23.785300 -43.965100
N -18.295000 -19.374400 -45.277600
C -18.142400 -19.100700 -42.350400
C -18.081600 -22.726200 -43.713100
H -17.638400 -19.384600 -41.571500
C -17.564500 -21.377800 -43.349000
H -17.532500 -18.644900 -42.950200
C -17.093400 -19.939900 -45.321400
C -16.775700 -21.595400 -42.108900
C -16.641100 -20.880000 -44.456500
N -16.152700 -21.789700 -41.181200
Cl -16.073700 -19.370700 -46.589100
C -15.339300 -21.414200 -44.569400
N -14.288700 -21.865800 -44.633000
46
Fragment
H -13.749400 -16.418700 -47.537200
O -13.674200 -18.225700 -48.339200
H -13.282300 -17.528200 -46.529600
C -13.203500 -17.214300 -47.444100
H -13.146900 -20.056600 -48.851900
H -12.910500 -19.739900 -47.332500
C -12.842400 -19.377300 -48.229100
C -11.781900 -16.880400 -47.734600
H -11.713800 -16.517800 -48.631200
H -11.477400 -16.201100 -47.111800
C -11.420800 -19.043400 -48.519600
H -11.342000 -18.729500 -49.434100
O -10.950100 -18.032000 -47.624500
H -10.874900 -19.839000 -48.426500
H -21.465000 -20.471100 -41.098100
H -21.377200 -19.732600 -42.479900
H -20.970900 -18.176000 -40.807000
C -20.861700 -20.020900 -41.710000
H -20.569500 -21.295400 -44.866200
C -20.264200 -18.805400 -41.022900
H -20.204200 -21.723200 -42.646300
H -20.027800 -19.283100 -44.293600
H -19.843100 -19.078800 -40.192800
O -19.827400 -21.060300 -45.131700
C -19.785600 -20.995100 -42.162300
H -19.679700 -17.767500 -42.697400
H -19.352200 -21.371500 -41.379500
C -19.317800 -19.951500 -44.431200
C -19.237300 -18.127000 -41.912100
H -18.835100 -17.388000 -41.430700
C -18.717800 -20.342100 -43.060800
H -18.558500 -18.841900 -45.969800
N -18.411600 -23.785300 -43.965100
N -18.295000 -19.374400 -45.277600
C -18.142400 -19.100700 -42.350400
C -18.081600 -22.726200 -43.713100
H -17.638400 -19.384600 -41.571500
C -17.564500 -21.377800 -43.349000
H -17.532500 -18.644900 -42.950200
C -17.093400 -19.939900 -45.321400
C -16.775700 -21.595400 -42.108900
C -16.641100 -20.880000 -44.456500
N -16.152700 -21.789700 -41.181200
Cl -16.073700 -19.370700 -46.589100
C -15.339300 -21.414200 -44.569400
N -14.288700 -21.865800 -44.633000
