13
Fragment
F -10.707900 -14.268800 -23.120600
H -10.352600 -16.651000 -22.802000
C -9.829800 -14.263600 -22.088900
N -9.800000 -16.659500 -22.116300
H -9.668600 -12.293200 -21.878800
H -9.521900 -17.425800 -21.784600
C -9.390600 -15.522300 -21.585300
C -9.385000 -13.134800 -21.543100
N -8.551200 -15.550800 -20.543600
N -8.519900 -13.204200 -20.498100
H -8.209100 -12.458600 -20.150800
C -8.118300 -14.402000 -19.970900
O -7.341400 -14.416700 -18.989200
13
Fragment
F -14.975100 -14.387200 -23.077000
H -14.597700 -11.978300 -22.771600
C -14.062700 -14.378800 -22.074200
N -14.013800 -11.976100 -22.113100
H -13.927600 -16.356600 -21.832500
H -13.709100 -11.212800 -21.797400
C -13.618000 -15.513000 -21.521600
C -13.590700 -13.124600 -21.595500
N -12.716900 -15.438500 -20.506600
N -12.706500 -13.093400 -20.600000
H -12.422400 -16.184700 -20.144400
C -12.250800 -14.242200 -20.028100
O -11.424200 -14.219200 -19.103100
26
Fragment
F -10.707900 -14.268800 -23.120600
H -10.352600 -16.651000 -22.802000
C -9.829800 -14.263600 -22.088900
N -9.800000 -16.659500 -22.116300
H -9.668600 -12.293200 -21.878800
H -9.521900 -17.425800 -21.784600
C -9.390600 -15.522300 -21.585300
C -9.385000 -13.134800 -21.543100
N -8.551200 -15.550800 -20.543600
N -8.519900 -13.204200 -20.498100
H -8.209100 -12.458600 -20.150800
C -8.118300 -14.402000 -19.970900
O -7.341400 -14.416700 -18.989200
F -14.975100 -14.387200 -23.077000
H -14.597700 -11.978300 -22.771600
C -14.062700 -14.378800 -22.074200
N -14.013800 -11.976100 -22.113100
H -13.927600 -16.356600 -21.832500
H -13.709100 -11.212800 -21.797400
C -13.618000 -15.513000 -21.521600
C -13.590700 -13.124600 -21.595500
N -12.716900 -15.438500 -20.506600
N -12.706500 -13.093400 -20.600000
H -12.422400 -16.184700 -20.144400
C -12.250800 -14.242200 -20.028100
O -11.424200 -14.219200 -19.103100
