13
Fragment
F -10.707900 -14.268800 -23.120600
H -10.352600 -16.651000 -22.802000
C -9.829800 -14.263600 -22.088900
N -9.800000 -16.659500 -22.116300
H -9.668600 -12.293200 -21.878800
H -9.521900 -17.425800 -21.784600
C -9.390600 -15.522300 -21.585300
C -9.385000 -13.134800 -21.543100
N -8.551200 -15.550800 -20.543600
N -8.519900 -13.204200 -20.498100
H -8.209100 -12.458600 -20.150800
C -8.118300 -14.402000 -19.970900
O -7.341400 -14.416700 -18.989200
13
Fragment
O -8.614900 -9.771800 -20.938600
C -7.838000 -9.757100 -19.956900
H -7.747200 -7.813700 -19.777000
N -7.436400 -8.559300 -19.429700
N -7.405200 -10.905900 -19.384100
C -6.571300 -8.489900 -18.384700
C -6.565800 -10.877400 -18.342500
H -6.434400 -12.780900 -18.143200
H -6.287800 -7.648300 -18.049000
N -6.156300 -12.014600 -17.811500
C -6.126500 -9.618700 -17.838900
H -5.603700 -12.006100 -17.125800
F -5.248500 -9.623900 -16.807200
26
Fragment
F -10.707900 -14.268800 -23.120600
H -10.352600 -16.651000 -22.802000
C -9.829800 -14.263600 -22.088900
N -9.800000 -16.659500 -22.116300
H -9.668600 -12.293200 -21.878800
H -9.521900 -17.425800 -21.784600
C -9.390600 -15.522300 -21.585300
C -9.385000 -13.134800 -21.543100
N -8.551200 -15.550800 -20.543600
N -8.519900 -13.204200 -20.498100
H -8.209100 -12.458600 -20.150800
C -8.118300 -14.402000 -19.970900
O -7.341400 -14.416700 -18.989200
O -8.614900 -9.771800 -20.938600
C -7.838000 -9.757100 -19.956900
H -7.747200 -7.813700 -19.777000
N -7.436400 -8.559300 -19.429700
N -7.405200 -10.905900 -19.384100
C -6.571300 -8.489900 -18.384700
C -6.565800 -10.877400 -18.342500
H -6.434400 -12.780900 -18.143200
H -6.287800 -7.648300 -18.049000
N -6.156300 -12.014600 -17.811500
C -6.126500 -9.618700 -17.838900
H -5.603700 -12.006100 -17.125800
F -5.248500 -9.623900 -16.807200
