13
Fragment
F -10.707900 -14.268800 -23.120600
H -10.352600 -16.651000 -22.802000
C -9.829800 -14.263600 -22.088900
N -9.800000 -16.659500 -22.116300
H -9.668600 -12.293200 -21.878800
H -9.521900 -17.425800 -21.784600
C -9.390600 -15.522300 -21.585300
C -9.385000 -13.134800 -21.543100
N -8.551200 -15.550800 -20.543600
N -8.519900 -13.204200 -20.498100
H -8.209100 -12.458600 -20.150800
C -8.118300 -14.402000 -19.970900
O -7.341400 -14.416700 -18.989200
13
Fragment
O -12.980700 -18.864100 -20.824700
C -12.154200 -18.887100 -19.899700
H -11.982500 -20.829600 -19.783400
N -11.698400 -17.738300 -19.327800
N -11.688000 -20.083400 -19.421200
C -10.814200 -17.769500 -18.332300
C -10.786900 -20.157900 -18.406200
H -10.695900 -15.857700 -18.130400
H -10.477400 -21.001500 -18.095300
N -10.391200 -16.621000 -17.814700
C -10.342200 -19.023700 -17.853600
H -9.807200 -16.623200 -17.156200
F -9.429900 -19.032100 -16.850800
26
Fragment
F -10.707900 -14.268800 -23.120600
H -10.352600 -16.651000 -22.802000
C -9.829800 -14.263600 -22.088900
N -9.800000 -16.659500 -22.116300
H -9.668600 -12.293200 -21.878800
H -9.521900 -17.425800 -21.784600
C -9.390600 -15.522300 -21.585300
C -9.385000 -13.134800 -21.543100
N -8.551200 -15.550800 -20.543600
N -8.519900 -13.204200 -20.498100
H -8.209100 -12.458600 -20.150800
C -8.118300 -14.402000 -19.970900
O -7.341400 -14.416700 -18.989200
O -12.980700 -18.864100 -20.824700
C -12.154200 -18.887100 -19.899700
H -11.982500 -20.829600 -19.783400
N -11.698400 -17.738300 -19.327800
N -11.688000 -20.083400 -19.421200
C -10.814200 -17.769500 -18.332300
C -10.786900 -20.157900 -18.406200
H -10.695900 -15.857700 -18.130400
H -10.477400 -21.001500 -18.095300
N -10.391200 -16.621000 -17.814700
C -10.342200 -19.023700 -17.853600
H -9.807200 -16.623200 -17.156200
F -9.429900 -19.032100 -16.850800
