13
Fragment
F -10.707900 -14.268800 -23.120600
H -10.352600 -16.651000 -22.802000
C -9.829800 -14.263600 -22.088900
N -9.800000 -16.659500 -22.116300
H -9.668600 -12.293200 -21.878800
H -9.521900 -17.425800 -21.784600
C -9.390600 -15.522300 -21.585300
C -9.385000 -13.134800 -21.543100
N -8.551200 -15.550800 -20.543600
N -8.519900 -13.204200 -20.498100
H -8.209100 -12.458600 -20.150800
C -8.118300 -14.402000 -19.970900
O -7.341400 -14.416700 -18.989200
13
Fragment
O -16.172000 -13.650200 -28.810300
C -15.345400 -13.627200 -27.885300
H -15.173800 -11.684700 -27.769000
N -14.889700 -14.776000 -27.313300
N -14.879300 -12.430900 -27.406800
C -14.005500 -14.744800 -26.317800
C -13.978200 -12.356400 -26.391800
H -13.887100 -16.656600 -26.116000
H -13.668600 -11.512800 -26.080800
N -13.582400 -15.893300 -25.800200
C -13.533500 -13.490600 -25.839200
H -12.998500 -15.891100 -25.141700
F -12.621100 -13.482200 -24.836400
26
Fragment
F -10.707900 -14.268800 -23.120600
H -10.352600 -16.651000 -22.802000
C -9.829800 -14.263600 -22.088900
N -9.800000 -16.659500 -22.116300
H -9.668600 -12.293200 -21.878800
H -9.521900 -17.425800 -21.784600
C -9.390600 -15.522300 -21.585300
C -9.385000 -13.134800 -21.543100
N -8.551200 -15.550800 -20.543600
N -8.519900 -13.204200 -20.498100
H -8.209100 -12.458600 -20.150800
C -8.118300 -14.402000 -19.970900
O -7.341400 -14.416700 -18.989200
O -16.172000 -13.650200 -28.810300
C -15.345400 -13.627200 -27.885300
H -15.173800 -11.684700 -27.769000
N -14.889700 -14.776000 -27.313300
N -14.879300 -12.430900 -27.406800
C -14.005500 -14.744800 -26.317800
C -13.978200 -12.356400 -26.391800
H -13.887100 -16.656600 -26.116000
H -13.668600 -11.512800 -26.080800
N -13.582400 -15.893300 -25.800200
C -13.533500 -13.490600 -25.839200
H -12.998500 -15.891100 -25.141700
F -12.621100 -13.482200 -24.836400
