9
Fragment
F -14.020700 -15.724300 -9.386800
F -13.007500 -13.912100 -9.959600
C -12.825000 -15.205200 -9.686300
H -12.755800 -15.855500 -11.556700
C -12.180500 -15.927800 -10.828200
F -12.087700 -15.253700 -8.575600
H -12.079600 -16.832900 -10.584900
O -10.937500 -15.353500 -11.136500
H -10.372100 -15.710700 -10.682000
9
Fragment
F -12.694200 -17.845600 -13.436100
F -11.680900 -19.657800 -14.008900
C -11.498400 -18.364700 -13.735600
H -11.429200 -17.714400 -15.606000
C -10.854000 -17.642100 -14.877500
F -10.761100 -18.316200 -12.624900
H -10.753100 -16.737000 -14.634100
O -9.611000 -18.216400 -15.185800
H -9.045500 -17.859200 -14.731300
18
Fragment
F -14.020700 -15.724300 -9.386800
F -13.007500 -13.912100 -9.959600
C -12.825000 -15.205200 -9.686300
H -12.755800 -15.855500 -11.556700
C -12.180500 -15.927800 -10.828200
F -12.087700 -15.253700 -8.575600
H -12.079600 -16.832900 -10.584900
O -10.937500 -15.353500 -11.136500
H -10.372100 -15.710700 -10.682000
F -12.694200 -17.845600 -13.436100
F -11.680900 -19.657800 -14.008900
C -11.498400 -18.364700 -13.735600
H -11.429200 -17.714400 -15.606000
C -10.854000 -17.642100 -14.877500
F -10.761100 -18.316200 -12.624900
H -10.753100 -16.737000 -14.634100
O -9.611000 -18.216400 -15.185800
H -9.045500 -17.859200 -14.731300
