13
Fragment
F -10.707900 -14.268800 -23.120600
H -10.352600 -16.651000 -22.802000
C -9.829800 -14.263600 -22.088900
N -9.800000 -16.659500 -22.116300
H -9.668600 -12.293200 -21.878800
H -9.521900 -17.425800 -21.784600
C -9.390600 -15.522300 -21.585300
C -9.385000 -13.134800 -21.543100
N -8.551200 -15.550800 -20.543600
N -8.519900 -13.204200 -20.498100
H -8.209100 -12.458600 -20.150800
C -8.118300 -14.402000 -19.970900
O -7.341400 -14.416700 -18.989200
6
Fragment
H -12.552300 -18.941900 -24.653000
H -12.313200 -18.484800 -23.137400
C -11.887600 -18.614900 -24.010700
O -11.359300 -17.388700 -24.463900
H -11.164400 -19.270800 -23.926300
H -11.056000 -17.485300 -25.240800
19
Fragment
F -10.707900 -14.268800 -23.120600
H -10.352600 -16.651000 -22.802000
C -9.829800 -14.263600 -22.088900
N -9.800000 -16.659500 -22.116300
H -9.668600 -12.293200 -21.878800
H -9.521900 -17.425800 -21.784600
C -9.390600 -15.522300 -21.585300
C -9.385000 -13.134800 -21.543100
N -8.551200 -15.550800 -20.543600
N -8.519900 -13.204200 -20.498100
H -8.209100 -12.458600 -20.150800
C -8.118300 -14.402000 -19.970900
O -7.341400 -14.416700 -18.989200
H -12.552300 -18.941900 -24.653000
H -12.313200 -18.484800 -23.137400
C -11.887600 -18.614900 -24.010700
O -11.359300 -17.388700 -24.463900
H -11.164400 -19.270800 -23.926300
H -11.056000 -17.485300 -25.240800
