13
Fragment
F -10.707900 -14.268800 -23.120600
H -10.352600 -16.651000 -22.802000
C -9.829800 -14.263600 -22.088900
N -9.800000 -16.659500 -22.116300
H -9.668600 -12.293200 -21.878800
H -9.521900 -17.425800 -21.784600
C -9.390600 -15.522300 -21.585300
C -9.385000 -13.134800 -21.543100
N -8.551200 -15.550800 -20.543600
N -8.519900 -13.204200 -20.498100
H -8.209100 -12.458600 -20.150800
C -8.118300 -14.402000 -19.970900
O -7.341400 -14.416700 -18.989200
6
Fragment
H -8.091600 -10.384100 -22.672600
H -7.983200 -8.598600 -23.987000
O -7.788300 -10.480700 -23.449400
C -7.260000 -9.254500 -23.902700
H -6.834400 -9.384600 -24.776000
H -6.595300 -8.927500 -23.260300
19
Fragment
F -10.707900 -14.268800 -23.120600
H -10.352600 -16.651000 -22.802000
C -9.829800 -14.263600 -22.088900
N -9.800000 -16.659500 -22.116300
H -9.668600 -12.293200 -21.878800
H -9.521900 -17.425800 -21.784600
C -9.390600 -15.522300 -21.585300
C -9.385000 -13.134800 -21.543100
N -8.551200 -15.550800 -20.543600
N -8.519900 -13.204200 -20.498100
H -8.209100 -12.458600 -20.150800
C -8.118300 -14.402000 -19.970900
O -7.341400 -14.416700 -18.989200
H -8.091600 -10.384100 -22.672600
H -7.983200 -8.598600 -23.987000
O -7.788300 -10.480700 -23.449400
C -7.260000 -9.254500 -23.902700
H -6.834400 -9.384600 -24.776000
H -6.595300 -8.927500 -23.260300
