9
Fragment
F -14.020700 -15.724300 -9.386800
F -13.007500 -13.912100 -9.959600
C -12.825000 -15.205200 -9.686300
H -12.755800 -15.855500 -11.556700
C -12.180500 -15.927800 -10.828200
F -12.087700 -15.253700 -8.575600
H -12.079600 -16.832900 -10.584900
O -10.937500 -15.353500 -11.136500
H -10.372100 -15.710700 -10.682000
13
Fragment
F -11.543600 -21.399900 -8.290600
H -11.079500 -19.027400 -8.625000
N -10.337800 -19.054500 -9.056000
C -10.337200 -21.440400 -8.891700
H -10.066000 -23.429900 -8.924600
H -9.915700 -18.299400 -9.240500
C -9.720600 -20.207400 -9.257000
C -9.709400 -22.594100 -9.135000
N -8.501900 -20.213200 -9.809700
N -8.472500 -22.565000 -9.707400
H -8.054500 -23.297500 -9.888400
C -7.848400 -21.381400 -10.009800
O -6.684700 -21.409800 -10.477800
22
Fragment
F -14.020700 -15.724300 -9.386800
F -13.007500 -13.912100 -9.959600
C -12.825000 -15.205200 -9.686300
H -12.755800 -15.855500 -11.556700
C -12.180500 -15.927800 -10.828200
F -12.087700 -15.253700 -8.575600
H -12.079600 -16.832900 -10.584900
O -10.937500 -15.353500 -11.136500
H -10.372100 -15.710700 -10.682000
F -11.543600 -21.399900 -8.290600
H -11.079500 -19.027400 -8.625000
N -10.337800 -19.054500 -9.056000
C -10.337200 -21.440400 -8.891700
H -10.066000 -23.429900 -8.924600
H -9.915700 -18.299400 -9.240500
C -9.720600 -20.207400 -9.257000
C -9.709400 -22.594100 -9.135000
N -8.501900 -20.213200 -9.809700
N -8.472500 -22.565000 -9.707400
H -8.054500 -23.297500 -9.888400
C -7.848400 -21.381400 -10.009800
O -6.684700 -21.409800 -10.477800
