9
Fragment
F -14.020700 -15.724300 -9.386800
F -13.007500 -13.912100 -9.959600
C -12.825000 -15.205200 -9.686300
H -12.755800 -15.855500 -11.556700
C -12.180500 -15.927800 -10.828200
F -12.087700 -15.253700 -8.575600
H -12.079600 -16.832900 -10.584900
O -10.937500 -15.353500 -11.136500
H -10.372100 -15.710700 -10.682000
9
Fragment
F -15.347300 -17.845600 -5.337500
F -14.334100 -19.657800 -5.910300
C -14.151500 -18.364700 -5.637000
H -14.082300 -17.714400 -7.507400
C -13.507100 -17.642100 -6.778900
F -13.414200 -18.316200 -4.526300
H -13.406200 -16.737000 -6.535600
O -12.264100 -18.216400 -7.087200
H -11.698700 -17.859200 -6.632700
18
Fragment
F -14.020700 -15.724300 -9.386800
F -13.007500 -13.912100 -9.959600
C -12.825000 -15.205200 -9.686300
H -12.755800 -15.855500 -11.556700
C -12.180500 -15.927800 -10.828200
F -12.087700 -15.253700 -8.575600
H -12.079600 -16.832900 -10.584900
O -10.937500 -15.353500 -11.136500
H -10.372100 -15.710700 -10.682000
F -15.347300 -17.845600 -5.337500
F -14.334100 -19.657800 -5.910300
C -14.151500 -18.364700 -5.637000
H -14.082300 -17.714400 -7.507400
C -13.507100 -17.642100 -6.778900
F -13.414200 -18.316200 -4.526300
H -13.406200 -16.737000 -6.535600
O -12.264100 -18.216400 -7.087200
H -11.698700 -17.859200 -6.632700
