9
Fragment
F -14.020700 -15.724300 -9.386800
F -13.007500 -13.912100 -9.959600
C -12.825000 -15.205200 -9.686300
H -12.755800 -15.855500 -11.556700
C -12.180500 -15.927800 -10.828200
F -12.087700 -15.253700 -8.575600
H -12.079600 -16.832900 -10.584900
O -10.937500 -15.353500 -11.136500
H -10.372100 -15.710700 -10.682000
13
Fragment
O -20.129500 -16.614100 -9.768700
C -18.965800 -16.585700 -10.236700
H -18.759700 -18.501800 -10.358100
N -18.341600 -17.769300 -10.539100
N -18.312300 -15.417500 -10.436800
C -17.104800 -17.798400 -11.111500
C -17.093600 -15.411700 -10.989500
H -16.898500 -13.503700 -11.006000
H -16.748200 -18.634200 -11.321800
C -16.477000 -16.644700 -11.354800
N -16.476400 -14.258800 -11.190500
H -15.734700 -14.231700 -11.621500
F -15.270500 -16.604200 -11.955900
22
Fragment
F -14.020700 -15.724300 -9.386800
F -13.007500 -13.912100 -9.959600
C -12.825000 -15.205200 -9.686300
H -12.755800 -15.855500 -11.556700
C -12.180500 -15.927800 -10.828200
F -12.087700 -15.253700 -8.575600
H -12.079600 -16.832900 -10.584900
O -10.937500 -15.353500 -11.136500
H -10.372100 -15.710700 -10.682000
O -20.129500 -16.614100 -9.768700
C -18.965800 -16.585700 -10.236700
H -18.759700 -18.501800 -10.358100
N -18.341600 -17.769300 -10.539100
N -18.312300 -15.417500 -10.436800
C -17.104800 -17.798400 -11.111500
C -17.093600 -15.411700 -10.989500
H -16.898500 -13.503700 -11.006000
H -16.748200 -18.634200 -11.321800
C -16.477000 -16.644700 -11.354800
N -16.476400 -14.258800 -11.190500
H -15.734700 -14.231700 -11.621500
F -15.270500 -16.604200 -11.955900
