25
Fragment
N -15.829300 -31.219300 -21.975200
N -15.829300 -29.817200 -21.975200
H -15.787300 -33.894400 -22.089000
H -15.787300 -27.142100 -22.089000
C -14.896300 -34.012000 -21.848900
C -14.896300 -27.024500 -21.848900
H -14.878000 -35.987100 -22.052100
H -14.878000 -25.049400 -22.052100
C -14.640600 -31.577100 -21.630500
C -14.640600 -29.459400 -21.630500
C -14.343000 -35.265100 -21.814500
C -14.343000 -25.771400 -21.814500
C -14.107000 -32.928000 -21.521500
C -14.107000 -28.108500 -21.521500
O -13.831000 -30.518200 -21.376000
N -13.082400 -35.506200 -21.459000
N -13.082400 -25.530300 -21.459000
C -12.798900 -33.163900 -21.136400
C -12.798900 -27.872600 -21.136400
C -12.341900 -34.459800 -21.109100
C -12.341900 -26.576700 -21.109100
H -12.240200 -32.459200 -20.900900
H -12.240200 -28.577300 -20.900900
H -11.467900 -34.612900 -20.831000
H -11.467900 -26.423600 -20.831000
13
Fragment
H -11.284100 -30.518200 -18.278100
H -10.890800 -30.518200 -19.789300
C -10.530700 -30.518200 -18.889200
O -10.269100 -32.871600 -18.936100
O -10.269100 -28.164900 -18.936100
C -9.784200 -31.786400 -18.694900
C -9.784200 -29.250100 -18.694900
N -8.497800 -31.685800 -18.241800
N -8.497800 -29.350700 -18.241800
H -8.021800 -32.501100 -18.110600
H -8.021800 -28.535400 -18.110600
C -7.844100 -30.518200 -17.947500
O -6.727300 -30.518200 -17.475800
38
Fragment
N -15.829300 -31.219300 -21.975200
N -15.829300 -29.817200 -21.975200
H -15.787300 -33.894400 -22.089000
H -15.787300 -27.142100 -22.089000
C -14.896300 -34.012000 -21.848900
C -14.896300 -27.024500 -21.848900
H -14.878000 -35.987100 -22.052100
H -14.878000 -25.049400 -22.052100
C -14.640600 -31.577100 -21.630500
C -14.640600 -29.459400 -21.630500
C -14.343000 -35.265100 -21.814500
C -14.343000 -25.771400 -21.814500
C -14.107000 -32.928000 -21.521500
C -14.107000 -28.108500 -21.521500
O -13.831000 -30.518200 -21.376000
N -13.082400 -35.506200 -21.459000
N -13.082400 -25.530300 -21.459000
C -12.798900 -33.163900 -21.136400
C -12.798900 -27.872600 -21.136400
C -12.341900 -34.459800 -21.109100
C -12.341900 -26.576700 -21.109100
H -12.240200 -32.459200 -20.900900
H -12.240200 -28.577300 -20.900900
H -11.467900 -34.612900 -20.831000
H -11.467900 -26.423600 -20.831000
H -11.284100 -30.518200 -18.278100
H -10.890800 -30.518200 -19.789300
C -10.530700 -30.518200 -18.889200
O -10.269100 -32.871600 -18.936100
O -10.269100 -28.164900 -18.936100
C -9.784200 -31.786400 -18.694900
C -9.784200 -29.250100 -18.694900
N -8.497800 -31.685800 -18.241800
N -8.497800 -29.350700 -18.241800
H -8.021800 -32.501100 -18.110600
H -8.021800 -28.535400 -18.110600
C -7.844100 -30.518200 -17.947500
O -6.727300 -30.518200 -17.475800
