25
Fragment
N -15.829300 -31.219300 -21.975200
N -15.829300 -29.817200 -21.975200
H -15.787300 -33.894400 -22.089000
H -15.787300 -27.142100 -22.089000
C -14.896300 -34.012000 -21.848900
C -14.896300 -27.024500 -21.848900
H -14.878000 -35.987100 -22.052100
H -14.878000 -25.049400 -22.052100
C -14.640600 -31.577100 -21.630500
C -14.640600 -29.459400 -21.630500
C -14.343000 -35.265100 -21.814500
C -14.343000 -25.771400 -21.814500
C -14.107000 -32.928000 -21.521500
C -14.107000 -28.108500 -21.521500
O -13.831000 -30.518200 -21.376000
N -13.082400 -35.506200 -21.459000
N -13.082400 -25.530300 -21.459000
C -12.798900 -33.163900 -21.136400
C -12.798900 -27.872600 -21.136400
C -12.341900 -34.459800 -21.109100
C -12.341900 -26.576700 -21.109100
H -12.240200 -32.459200 -20.900900
H -12.240200 -28.577300 -20.900900
H -11.467900 -34.612900 -20.831000
H -11.467900 -26.423600 -20.831000
25
Fragment
N -19.219800 -31.219300 -24.178200
N -19.219800 -29.817200 -24.178200
H -19.177700 -33.894400 -24.064400
H -19.177700 -27.142100 -24.064400
C -18.286700 -34.012000 -24.304500
C -18.286700 -27.024500 -24.304500
H -18.268400 -35.987100 -24.101300
H -18.268400 -25.049400 -24.101300
C -18.031100 -31.577100 -24.522900
C -18.031100 -29.459400 -24.522900
C -17.733400 -35.265100 -24.339000
C -17.733400 -25.771400 -24.339000
C -17.497400 -32.928000 -24.632000
C -17.497400 -28.108500 -24.632000
O -17.221500 -30.518200 -24.777400
N -16.472800 -35.506200 -24.694500
N -16.472800 -25.530300 -24.694500
C -16.189400 -33.163900 -25.017000
C -16.189400 -27.872600 -25.017000
C -15.732400 -34.459800 -25.044300
C -15.732400 -26.576700 -25.044300
H -15.630700 -32.459200 -25.252500
H -15.630700 -28.577300 -25.252500
H -14.858300 -34.612900 -25.322400
H -14.858300 -26.423600 -25.322400
50
Fragment
N -15.829300 -31.219300 -21.975200
N -15.829300 -29.817200 -21.975200
H -15.787300 -33.894400 -22.089000
H -15.787300 -27.142100 -22.089000
C -14.896300 -34.012000 -21.848900
C -14.896300 -27.024500 -21.848900
H -14.878000 -35.987100 -22.052100
H -14.878000 -25.049400 -22.052100
C -14.640600 -31.577100 -21.630500
C -14.640600 -29.459400 -21.630500
C -14.343000 -35.265100 -21.814500
C -14.343000 -25.771400 -21.814500
C -14.107000 -32.928000 -21.521500
C -14.107000 -28.108500 -21.521500
O -13.831000 -30.518200 -21.376000
N -13.082400 -35.506200 -21.459000
N -13.082400 -25.530300 -21.459000
C -12.798900 -33.163900 -21.136400
C -12.798900 -27.872600 -21.136400
C -12.341900 -34.459800 -21.109100
C -12.341900 -26.576700 -21.109100
H -12.240200 -32.459200 -20.900900
H -12.240200 -28.577300 -20.900900
H -11.467900 -34.612900 -20.831000
H -11.467900 -26.423600 -20.831000
N -19.219800 -31.219300 -24.178200
N -19.219800 -29.817200 -24.178200
H -19.177700 -33.894400 -24.064400
H -19.177700 -27.142100 -24.064400
C -18.286700 -34.012000 -24.304500
C -18.286700 -27.024500 -24.304500
H -18.268400 -35.987100 -24.101300
H -18.268400 -25.049400 -24.101300
C -18.031100 -31.577100 -24.522900
C -18.031100 -29.459400 -24.522900
C -17.733400 -35.265100 -24.339000
C -17.733400 -25.771400 -24.339000
C -17.497400 -32.928000 -24.632000
C -17.497400 -28.108500 -24.632000
O -17.221500 -30.518200 -24.777400
N -16.472800 -35.506200 -24.694500
N -16.472800 -25.530300 -24.694500
C -16.189400 -33.163900 -25.017000
C -16.189400 -27.872600 -25.017000
C -15.732400 -34.459800 -25.044300
C -15.732400 -26.576700 -25.044300
H -15.630700 -32.459200 -25.252500
H -15.630700 -28.577300 -25.252500
H -14.858300 -34.612900 -25.322400
H -14.858300 -26.423600 -25.322400
