25
Fragment
N -15.829300 -31.219300 -21.975200
N -15.829300 -29.817200 -21.975200
H -15.787300 -33.894400 -22.089000
H -15.787300 -27.142100 -22.089000
C -14.896300 -34.012000 -21.848900
C -14.896300 -27.024500 -21.848900
H -14.878000 -35.987100 -22.052100
H -14.878000 -25.049400 -22.052100
C -14.640600 -31.577100 -21.630500
C -14.640600 -29.459400 -21.630500
C -14.343000 -35.265100 -21.814500
C -14.343000 -25.771400 -21.814500
C -14.107000 -32.928000 -21.521500
C -14.107000 -28.108500 -21.521500
O -13.831000 -30.518200 -21.376000
N -13.082400 -35.506200 -21.459000
N -13.082400 -25.530300 -21.459000
C -12.798900 -33.163900 -21.136400
C -12.798900 -27.872600 -21.136400
C -12.341900 -34.459800 -21.109100
C -12.341900 -26.576700 -21.109100
H -12.240200 -32.459200 -20.900900
H -12.240200 -28.577300 -20.900900
H -11.467900 -34.612900 -20.831000
H -11.467900 -26.423600 -20.831000
25
Fragment
N -22.610200 -31.219300 -21.975200
N -22.610200 -29.817200 -21.975200
H -22.568200 -33.894400 -22.089000
H -22.568200 -27.142100 -22.089000
C -21.677200 -34.012000 -21.848900
C -21.677200 -27.024500 -21.848900
H -21.658900 -35.987100 -22.052100
H -21.658900 -25.049400 -22.052100
C -21.421500 -31.577100 -21.630500
C -21.421500 -29.459400 -21.630500
C -21.123900 -35.265100 -21.814500
C -21.123900 -25.771400 -21.814500
C -20.887900 -32.928000 -21.521500
C -20.887900 -28.108500 -21.521500
O -20.611900 -30.518200 -21.376000
N -19.863300 -35.506200 -21.459000
N -19.863300 -25.530300 -21.459000
C -19.579800 -33.163900 -21.136400
C -19.579800 -27.872600 -21.136400
C -19.122800 -34.459800 -21.109100
C -19.122800 -26.576700 -21.109100
H -19.021100 -32.459200 -20.900900
H -19.021100 -28.577300 -20.900900
H -18.248800 -34.612900 -20.831000
H -18.248800 -26.423600 -20.831000
50
Fragment
N -15.829300 -31.219300 -21.975200
N -15.829300 -29.817200 -21.975200
H -15.787300 -33.894400 -22.089000
H -15.787300 -27.142100 -22.089000
C -14.896300 -34.012000 -21.848900
C -14.896300 -27.024500 -21.848900
H -14.878000 -35.987100 -22.052100
H -14.878000 -25.049400 -22.052100
C -14.640600 -31.577100 -21.630500
C -14.640600 -29.459400 -21.630500
C -14.343000 -35.265100 -21.814500
C -14.343000 -25.771400 -21.814500
C -14.107000 -32.928000 -21.521500
C -14.107000 -28.108500 -21.521500
O -13.831000 -30.518200 -21.376000
N -13.082400 -35.506200 -21.459000
N -13.082400 -25.530300 -21.459000
C -12.798900 -33.163900 -21.136400
C -12.798900 -27.872600 -21.136400
C -12.341900 -34.459800 -21.109100
C -12.341900 -26.576700 -21.109100
H -12.240200 -32.459200 -20.900900
H -12.240200 -28.577300 -20.900900
H -11.467900 -34.612900 -20.831000
H -11.467900 -26.423600 -20.831000
N -22.610200 -31.219300 -21.975200
N -22.610200 -29.817200 -21.975200
H -22.568200 -33.894400 -22.089000
H -22.568200 -27.142100 -22.089000
C -21.677200 -34.012000 -21.848900
C -21.677200 -27.024500 -21.848900
H -21.658900 -35.987100 -22.052100
H -21.658900 -25.049400 -22.052100
C -21.421500 -31.577100 -21.630500
C -21.421500 -29.459400 -21.630500
C -21.123900 -35.265100 -21.814500
C -21.123900 -25.771400 -21.814500
C -20.887900 -32.928000 -21.521500
C -20.887900 -28.108500 -21.521500
O -20.611900 -30.518200 -21.376000
N -19.863300 -35.506200 -21.459000
N -19.863300 -25.530300 -21.459000
C -19.579800 -33.163900 -21.136400
C -19.579800 -27.872600 -21.136400
C -19.122800 -34.459800 -21.109100
C -19.122800 -26.576700 -21.109100
H -19.021100 -32.459200 -20.900900
H -19.021100 -28.577300 -20.900900
H -18.248800 -34.612900 -20.831000
H -18.248800 -26.423600 -20.831000
