25
Fragment
N -15.829300 -31.219300 -21.975200
N -15.829300 -29.817200 -21.975200
H -15.787300 -33.894400 -22.089000
H -15.787300 -27.142100 -22.089000
C -14.896300 -34.012000 -21.848900
C -14.896300 -27.024500 -21.848900
H -14.878000 -35.987100 -22.052100
H -14.878000 -25.049400 -22.052100
C -14.640600 -31.577100 -21.630500
C -14.640600 -29.459400 -21.630500
C -14.343000 -35.265100 -21.814500
C -14.343000 -25.771400 -21.814500
C -14.107000 -32.928000 -21.521500
C -14.107000 -28.108500 -21.521500
O -13.831000 -30.518200 -21.376000
N -13.082400 -35.506200 -21.459000
N -13.082400 -25.530300 -21.459000
C -12.798900 -33.163900 -21.136400
C -12.798900 -27.872600 -21.136400
C -12.341900 -34.459800 -21.109100
C -12.341900 -26.576700 -21.109100
H -12.240200 -32.459200 -20.900900
H -12.240200 -28.577300 -20.900900
H -11.467900 -34.612900 -20.831000
H -11.467900 -26.423600 -20.831000
25
Fragment
N -9.048400 -31.219300 -21.975200
N -9.048400 -29.817200 -21.975200
H -9.006400 -33.894400 -22.089000
H -9.006400 -27.142100 -22.089000
C -8.115400 -34.012000 -21.848900
C -8.115400 -27.024500 -21.848900
H -8.097100 -35.987100 -22.052100
H -8.097100 -25.049400 -22.052100
C -7.859700 -31.577100 -21.630500
C -7.859700 -29.459400 -21.630500
C -7.562100 -35.265100 -21.814500
C -7.562100 -25.771400 -21.814500
C -7.326100 -32.928000 -21.521500
C -7.326100 -28.108500 -21.521500
O -7.050100 -30.518200 -21.376000
N -6.301500 -35.506200 -21.459000
N -6.301500 -25.530300 -21.459000
C -6.018000 -33.163900 -21.136400
C -6.018000 -27.872600 -21.136400
C -5.561000 -34.459800 -21.109100
C -5.561000 -26.576700 -21.109100
H -5.459300 -32.459200 -20.900900
H -5.459300 -28.577300 -20.900900
H -4.687000 -34.612900 -20.831000
H -4.687000 -26.423600 -20.831000
50
Fragment
N -15.829300 -31.219300 -21.975200
N -15.829300 -29.817200 -21.975200
H -15.787300 -33.894400 -22.089000
H -15.787300 -27.142100 -22.089000
C -14.896300 -34.012000 -21.848900
C -14.896300 -27.024500 -21.848900
H -14.878000 -35.987100 -22.052100
H -14.878000 -25.049400 -22.052100
C -14.640600 -31.577100 -21.630500
C -14.640600 -29.459400 -21.630500
C -14.343000 -35.265100 -21.814500
C -14.343000 -25.771400 -21.814500
C -14.107000 -32.928000 -21.521500
C -14.107000 -28.108500 -21.521500
O -13.831000 -30.518200 -21.376000
N -13.082400 -35.506200 -21.459000
N -13.082400 -25.530300 -21.459000
C -12.798900 -33.163900 -21.136400
C -12.798900 -27.872600 -21.136400
C -12.341900 -34.459800 -21.109100
C -12.341900 -26.576700 -21.109100
H -12.240200 -32.459200 -20.900900
H -12.240200 -28.577300 -20.900900
H -11.467900 -34.612900 -20.831000
H -11.467900 -26.423600 -20.831000
N -9.048400 -31.219300 -21.975200
N -9.048400 -29.817200 -21.975200
H -9.006400 -33.894400 -22.089000
H -9.006400 -27.142100 -22.089000
C -8.115400 -34.012000 -21.848900
C -8.115400 -27.024500 -21.848900
H -8.097100 -35.987100 -22.052100
H -8.097100 -25.049400 -22.052100
C -7.859700 -31.577100 -21.630500
C -7.859700 -29.459400 -21.630500
C -7.562100 -35.265100 -21.814500
C -7.562100 -25.771400 -21.814500
C -7.326100 -32.928000 -21.521500
C -7.326100 -28.108500 -21.521500
O -7.050100 -30.518200 -21.376000
N -6.301500 -35.506200 -21.459000
N -6.301500 -25.530300 -21.459000
C -6.018000 -33.163900 -21.136400
C -6.018000 -27.872600 -21.136400
C -5.561000 -34.459800 -21.109100
C -5.561000 -26.576700 -21.109100
H -5.459300 -32.459200 -20.900900
H -5.459300 -28.577300 -20.900900
H -4.687000 -34.612900 -20.831000
H -4.687000 -26.423600 -20.831000
