27
Fragment
H -17.417200 -16.863800 -9.926200
N -16.605400 -16.603600 -10.176100
N -16.019200 -15.552900 -9.647900
N -15.903100 -17.205800 -11.127300
N -15.044300 -20.854200 -13.081800
N -14.854900 -15.439600 -10.262700
C -14.814000 -16.449000 -11.153700
N -14.751000 -19.712700 -12.402800
N -14.588100 -20.800000 -14.292700
C -14.071800 -18.969600 -13.261400
N -13.969700 -19.622400 -14.424000
C -13.689700 -16.660300 -12.059900
H -13.659800 -19.390600 -15.220200
C -13.402100 -17.707000 -12.978200
N -12.711300 -15.776300 -12.103100
N -12.246200 -17.459700 -13.577700
N -11.891400 -16.269700 -13.057500
O -11.125500 -13.598900 -12.962500
C -10.546600 -15.847200 -13.060900
N -10.453300 -14.453400 -12.430900
O -10.264000 -17.446500 -11.371400
O -9.993900 -16.754400 -15.137200
N -9.861800 -15.782300 -14.436000
O -9.702300 -14.350500 -11.484200
N -9.669000 -16.818600 -12.218500
O -9.199300 -14.781200 -14.641000
O -8.484900 -16.849000 -12.494000
27
Fragment
O -12.325400 -10.806800 -14.189400
O -11.610900 -8.739000 -12.042400
N -11.141300 -10.776400 -14.464900
O -11.108000 -8.308300 -15.199200
N -10.948500 -9.740100 -12.247400
O -10.816400 -10.712200 -11.546200
O -10.546300 -11.404300 -15.312000
N -10.356900 -8.411200 -14.252500
C -10.263700 -9.805000 -13.622500
O -9.684800 -7.556700 -13.720900
N -8.918900 -10.227500 -13.625900
N -8.564100 -11.417500 -13.105700
N -8.099000 -9.734100 -14.580300
C -7.408200 -11.664800 -13.705200
H -7.150400 -13.348400 -11.463200
C -7.120600 -10.618100 -14.623500
N -6.840600 -13.580200 -12.259400
C -6.738400 -12.927400 -13.422000
N -6.222200 -14.757800 -12.390700
N -6.059200 -13.670500 -14.280600
C -5.996300 -10.406800 -15.529700
N -5.955400 -9.397400 -16.420800
N -5.766000 -14.812000 -13.601600
N -4.907200 -11.163600 -15.556100
N -4.791000 -9.510700 -17.035500
N -4.204900 -10.561400 -16.507300
H -3.393000 -10.821600 -16.757200
54
Fragment
H -17.417200 -16.863800 -9.926200
N -16.605400 -16.603600 -10.176100
N -16.019200 -15.552900 -9.647900
N -15.903100 -17.205800 -11.127300
N -15.044300 -20.854200 -13.081800
N -14.854900 -15.439600 -10.262700
C -14.814000 -16.449000 -11.153700
N -14.751000 -19.712700 -12.402800
N -14.588100 -20.800000 -14.292700
C -14.071800 -18.969600 -13.261400
N -13.969700 -19.622400 -14.424000
C -13.689700 -16.660300 -12.059900
H -13.659800 -19.390600 -15.220200
C -13.402100 -17.707000 -12.978200
N -12.711300 -15.776300 -12.103100
N -12.246200 -17.459700 -13.577700
N -11.891400 -16.269700 -13.057500
O -11.125500 -13.598900 -12.962500
C -10.546600 -15.847200 -13.060900
N -10.453300 -14.453400 -12.430900
O -10.264000 -17.446500 -11.371400
O -9.993900 -16.754400 -15.137200
N -9.861800 -15.782300 -14.436000
O -9.702300 -14.350500 -11.484200
N -9.669000 -16.818600 -12.218500
O -9.199300 -14.781200 -14.641000
O -8.484900 -16.849000 -12.494000
O -12.325400 -10.806800 -14.189400
O -11.610900 -8.739000 -12.042400
N -11.141300 -10.776400 -14.464900
O -11.108000 -8.308300 -15.199200
N -10.948500 -9.740100 -12.247400
O -10.816400 -10.712200 -11.546200
O -10.546300 -11.404300 -15.312000
N -10.356900 -8.411200 -14.252500
C -10.263700 -9.805000 -13.622500
O -9.684800 -7.556700 -13.720900
N -8.918900 -10.227500 -13.625900
N -8.564100 -11.417500 -13.105700
N -8.099000 -9.734100 -14.580300
C -7.408200 -11.664800 -13.705200
H -7.150400 -13.348400 -11.463200
C -7.120600 -10.618100 -14.623500
N -6.840600 -13.580200 -12.259400
C -6.738400 -12.927400 -13.422000
N -6.222200 -14.757800 -12.390700
N -6.059200 -13.670500 -14.280600
C -5.996300 -10.406800 -15.529700
N -5.955400 -9.397400 -16.420800
N -5.766000 -14.812000 -13.601600
N -4.907200 -11.163600 -15.556100
N -4.791000 -9.510700 -17.035500
N -4.204900 -10.561400 -16.507300
H -3.393000 -10.821600 -16.757200
