27
Fragment
H -17.417200 -16.863800 -9.926200
N -16.605400 -16.603600 -10.176100
N -16.019200 -15.552900 -9.647900
N -15.903100 -17.205800 -11.127300
N -15.044300 -20.854200 -13.081800
N -14.854900 -15.439600 -10.262700
C -14.814000 -16.449000 -11.153700
N -14.751000 -19.712700 -12.402800
N -14.588100 -20.800000 -14.292700
C -14.071800 -18.969600 -13.261400
N -13.969700 -19.622400 -14.424000
C -13.689700 -16.660300 -12.059900
H -13.659800 -19.390600 -15.220200
C -13.402100 -17.707000 -12.978200
N -12.711300 -15.776300 -12.103100
N -12.246200 -17.459700 -13.577700
N -11.891400 -16.269700 -13.057500
O -11.125500 -13.598900 -12.962500
C -10.546600 -15.847200 -13.060900
N -10.453300 -14.453400 -12.430900
O -10.264000 -17.446500 -11.371400
O -9.993900 -16.754400 -15.137200
N -9.861800 -15.782300 -14.436000
O -9.702300 -14.350500 -11.484200
N -9.669000 -16.818600 -12.218500
O -9.199300 -14.781200 -14.641000
O -8.484900 -16.849000 -12.494000
27
Fragment
H -19.770900 -13.347200 -4.589500
N -18.959100 -13.607400 -4.839400
N -18.372900 -14.658100 -4.311200
N -18.256800 -13.005200 -5.790600
N -17.397900 -9.356800 -7.745100
N -17.208500 -14.771400 -4.926000
C -17.167600 -13.762000 -5.817000
N -17.104700 -10.498300 -7.066100
N -16.941700 -9.411000 -8.956000
C -16.425500 -11.241400 -7.924800
N -16.323400 -10.588600 -9.087300
C -16.043300 -13.550700 -6.723300
H -16.013500 -10.820400 -9.883500
C -15.755700 -12.504000 -7.641500
N -15.065000 -14.434700 -6.766400
N -14.599900 -12.751300 -8.241000
N -14.245000 -13.941300 -7.720800
O -13.479100 -16.612100 -7.625800
C -12.900200 -14.363800 -7.724200
N -12.807000 -15.757600 -7.094300
O -12.617600 -12.764500 -6.034700
O -12.347500 -13.456600 -9.800500
N -12.215400 -14.428700 -9.099400
O -12.055900 -15.860500 -6.147500
N -12.022700 -13.392400 -6.881900
O -11.553000 -15.429800 -9.304300
O -10.838600 -13.362000 -7.157300
54
Fragment
H -17.417200 -16.863800 -9.926200
N -16.605400 -16.603600 -10.176100
N -16.019200 -15.552900 -9.647900
N -15.903100 -17.205800 -11.127300
N -15.044300 -20.854200 -13.081800
N -14.854900 -15.439600 -10.262700
C -14.814000 -16.449000 -11.153700
N -14.751000 -19.712700 -12.402800
N -14.588100 -20.800000 -14.292700
C -14.071800 -18.969600 -13.261400
N -13.969700 -19.622400 -14.424000
C -13.689700 -16.660300 -12.059900
H -13.659800 -19.390600 -15.220200
C -13.402100 -17.707000 -12.978200
N -12.711300 -15.776300 -12.103100
N -12.246200 -17.459700 -13.577700
N -11.891400 -16.269700 -13.057500
O -11.125500 -13.598900 -12.962500
C -10.546600 -15.847200 -13.060900
N -10.453300 -14.453400 -12.430900
O -10.264000 -17.446500 -11.371400
O -9.993900 -16.754400 -15.137200
N -9.861800 -15.782300 -14.436000
O -9.702300 -14.350500 -11.484200
N -9.669000 -16.818600 -12.218500
O -9.199300 -14.781200 -14.641000
O -8.484900 -16.849000 -12.494000
H -19.770900 -13.347200 -4.589500
N -18.959100 -13.607400 -4.839400
N -18.372900 -14.658100 -4.311200
N -18.256800 -13.005200 -5.790600
N -17.397900 -9.356800 -7.745100
N -17.208500 -14.771400 -4.926000
C -17.167600 -13.762000 -5.817000
N -17.104700 -10.498300 -7.066100
N -16.941700 -9.411000 -8.956000
C -16.425500 -11.241400 -7.924800
N -16.323400 -10.588600 -9.087300
C -16.043300 -13.550700 -6.723300
H -16.013500 -10.820400 -9.883500
C -15.755700 -12.504000 -7.641500
N -15.065000 -14.434700 -6.766400
N -14.599900 -12.751300 -8.241000
N -14.245000 -13.941300 -7.720800
O -13.479100 -16.612100 -7.625800
C -12.900200 -14.363800 -7.724200
N -12.807000 -15.757600 -7.094300
O -12.617600 -12.764500 -6.034700
O -12.347500 -13.456600 -9.800500
N -12.215400 -14.428700 -9.099400
O -12.055900 -15.860500 -6.147500
N -12.022700 -13.392400 -6.881900
O -11.553000 -15.429800 -9.304300
O -10.838600 -13.362000 -7.157300
