27
Fragment
H -17.417200 -16.863800 -9.926200
N -16.605400 -16.603600 -10.176100
N -16.019200 -15.552900 -9.647900
N -15.903100 -17.205800 -11.127300
N -15.044300 -20.854200 -13.081800
N -14.854900 -15.439600 -10.262700
C -14.814000 -16.449000 -11.153700
N -14.751000 -19.712700 -12.402800
N -14.588100 -20.800000 -14.292700
C -14.071800 -18.969600 -13.261400
N -13.969700 -19.622400 -14.424000
C -13.689700 -16.660300 -12.059900
H -13.659800 -19.390600 -15.220200
C -13.402100 -17.707000 -12.978200
N -12.711300 -15.776300 -12.103100
N -12.246200 -17.459700 -13.577700
N -11.891400 -16.269700 -13.057500
O -11.125500 -13.598900 -12.962500
C -10.546600 -15.847200 -13.060900
N -10.453300 -14.453400 -12.430900
O -10.264000 -17.446500 -11.371400
O -9.993900 -16.754400 -15.137200
N -9.861800 -15.782300 -14.436000
O -9.702300 -14.350500 -11.484200
N -9.669000 -16.818600 -12.218500
O -9.199300 -14.781200 -14.641000
O -8.484900 -16.849000 -12.494000
6
Fragment
O -15.648900 -23.264800 -11.606200
H -15.507800 -22.522900 -12.039600
H -14.730400 -25.002600 -11.463200
H -14.560400 -24.304100 -12.882700
C -14.558500 -24.149500 -11.926100
H -13.727300 -23.780900 -11.644600
33
Fragment
H -17.417200 -16.863800 -9.926200
N -16.605400 -16.603600 -10.176100
N -16.019200 -15.552900 -9.647900
N -15.903100 -17.205800 -11.127300
N -15.044300 -20.854200 -13.081800
N -14.854900 -15.439600 -10.262700
C -14.814000 -16.449000 -11.153700
N -14.751000 -19.712700 -12.402800
N -14.588100 -20.800000 -14.292700
C -14.071800 -18.969600 -13.261400
N -13.969700 -19.622400 -14.424000
C -13.689700 -16.660300 -12.059900
H -13.659800 -19.390600 -15.220200
C -13.402100 -17.707000 -12.978200
N -12.711300 -15.776300 -12.103100
N -12.246200 -17.459700 -13.577700
N -11.891400 -16.269700 -13.057500
O -11.125500 -13.598900 -12.962500
C -10.546600 -15.847200 -13.060900
N -10.453300 -14.453400 -12.430900
O -10.264000 -17.446500 -11.371400
O -9.993900 -16.754400 -15.137200
N -9.861800 -15.782300 -14.436000
O -9.702300 -14.350500 -11.484200
N -9.669000 -16.818600 -12.218500
O -9.199300 -14.781200 -14.641000
O -8.484900 -16.849000 -12.494000
O -15.648900 -23.264800 -11.606200
H -15.507800 -22.522900 -12.039600
H -14.730400 -25.002600 -11.463200
H -14.560400 -24.304100 -12.882700
C -14.558500 -24.149500 -11.926100
H -13.727300 -23.780900 -11.644600
