12
Fragment
H -7.778700 -8.304300 -19.719800
H -7.378700 -8.673200 -17.439600
C -6.972400 -8.019400 -19.306300
C -6.718700 -8.231100 -17.959400
H -6.115000 -7.206200 -20.936400
C -5.975500 -7.368600 -20.010600
N -5.588900 -7.841400 -17.358200
N -4.819700 -6.950800 -19.461500
C -4.674300 -7.194500 -18.136300
N -3.543500 -6.816500 -17.529700
H -3.455600 -6.830100 -16.640800
H -2.982100 -6.297100 -17.961600
13
Fragment
F -4.935000 -6.529900 -22.785700
H -4.793600 -5.946800 -25.266700
C -4.007800 -5.712900 -24.787000
C -3.913700 -5.935700 -23.464100
H -3.380200 -6.094500 -20.967900
H -2.965400 -5.076900 -26.296700
N -2.946900 -5.142700 -25.419800
C -2.775200 -5.514100 -22.730400
N -2.718700 -5.677900 -21.411800
H -2.033200 -5.301100 -21.011300
C -1.799000 -4.788600 -24.740400
N -1.745100 -4.940800 -23.381600
O -0.833500 -4.312300 -25.393700
25
Fragment
H -7.778700 -8.304300 -19.719800
H -7.378700 -8.673200 -17.439600
C -6.972400 -8.019400 -19.306300
C -6.718700 -8.231100 -17.959400
H -6.115000 -7.206200 -20.936400
C -5.975500 -7.368600 -20.010600
N -5.588900 -7.841400 -17.358200
N -4.819700 -6.950800 -19.461500
C -4.674300 -7.194500 -18.136300
N -3.543500 -6.816500 -17.529700
H -3.455600 -6.830100 -16.640800
H -2.982100 -6.297100 -17.961600
F -4.935000 -6.529900 -22.785700
H -4.793600 -5.946800 -25.266700
C -4.007800 -5.712900 -24.787000
C -3.913700 -5.935700 -23.464100
H -3.380200 -6.094500 -20.967900
H -2.965400 -5.076900 -26.296700
N -2.946900 -5.142700 -25.419800
C -2.775200 -5.514100 -22.730400
N -2.718700 -5.677900 -21.411800
H -2.033200 -5.301100 -21.011300
C -1.799000 -4.788600 -24.740400
N -1.745100 -4.940800 -23.381600
O -0.833500 -4.312300 -25.393700
