12
Fragment
H -7.778700 -8.304300 -19.719800
H -7.378700 -8.673200 -17.439600
C -6.972400 -8.019400 -19.306300
C -6.718700 -8.231100 -17.959400
H -6.115000 -7.206200 -20.936400
C -5.975500 -7.368600 -20.010600
N -5.588900 -7.841400 -17.358200
N -4.819700 -6.950800 -19.461500
C -4.674300 -7.194500 -18.136300
N -3.543500 -6.816500 -17.529700
H -3.455600 -6.830100 -16.640800
H -2.982100 -6.297100 -17.961600
13
Fragment
F -7.324500 -9.662700 -11.932800
H -7.183100 -9.079600 -14.413800
C -6.397300 -8.845700 -13.934100
C -6.303200 -9.068500 -12.611100
H -5.769700 -9.227200 -10.114900
H -5.354900 -8.209600 -15.443700
N -5.336400 -8.275500 -14.566800
C -5.164700 -8.646900 -11.877500
N -5.108200 -8.810600 -10.558800
H -4.422700 -8.433800 -10.158400
C -4.188500 -7.921400 -13.887400
N -4.134600 -8.073500 -12.528600
O -3.223000 -7.445000 -14.540800
25
Fragment
H -7.778700 -8.304300 -19.719800
H -7.378700 -8.673200 -17.439600
C -6.972400 -8.019400 -19.306300
C -6.718700 -8.231100 -17.959400
H -6.115000 -7.206200 -20.936400
C -5.975500 -7.368600 -20.010600
N -5.588900 -7.841400 -17.358200
N -4.819700 -6.950800 -19.461500
C -4.674300 -7.194500 -18.136300
N -3.543500 -6.816500 -17.529700
H -3.455600 -6.830100 -16.640800
H -2.982100 -6.297100 -17.961600
F -7.324500 -9.662700 -11.932800
H -7.183100 -9.079600 -14.413800
C -6.397300 -8.845700 -13.934100
C -6.303200 -9.068500 -12.611100
H -5.769700 -9.227200 -10.114900
H -5.354900 -8.209600 -15.443700
N -5.336400 -8.275500 -14.566800
C -5.164700 -8.646900 -11.877500
N -5.108200 -8.810600 -10.558800
H -4.422700 -8.433800 -10.158400
C -4.188500 -7.921400 -13.887400
N -4.134600 -8.073500 -12.528600
O -3.223000 -7.445000 -14.540800
