12
Fragment
H -7.778700 -8.304300 -19.719800
H -7.378700 -8.673200 -17.439600
C -6.972400 -8.019400 -19.306300
C -6.718700 -8.231100 -17.959400
H -6.115000 -7.206200 -20.936400
C -5.975500 -7.368600 -20.010600
N -5.588900 -7.841400 -17.358200
N -4.819700 -6.950800 -19.461500
C -4.674300 -7.194500 -18.136300
N -3.543500 -6.816500 -17.529700
H -3.455600 -6.830100 -16.640800
H -2.982100 -6.297100 -17.961600
13
Fragment
O -7.688900 -4.847700 -18.018000
N -6.777300 -4.219200 -20.030200
C -6.723400 -4.371400 -18.671400
H -6.489200 -3.858900 -22.400500
N -5.803700 -3.482100 -22.000000
C -5.747200 -3.645800 -20.681400
N -5.575500 -4.017200 -17.992000
H -5.557000 -4.083100 -17.115100
H -5.142200 -3.065500 -22.443900
C -4.608700 -3.224200 -19.947700
C -4.514600 -3.447100 -18.624700
H -3.728800 -3.213200 -18.145000
F -3.587400 -2.630100 -20.626000
25
Fragment
H -7.778700 -8.304300 -19.719800
H -7.378700 -8.673200 -17.439600
C -6.972400 -8.019400 -19.306300
C -6.718700 -8.231100 -17.959400
H -6.115000 -7.206200 -20.936400
C -5.975500 -7.368600 -20.010600
N -5.588900 -7.841400 -17.358200
N -4.819700 -6.950800 -19.461500
C -4.674300 -7.194500 -18.136300
N -3.543500 -6.816500 -17.529700
H -3.455600 -6.830100 -16.640800
H -2.982100 -6.297100 -17.961600
O -7.688900 -4.847700 -18.018000
N -6.777300 -4.219200 -20.030200
C -6.723400 -4.371400 -18.671400
H -6.489200 -3.858900 -22.400500
N -5.803700 -3.482100 -22.000000
C -5.747200 -3.645800 -20.681400
N -5.575500 -4.017200 -17.992000
H -5.557000 -4.083100 -17.115100
H -5.142200 -3.065500 -22.443900
C -4.608700 -3.224200 -19.947700
C -4.514600 -3.447100 -18.624700
H -3.728800 -3.213200 -18.145000
F -3.587400 -2.630100 -20.626000
