13
Fragment
O -24.031000 -16.152000 -15.803800
C -23.092900 -16.670700 -16.470100
H -22.744700 -14.975000 -17.535000
N -22.721600 -17.966000 -16.288500
N -22.430700 -15.888800 -17.400400
C -21.710100 -18.477500 -17.009800
H -21.686800 -20.209400 -16.135400
C -21.427100 -16.388700 -18.180700
N -21.303100 -19.723100 -16.800400
C -21.070200 -17.675300 -18.005800
H -20.994400 -15.844600 -18.827600
H -20.604200 -20.038500 -17.274900
F -20.080800 -18.249400 -18.735500
14
Fragment
H -23.323100 -10.341600 -18.522400
H -22.776100 -8.979300 -18.995400
N -22.647500 -9.871500 -18.930700
H -22.351400 -12.290600 -19.139500
N -21.796800 -11.863100 -19.704800
C -21.737600 -10.480700 -19.711400
O -21.098100 -13.881600 -20.449700
C -20.982900 -12.648600 -20.477800
C -20.798700 -9.843900 -20.486500
H -20.734100 -8.896800 -20.465900
N -20.080000 -11.989600 -21.267600
C -19.927900 -10.590100 -21.314700
H -19.498000 -12.441400 -21.844100
O -19.055600 -10.120200 -22.081900
27
Fragment
O -24.031000 -16.152000 -15.803800
C -23.092900 -16.670700 -16.470100
H -22.744700 -14.975000 -17.535000
N -22.721600 -17.966000 -16.288500
N -22.430700 -15.888800 -17.400400
C -21.710100 -18.477500 -17.009800
H -21.686800 -20.209400 -16.135400
C -21.427100 -16.388700 -18.180700
N -21.303100 -19.723100 -16.800400
C -21.070200 -17.675300 -18.005800
H -20.994400 -15.844600 -18.827600
H -20.604200 -20.038500 -17.274900
F -20.080800 -18.249400 -18.735500
H -23.323100 -10.341600 -18.522400
H -22.776100 -8.979300 -18.995400
N -22.647500 -9.871500 -18.930700
H -22.351400 -12.290600 -19.139500
N -21.796800 -11.863100 -19.704800
C -21.737600 -10.480700 -19.711400
O -21.098100 -13.881600 -20.449700
C -20.982900 -12.648600 -20.477800
C -20.798700 -9.843900 -20.486500
H -20.734100 -8.896800 -20.465900
N -20.080000 -11.989600 -21.267600
C -19.927900 -10.590100 -21.314700
H -19.498000 -12.441400 -21.844100
O -19.055600 -10.120200 -22.081900
