13
Fragment
H -14.998600 -16.955000 -20.609700
F -14.683600 -14.504500 -21.170900
N -14.546000 -16.973600 -19.866600
H -14.517300 -17.739400 -19.422100
C -14.045800 -14.606200 -19.977200
C -13.996600 -15.887100 -19.328100
H -13.500500 -12.684800 -19.809500
C -13.468700 -13.538200 -19.392800
N -13.373200 -15.991400 -18.152300
N -12.840900 -13.699800 -18.200600
C -12.806300 -14.908400 -17.547200
H -12.455100 -13.059400 -17.707200
O -12.243300 -15.013100 -16.431400
20
Fragment
O -19.142000 -15.190200 -25.222400
H -19.105700 -17.448700 -26.867000
C -18.542400 -16.256700 -25.248700
C -18.264600 -17.136500 -26.446500
H -18.044800 -16.638200 -23.334400
N -17.990200 -16.883000 -24.166700
H -17.720200 -16.661400 -27.123600
H -17.697600 -20.032300 -26.760300
N -17.525500 -18.244700 -25.858600
C -17.395500 -18.095900 -24.531000
C -16.989300 -19.372800 -26.610400
H -16.889900 -19.958500 -20.994600
N -16.838600 -18.999600 -23.743300
H -16.648000 -19.057400 -27.472900
C -16.423400 -18.637000 -22.489700
H -16.259700 -19.786500 -26.102300
O -16.252000 -17.458800 -22.112400
C -16.114800 -19.782800 -21.568800
H -15.912600 -20.582500 -22.097200
H -15.341800 -19.555400 -21.011100
33
Fragment
H -14.998600 -16.955000 -20.609700
F -14.683600 -14.504500 -21.170900
N -14.546000 -16.973600 -19.866600
H -14.517300 -17.739400 -19.422100
C -14.045800 -14.606200 -19.977200
C -13.996600 -15.887100 -19.328100
H -13.500500 -12.684800 -19.809500
C -13.468700 -13.538200 -19.392800
N -13.373200 -15.991400 -18.152300
N -12.840900 -13.699800 -18.200600
C -12.806300 -14.908400 -17.547200
H -12.455100 -13.059400 -17.707200
O -12.243300 -15.013100 -16.431400
O -19.142000 -15.190200 -25.222400
H -19.105700 -17.448700 -26.867000
C -18.542400 -16.256700 -25.248700
C -18.264600 -17.136500 -26.446500
H -18.044800 -16.638200 -23.334400
N -17.990200 -16.883000 -24.166700
H -17.720200 -16.661400 -27.123600
H -17.697600 -20.032300 -26.760300
N -17.525500 -18.244700 -25.858600
C -17.395500 -18.095900 -24.531000
C -16.989300 -19.372800 -26.610400
H -16.889900 -19.958500 -20.994600
N -16.838600 -18.999600 -23.743300
H -16.648000 -19.057400 -27.472900
C -16.423400 -18.637000 -22.489700
H -16.259700 -19.786500 -26.102300
O -16.252000 -17.458800 -22.112400
C -16.114800 -19.782800 -21.568800
H -15.912600 -20.582500 -22.097200
H -15.341800 -19.555400 -21.011100
