13
Fragment
O -24.031000 -16.152000 -15.803800
C -23.092900 -16.670700 -16.470100
H -22.744700 -14.975000 -17.535000
N -22.721600 -17.966000 -16.288500
N -22.430700 -15.888800 -17.400400
C -21.710100 -18.477500 -17.009800
H -21.686800 -20.209400 -16.135400
C -21.427100 -16.388700 -18.180700
N -21.303100 -19.723100 -16.800400
C -21.070200 -17.675300 -18.005800
H -20.994400 -15.844600 -18.827600
H -20.604200 -20.038500 -17.274900
F -20.080800 -18.249400 -18.735500
14
Fragment
O -19.464200 -21.904100 -17.327600
H -19.021800 -24.225300 -17.565400
C -18.591900 -22.374000 -18.094800
N -18.439700 -23.773500 -18.141900
H -17.785700 -20.680700 -18.943600
C -17.721000 -21.627800 -18.923000
C -17.536800 -24.432500 -18.931600
O -17.421700 -25.665500 -18.959800
C -16.782200 -22.264600 -19.698100
N -16.723000 -23.647000 -19.704600
H -16.168400 -24.074500 -20.270000
N -15.872300 -21.655400 -20.478700
H -15.743600 -20.763200 -20.414100
H -15.196600 -22.125500 -20.887000
27
Fragment
O -24.031000 -16.152000 -15.803800
C -23.092900 -16.670700 -16.470100
H -22.744700 -14.975000 -17.535000
N -22.721600 -17.966000 -16.288500
N -22.430700 -15.888800 -17.400400
C -21.710100 -18.477500 -17.009800
H -21.686800 -20.209400 -16.135400
C -21.427100 -16.388700 -18.180700
N -21.303100 -19.723100 -16.800400
C -21.070200 -17.675300 -18.005800
H -20.994400 -15.844600 -18.827600
H -20.604200 -20.038500 -17.274900
F -20.080800 -18.249400 -18.735500
O -19.464200 -21.904100 -17.327600
H -19.021800 -24.225300 -17.565400
C -18.591900 -22.374000 -18.094800
N -18.439700 -23.773500 -18.141900
H -17.785700 -20.680700 -18.943600
C -17.721000 -21.627800 -18.923000
C -17.536800 -24.432500 -18.931600
O -17.421700 -25.665500 -18.959800
C -16.782200 -22.264600 -19.698100
N -16.723000 -23.647000 -19.704600
H -16.168400 -24.074500 -20.270000
N -15.872300 -21.655400 -20.478700
H -15.743600 -20.763200 -20.414100
H -15.196600 -22.125500 -20.887000
