13
Fragment
O -24.031000 -16.152000 -15.803800
C -23.092900 -16.670700 -16.470100
H -22.744700 -14.975000 -17.535000
N -22.721600 -17.966000 -16.288500
N -22.430700 -15.888800 -17.400400
C -21.710100 -18.477500 -17.009800
H -21.686800 -20.209400 -16.135400
C -21.427100 -16.388700 -18.180700
N -21.303100 -19.723100 -16.800400
C -21.070200 -17.675300 -18.005800
H -20.994400 -15.844600 -18.827600
H -20.604200 -20.038500 -17.274900
F -20.080800 -18.249400 -18.735500
13
Fragment
F -18.438900 -18.249400 -20.674000
H -17.915600 -20.038500 -22.134600
H -17.525400 -15.844600 -20.581900
C -17.449600 -17.675300 -21.403600
N -17.216600 -19.723100 -22.609100
C -17.092700 -16.388700 -21.228800
H -16.832900 -20.209400 -23.274100
C -16.809700 -18.477500 -22.399700
N -16.089100 -15.888800 -22.009100
N -15.798200 -17.966000 -23.121000
H -15.775100 -14.975000 -21.874500
C -15.426900 -16.670700 -22.939300
O -14.488800 -16.152000 -23.605700
26
Fragment
O -24.031000 -16.152000 -15.803800
C -23.092900 -16.670700 -16.470100
H -22.744700 -14.975000 -17.535000
N -22.721600 -17.966000 -16.288500
N -22.430700 -15.888800 -17.400400
C -21.710100 -18.477500 -17.009800
H -21.686800 -20.209400 -16.135400
C -21.427100 -16.388700 -18.180700
N -21.303100 -19.723100 -16.800400
C -21.070200 -17.675300 -18.005800
H -20.994400 -15.844600 -18.827600
H -20.604200 -20.038500 -17.274900
F -20.080800 -18.249400 -18.735500
F -18.438900 -18.249400 -20.674000
H -17.915600 -20.038500 -22.134600
H -17.525400 -15.844600 -20.581900
C -17.449600 -17.675300 -21.403600
N -17.216600 -19.723100 -22.609100
C -17.092700 -16.388700 -21.228800
H -16.832900 -20.209400 -23.274100
C -16.809700 -18.477500 -22.399700
N -16.089100 -15.888800 -22.009100
N -15.798200 -17.966000 -23.121000
H -15.775100 -14.975000 -21.874500
C -15.426900 -16.670700 -22.939300
O -14.488800 -16.152000 -23.605700
