13
Fragment
O -24.031000 -16.152000 -15.803800
C -23.092900 -16.670700 -16.470100
H -22.744700 -14.975000 -17.535000
N -22.721600 -17.966000 -16.288500
N -22.430700 -15.888800 -17.400400
C -21.710100 -18.477500 -17.009800
H -21.686800 -20.209400 -16.135400
C -21.427100 -16.388700 -18.180700
N -21.303100 -19.723100 -16.800400
C -21.070200 -17.675300 -18.005800
H -20.994400 -15.844600 -18.827600
H -20.604200 -20.038500 -17.274900
F -20.080800 -18.249400 -18.735500
13
Fragment
F -27.376100 -11.210400 -15.044100
H -26.852800 -9.421200 -16.504700
H -26.462600 -13.615100 -14.952000
C -26.386800 -11.784500 -15.773700
N -26.153900 -9.736700 -16.979200
C -26.029900 -13.071100 -15.598800
H -25.770100 -9.250400 -17.644200
C -25.746900 -10.982200 -16.769700
N -25.026300 -13.570900 -16.379100
N -24.735400 -11.493800 -17.491000
H -24.712300 -14.484800 -16.244600
C -24.364100 -12.789100 -17.309400
O -23.426000 -13.307800 -17.975800
26
Fragment
O -24.031000 -16.152000 -15.803800
C -23.092900 -16.670700 -16.470100
H -22.744700 -14.975000 -17.535000
N -22.721600 -17.966000 -16.288500
N -22.430700 -15.888800 -17.400400
C -21.710100 -18.477500 -17.009800
H -21.686800 -20.209400 -16.135400
C -21.427100 -16.388700 -18.180700
N -21.303100 -19.723100 -16.800400
C -21.070200 -17.675300 -18.005800
H -20.994400 -15.844600 -18.827600
H -20.604200 -20.038500 -17.274900
F -20.080800 -18.249400 -18.735500
F -27.376100 -11.210400 -15.044100
H -26.852800 -9.421200 -16.504700
H -26.462600 -13.615100 -14.952000
C -26.386800 -11.784500 -15.773700
N -26.153900 -9.736700 -16.979200
C -26.029900 -13.071100 -15.598800
H -25.770100 -9.250400 -17.644200
C -25.746900 -10.982200 -16.769700
N -25.026300 -13.570900 -16.379100
N -24.735400 -11.493800 -17.491000
H -24.712300 -14.484800 -16.244600
C -24.364100 -12.789100 -17.309400
O -23.426000 -13.307800 -17.975800
