13
Fragment
H -14.998600 -16.955000 -20.609700
F -14.683600 -14.504500 -21.170900
N -14.546000 -16.973600 -19.866600
H -14.517300 -17.739400 -19.422100
C -14.045800 -14.606200 -19.977200
C -13.996600 -15.887100 -19.328100
H -13.500500 -12.684800 -19.809500
C -13.468700 -13.538200 -19.392800
N -13.373200 -15.991400 -18.152300
N -12.840900 -13.699800 -18.200600
C -12.806300 -14.908400 -17.547200
H -12.455100 -13.059400 -17.707200
O -12.243300 -15.013100 -16.431400
20
Fragment
H -17.587300 -13.195900 -29.798700
H -17.016500 -12.168800 -28.712600
C -16.814300 -12.968500 -29.241100
O -16.677200 -15.292500 -28.697400
H -16.669400 -12.964800 -24.707500
C -16.505700 -14.114300 -28.320100
H -16.281100 -13.693900 -23.337000
N -16.090600 -13.751700 -27.066500
H -16.039300 -12.792800 -29.815200
C -15.939900 -13.378500 -24.199500
C -15.533600 -14.655400 -26.278800
N -15.403600 -14.506600 -24.951200
H -15.231500 -12.719000 -24.049600
H -15.209000 -16.089900 -23.686300
N -14.938900 -15.868300 -26.643100
H -14.884400 -16.113100 -27.475400
C -14.664500 -15.614800 -24.363300
C -14.386800 -16.494600 -25.561200
H -13.823400 -15.302600 -23.942900
O -13.787100 -17.561100 -25.587400
33
Fragment
H -14.998600 -16.955000 -20.609700
F -14.683600 -14.504500 -21.170900
N -14.546000 -16.973600 -19.866600
H -14.517300 -17.739400 -19.422100
C -14.045800 -14.606200 -19.977200
C -13.996600 -15.887100 -19.328100
H -13.500500 -12.684800 -19.809500
C -13.468700 -13.538200 -19.392800
N -13.373200 -15.991400 -18.152300
N -12.840900 -13.699800 -18.200600
C -12.806300 -14.908400 -17.547200
H -12.455100 -13.059400 -17.707200
O -12.243300 -15.013100 -16.431400
H -17.587300 -13.195900 -29.798700
H -17.016500 -12.168800 -28.712600
C -16.814300 -12.968500 -29.241100
O -16.677200 -15.292500 -28.697400
H -16.669400 -12.964800 -24.707500
C -16.505700 -14.114300 -28.320100
H -16.281100 -13.693900 -23.337000
N -16.090600 -13.751700 -27.066500
H -16.039300 -12.792800 -29.815200
C -15.939900 -13.378500 -24.199500
C -15.533600 -14.655400 -26.278800
N -15.403600 -14.506600 -24.951200
H -15.231500 -12.719000 -24.049600
H -15.209000 -16.089900 -23.686300
N -14.938900 -15.868300 -26.643100
H -14.884400 -16.113100 -27.475400
C -14.664500 -15.614800 -24.363300
C -14.386800 -16.494600 -25.561200
H -13.823400 -15.302600 -23.942900
O -13.787100 -17.561100 -25.587400
