13
Fragment
H -14.998600 -16.955000 -20.609700
F -14.683600 -14.504500 -21.170900
N -14.546000 -16.973600 -19.866600
H -14.517300 -17.739400 -19.422100
C -14.045800 -14.606200 -19.977200
C -13.996600 -15.887100 -19.328100
H -13.500500 -12.684800 -19.809500
C -13.468700 -13.538200 -19.392800
N -13.373200 -15.991400 -18.152300
N -12.840900 -13.699800 -18.200600
C -12.806300 -14.908400 -17.547200
H -12.455100 -13.059400 -17.707200
O -12.243300 -15.013100 -16.431400
13
Fragment
O -19.237800 -16.464600 -21.676000
H -19.026000 -18.418300 -20.400100
C -18.674900 -16.569300 -20.560200
N -18.640300 -17.777900 -19.906800
N -18.107900 -15.486300 -19.955100
C -18.012500 -17.939500 -18.714500
H -17.980600 -18.792900 -18.297900
C -17.484600 -15.590600 -18.779300
C -17.435300 -16.871500 -18.130200
H -16.963900 -13.738300 -18.685300
N -16.935200 -14.504000 -18.240700
F -16.797600 -16.973200 -16.936400
H -16.482600 -14.522600 -17.497600
26
Fragment
H -14.998600 -16.955000 -20.609700
F -14.683600 -14.504500 -21.170900
N -14.546000 -16.973600 -19.866600
H -14.517300 -17.739400 -19.422100
C -14.045800 -14.606200 -19.977200
C -13.996600 -15.887100 -19.328100
H -13.500500 -12.684800 -19.809500
C -13.468700 -13.538200 -19.392800
N -13.373200 -15.991400 -18.152300
N -12.840900 -13.699800 -18.200600
C -12.806300 -14.908400 -17.547200
H -12.455100 -13.059400 -17.707200
O -12.243300 -15.013100 -16.431400
O -19.237800 -16.464600 -21.676000
H -19.026000 -18.418300 -20.400100
C -18.674900 -16.569300 -20.560200
N -18.640300 -17.777900 -19.906800
N -18.107900 -15.486300 -19.955100
C -18.012500 -17.939500 -18.714500
H -17.980600 -18.792900 -18.297900
C -17.484600 -15.590600 -18.779300
C -17.435300 -16.871500 -18.130200
H -16.963900 -13.738300 -18.685300
N -16.935200 -14.504000 -18.240700
F -16.797600 -16.973200 -16.936400
H -16.482600 -14.522600 -17.497600
