27
Fragment
H -7.118000 -18.159700 -29.118000
H -6.695300 -18.629800 -30.589900
C -6.363100 -18.212900 -29.756100
N -5.875400 -16.874300 -30.043300
H -5.781600 -16.084700 -28.144300
C -5.608900 -15.939200 -29.067300
N -5.527900 -16.883500 -32.468000
C -5.483300 -16.309400 -31.237700
O -5.341700 -19.007800 -29.209500
H -5.255500 -17.296200 -34.876400
N -5.096700 -14.834800 -29.534900
C -5.044400 -16.082200 -33.417000
C -5.018100 -15.055600 -30.901700
N -4.967800 -16.496800 -34.683300
H -4.873600 -20.117100 -30.811800
H -4.682400 -15.949000 -35.315700
N -4.572600 -14.814100 -33.171800
C -4.502600 -14.222200 -31.917300
C -4.420300 -19.473800 -30.211700
H -4.236900 -14.303500 -33.825700
H -4.102600 -18.711200 -30.757500
O -3.997500 -13.097000 -31.772400
H -3.962800 -21.860300 -29.315000
O -3.605500 -21.299000 -28.802100
C -3.255200 -20.139400 -29.540300
H -2.825400 -19.489600 -28.930100
H -2.589600 -20.389300 -30.229900
27
Fragment
H -3.470000 -15.868600 -26.380400
H -3.234100 -14.968900 -27.680100
C -2.804300 -15.618700 -27.069900
O -2.454000 -16.778300 -27.808100
H -2.096700 -17.339600 -27.295200
O -2.062000 -8.576300 -24.837800
H -1.956900 -14.190500 -25.852700
H -1.822600 -9.782800 -22.784500
C -1.639200 -14.953100 -26.398500
C -1.556900 -9.701500 -24.692900
N -1.487000 -10.293400 -23.438400
H -1.377200 -11.428300 -21.294500
H -1.186000 -15.596400 -25.798400
N -1.091700 -11.976100 -21.926900
C -1.041500 -10.534900 -25.708500
C -1.015100 -11.561500 -23.193200
N -0.962800 -10.314100 -27.075300
H -0.804000 -12.775500 -21.733800
O -0.717800 -14.487100 -27.400700
C -0.576200 -11.788700 -25.372500
N -0.531600 -12.362800 -24.142200
C -0.450600 -11.418500 -27.542900
H -0.277900 -11.564000 -28.465900
N -0.184100 -12.353600 -26.566900
C 0.303600 -13.692200 -26.854100
H 0.635700 -14.109100 -26.020300
H 1.058500 -13.639000 -27.492200
54
Fragment
H -7.118000 -18.159700 -29.118000
H -6.695300 -18.629800 -30.589900
C -6.363100 -18.212900 -29.756100
N -5.875400 -16.874300 -30.043300
H -5.781600 -16.084700 -28.144300
C -5.608900 -15.939200 -29.067300
N -5.527900 -16.883500 -32.468000
C -5.483300 -16.309400 -31.237700
O -5.341700 -19.007800 -29.209500
H -5.255500 -17.296200 -34.876400
N -5.096700 -14.834800 -29.534900
C -5.044400 -16.082200 -33.417000
C -5.018100 -15.055600 -30.901700
N -4.967800 -16.496800 -34.683300
H -4.873600 -20.117100 -30.811800
H -4.682400 -15.949000 -35.315700
N -4.572600 -14.814100 -33.171800
C -4.502600 -14.222200 -31.917300
C -4.420300 -19.473800 -30.211700
H -4.236900 -14.303500 -33.825700
H -4.102600 -18.711200 -30.757500
O -3.997500 -13.097000 -31.772400
H -3.962800 -21.860300 -29.315000
O -3.605500 -21.299000 -28.802100
C -3.255200 -20.139400 -29.540300
H -2.825400 -19.489600 -28.930100
H -2.589600 -20.389300 -30.229900
H -3.470000 -15.868600 -26.380400
H -3.234100 -14.968900 -27.680100
C -2.804300 -15.618700 -27.069900
O -2.454000 -16.778300 -27.808100
H -2.096700 -17.339600 -27.295200
O -2.062000 -8.576300 -24.837800
H -1.956900 -14.190500 -25.852700
H -1.822600 -9.782800 -22.784500
C -1.639200 -14.953100 -26.398500
C -1.556900 -9.701500 -24.692900
N -1.487000 -10.293400 -23.438400
H -1.377200 -11.428300 -21.294500
H -1.186000 -15.596400 -25.798400
N -1.091700 -11.976100 -21.926900
C -1.041500 -10.534900 -25.708500
C -1.015100 -11.561500 -23.193200
N -0.962800 -10.314100 -27.075300
H -0.804000 -12.775500 -21.733800
O -0.717800 -14.487100 -27.400700
C -0.576200 -11.788700 -25.372500
N -0.531600 -12.362800 -24.142200
C -0.450600 -11.418500 -27.542900
H -0.277900 -11.564000 -28.465900
N -0.184100 -12.353600 -26.566900
C 0.303600 -13.692200 -26.854100
H 0.635700 -14.109100 -26.020300
H 1.058500 -13.639000 -27.492200
