27
Fragment
H -7.118000 -18.159700 -29.118000
H -6.695300 -18.629800 -30.589900
C -6.363100 -18.212900 -29.756100
N -5.875400 -16.874300 -30.043300
H -5.781600 -16.084700 -28.144300
C -5.608900 -15.939200 -29.067300
N -5.527900 -16.883500 -32.468000
C -5.483300 -16.309400 -31.237700
O -5.341700 -19.007800 -29.209500
H -5.255500 -17.296200 -34.876400
N -5.096700 -14.834800 -29.534900
C -5.044400 -16.082200 -33.417000
C -5.018100 -15.055600 -30.901700
N -4.967800 -16.496800 -34.683300
H -4.873600 -20.117100 -30.811800
H -4.682400 -15.949000 -35.315700
N -4.572600 -14.814100 -33.171800
C -4.502600 -14.222200 -31.917300
C -4.420300 -19.473800 -30.211700
H -4.236900 -14.303500 -33.825700
H -4.102600 -18.711200 -30.757500
O -3.997500 -13.097000 -31.772400
H -3.962800 -21.860300 -29.315000
O -3.605500 -21.299000 -28.802100
C -3.255200 -20.139400 -29.540300
H -2.825400 -19.489600 -28.930100
H -2.589600 -20.389300 -30.229900
27
Fragment
H -7.118000 -27.201100 -29.118000
H -6.695300 -27.671200 -30.589900
C -6.363100 -27.254300 -29.756100
N -5.875400 -25.915700 -30.043300
H -5.781600 -25.126100 -28.144300
C -5.608900 -24.980600 -29.067300
N -5.527900 -25.924900 -32.468000
C -5.483300 -25.350800 -31.237700
O -5.341700 -28.049200 -29.209500
H -5.255500 -26.337600 -34.876400
N -5.096700 -23.876200 -29.534900
C -5.044400 -25.123600 -33.417000
C -5.018100 -24.097000 -30.901700
N -4.967800 -25.538200 -34.683300
H -4.873600 -29.158500 -30.811800
H -4.682400 -24.990400 -35.315700
N -4.572600 -23.855500 -33.171800
C -4.502600 -23.263600 -31.917300
C -4.420300 -28.515200 -30.211700
H -4.236900 -23.344900 -33.825700
H -4.102600 -27.752600 -30.757500
O -3.997500 -22.138400 -31.772400
H -3.962800 -30.901700 -29.315000
O -3.605500 -30.340400 -28.802100
C -3.255200 -29.180800 -29.540300
H -2.825400 -28.531000 -28.930100
H -2.589600 -29.430700 -30.229900
54
Fragment
H -7.118000 -18.159700 -29.118000
H -6.695300 -18.629800 -30.589900
C -6.363100 -18.212900 -29.756100
N -5.875400 -16.874300 -30.043300
H -5.781600 -16.084700 -28.144300
C -5.608900 -15.939200 -29.067300
N -5.527900 -16.883500 -32.468000
C -5.483300 -16.309400 -31.237700
O -5.341700 -19.007800 -29.209500
H -5.255500 -17.296200 -34.876400
N -5.096700 -14.834800 -29.534900
C -5.044400 -16.082200 -33.417000
C -5.018100 -15.055600 -30.901700
N -4.967800 -16.496800 -34.683300
H -4.873600 -20.117100 -30.811800
H -4.682400 -15.949000 -35.315700
N -4.572600 -14.814100 -33.171800
C -4.502600 -14.222200 -31.917300
C -4.420300 -19.473800 -30.211700
H -4.236900 -14.303500 -33.825700
H -4.102600 -18.711200 -30.757500
O -3.997500 -13.097000 -31.772400
H -3.962800 -21.860300 -29.315000
O -3.605500 -21.299000 -28.802100
C -3.255200 -20.139400 -29.540300
H -2.825400 -19.489600 -28.930100
H -2.589600 -20.389300 -30.229900
H -7.118000 -27.201100 -29.118000
H -6.695300 -27.671200 -30.589900
C -6.363100 -27.254300 -29.756100
N -5.875400 -25.915700 -30.043300
H -5.781600 -25.126100 -28.144300
C -5.608900 -24.980600 -29.067300
N -5.527900 -25.924900 -32.468000
C -5.483300 -25.350800 -31.237700
O -5.341700 -28.049200 -29.209500
H -5.255500 -26.337600 -34.876400
N -5.096700 -23.876200 -29.534900
C -5.044400 -25.123600 -33.417000
C -5.018100 -24.097000 -30.901700
N -4.967800 -25.538200 -34.683300
H -4.873600 -29.158500 -30.811800
H -4.682400 -24.990400 -35.315700
N -4.572600 -23.855500 -33.171800
C -4.502600 -23.263600 -31.917300
C -4.420300 -28.515200 -30.211700
H -4.236900 -23.344900 -33.825700
H -4.102600 -27.752600 -30.757500
O -3.997500 -22.138400 -31.772400
H -3.962800 -30.901700 -29.315000
O -3.605500 -30.340400 -28.802100
C -3.255200 -29.180800 -29.540300
H -2.825400 -28.531000 -28.930100
H -2.589600 -29.430700 -30.229900
