27
Fragment
H -7.118000 -18.159700 -29.118000
H -6.695300 -18.629800 -30.589900
C -6.363100 -18.212900 -29.756100
N -5.875400 -16.874300 -30.043300
H -5.781600 -16.084700 -28.144300
C -5.608900 -15.939200 -29.067300
N -5.527900 -16.883500 -32.468000
C -5.483300 -16.309400 -31.237700
O -5.341700 -19.007800 -29.209500
H -5.255500 -17.296200 -34.876400
N -5.096700 -14.834800 -29.534900
C -5.044400 -16.082200 -33.417000
C -5.018100 -15.055600 -30.901700
N -4.967800 -16.496800 -34.683300
H -4.873600 -20.117100 -30.811800
H -4.682400 -15.949000 -35.315700
N -4.572600 -14.814100 -33.171800
C -4.502600 -14.222200 -31.917300
C -4.420300 -19.473800 -30.211700
H -4.236900 -14.303500 -33.825700
H -4.102600 -18.711200 -30.757500
O -3.997500 -13.097000 -31.772400
H -3.962800 -21.860300 -29.315000
O -3.605500 -21.299000 -28.802100
C -3.255200 -20.139400 -29.540300
H -2.825400 -19.489600 -28.930100
H -2.589600 -20.389300 -30.229900
13
Fragment
F -2.167200 -26.417000 -32.130100
H -1.983800 -25.249900 -29.863000
C -1.736000 -25.155500 -31.840100
C -1.702100 -24.703800 -30.587900
H -1.677300 -25.596200 -34.380500
N -1.384000 -24.774900 -34.172400
C -1.321600 -24.328200 -32.921100
N -1.251800 -23.437700 -30.376600
H -1.208700 -23.173100 -29.541500
H -1.114100 -24.240000 -34.849200
N -0.871600 -23.093600 -32.677200
C -0.826200 -22.614300 -31.404600
O -0.410400 -21.476300 -31.141300
40
Fragment
H -7.118000 -18.159700 -29.118000
H -6.695300 -18.629800 -30.589900
C -6.363100 -18.212900 -29.756100
N -5.875400 -16.874300 -30.043300
H -5.781600 -16.084700 -28.144300
C -5.608900 -15.939200 -29.067300
N -5.527900 -16.883500 -32.468000
C -5.483300 -16.309400 -31.237700
O -5.341700 -19.007800 -29.209500
H -5.255500 -17.296200 -34.876400
N -5.096700 -14.834800 -29.534900
C -5.044400 -16.082200 -33.417000
C -5.018100 -15.055600 -30.901700
N -4.967800 -16.496800 -34.683300
H -4.873600 -20.117100 -30.811800
H -4.682400 -15.949000 -35.315700
N -4.572600 -14.814100 -33.171800
C -4.502600 -14.222200 -31.917300
C -4.420300 -19.473800 -30.211700
H -4.236900 -14.303500 -33.825700
H -4.102600 -18.711200 -30.757500
O -3.997500 -13.097000 -31.772400
H -3.962800 -21.860300 -29.315000
O -3.605500 -21.299000 -28.802100
C -3.255200 -20.139400 -29.540300
H -2.825400 -19.489600 -28.930100
H -2.589600 -20.389300 -30.229900
F -2.167200 -26.417000 -32.130100
H -1.983800 -25.249900 -29.863000
C -1.736000 -25.155500 -31.840100
C -1.702100 -24.703800 -30.587900
H -1.677300 -25.596200 -34.380500
N -1.384000 -24.774900 -34.172400
C -1.321600 -24.328200 -32.921100
N -1.251800 -23.437700 -30.376600
H -1.208700 -23.173100 -29.541500
H -1.114100 -24.240000 -34.849200
N -0.871600 -23.093600 -32.677200
C -0.826200 -22.614300 -31.404600
O -0.410400 -21.476300 -31.141300
