13
Fragment
H -10.782800 -24.008000 -17.130300
H -10.552500 -23.845100 -18.685400
N -10.372400 -23.574500 -17.849400
F -9.662900 -22.710400 -15.345200
C -9.432600 -22.657800 -17.728600
C -9.054500 -22.170300 -16.427000
N -8.837300 -22.150000 -18.824500
C -8.131200 -21.201200 -16.326100
C -7.885100 -21.185700 -18.711600
H -7.883400 -20.863000 -15.473600
N -7.554600 -20.708600 -17.453800
O -7.309300 -20.706700 -19.721900
H -6.986500 -20.040900 -17.375200
16
Fragment
H -10.588000 -28.362300 -15.061000
H -10.534500 -28.747600 -13.469100
N -10.256300 -28.242400 -14.259500
C -9.371100 -27.236200 -14.119200
H -9.298400 -26.845300 -16.077300
N -8.969300 -26.582200 -15.244700
N -8.903200 -26.934100 -12.903300
H -8.208800 -25.398100 -10.867100
C -8.034600 -25.550400 -15.225500
C -7.991600 -25.915200 -12.843600
O -7.686500 -25.022700 -16.299600
C -7.553400 -25.207100 -13.924600
C -7.463800 -25.633500 -11.458700
H -7.011800 -26.431900 -11.113300
H -6.935400 -24.494200 -13.813200
H -6.828600 -24.888600 -11.496500
29
Fragment
H -10.782800 -24.008000 -17.130300
H -10.552500 -23.845100 -18.685400
N -10.372400 -23.574500 -17.849400
F -9.662900 -22.710400 -15.345200
C -9.432600 -22.657800 -17.728600
C -9.054500 -22.170300 -16.427000
N -8.837300 -22.150000 -18.824500
C -8.131200 -21.201200 -16.326100
C -7.885100 -21.185700 -18.711600
H -7.883400 -20.863000 -15.473600
N -7.554600 -20.708600 -17.453800
O -7.309300 -20.706700 -19.721900
H -6.986500 -20.040900 -17.375200
H -10.588000 -28.362300 -15.061000
H -10.534500 -28.747600 -13.469100
N -10.256300 -28.242400 -14.259500
C -9.371100 -27.236200 -14.119200
H -9.298400 -26.845300 -16.077300
N -8.969300 -26.582200 -15.244700
N -8.903200 -26.934100 -12.903300
H -8.208800 -25.398100 -10.867100
C -8.034600 -25.550400 -15.225500
C -7.991600 -25.915200 -12.843600
O -7.686500 -25.022700 -16.299600
C -7.553400 -25.207100 -13.924600
C -7.463800 -25.633500 -11.458700
H -7.011800 -26.431900 -11.113300
H -6.935400 -24.494200 -13.813200
H -6.828600 -24.888600 -11.496500
