13
Fragment
H -10.782800 -24.008000 -17.130300
H -10.552500 -23.845100 -18.685400
N -10.372400 -23.574500 -17.849400
F -9.662900 -22.710400 -15.345200
C -9.432600 -22.657800 -17.728600
C -9.054500 -22.170300 -16.427000
N -8.837300 -22.150000 -18.824500
C -8.131200 -21.201200 -16.326100
C -7.885100 -21.185700 -18.711600
H -7.883400 -20.863000 -15.473600
N -7.554600 -20.708600 -17.453800
O -7.309300 -20.706700 -19.721900
H -6.986500 -20.040900 -17.375200
16
Fragment
H -7.328300 -21.556500 -12.992800
H -7.221500 -21.950900 -10.676100
H -7.145100 -20.013200 -13.376100
C -6.693100 -20.811600 -13.030700
C -6.603400 -21.238000 -10.564700
O -6.470400 -21.422400 -8.189700
C -6.165300 -20.529900 -11.645800
C -6.122300 -20.894700 -9.263800
H -5.948100 -21.047000 -13.622200
N -5.253700 -19.511000 -11.586000
N -5.187600 -19.862900 -9.244600
H -4.858500 -19.599800 -8.412100
C -4.785700 -19.208900 -10.370100
N -3.900600 -18.202800 -10.229800
H -3.622400 -17.697500 -11.020200
H -3.568900 -18.082800 -9.428400
29
Fragment
H -10.782800 -24.008000 -17.130300
H -10.552500 -23.845100 -18.685400
N -10.372400 -23.574500 -17.849400
F -9.662900 -22.710400 -15.345200
C -9.432600 -22.657800 -17.728600
C -9.054500 -22.170300 -16.427000
N -8.837300 -22.150000 -18.824500
C -8.131200 -21.201200 -16.326100
C -7.885100 -21.185700 -18.711600
H -7.883400 -20.863000 -15.473600
N -7.554600 -20.708600 -17.453800
O -7.309300 -20.706700 -19.721900
H -6.986500 -20.040900 -17.375200
H -7.328300 -21.556500 -12.992800
H -7.221500 -21.950900 -10.676100
H -7.145100 -20.013200 -13.376100
C -6.693100 -20.811600 -13.030700
C -6.603400 -21.238000 -10.564700
O -6.470400 -21.422400 -8.189700
C -6.165300 -20.529900 -11.645800
C -6.122300 -20.894700 -9.263800
H -5.948100 -21.047000 -13.622200
N -5.253700 -19.511000 -11.586000
N -5.187600 -19.862900 -9.244600
H -4.858500 -19.599800 -8.412100
C -4.785700 -19.208900 -10.370100
N -3.900600 -18.202800 -10.229800
H -3.622400 -17.697500 -11.020200
H -3.568900 -18.082800 -9.428400
