13
Fragment
H -10.782800 -24.008000 -17.130300
H -10.552500 -23.845100 -18.685400
N -10.372400 -23.574500 -17.849400
F -9.662900 -22.710400 -15.345200
C -9.432600 -22.657800 -17.728600
C -9.054500 -22.170300 -16.427000
N -8.837300 -22.150000 -18.824500
C -8.131200 -21.201200 -16.326100
C -7.885100 -21.185700 -18.711600
H -7.883400 -20.863000 -15.473600
N -7.554600 -20.708600 -17.453800
O -7.309300 -20.706700 -19.721900
H -6.986500 -20.040900 -17.375200
13
Fragment
H -15.311300 -24.008000 -17.130300
H -15.081000 -23.845100 -18.685400
N -14.900900 -23.574500 -17.849400
F -14.191400 -22.710400 -15.345200
C -13.961100 -22.657800 -17.728600
C -13.583000 -22.170300 -16.427000
N -13.365800 -22.150000 -18.824500
C -12.659700 -21.201200 -16.326100
C -12.413600 -21.185700 -18.711600
H -12.411900 -20.863000 -15.473600
N -12.083100 -20.708600 -17.453800
O -11.837800 -20.706700 -19.721900
H -11.515000 -20.040900 -17.375200
26
Fragment
H -10.782800 -24.008000 -17.130300
H -10.552500 -23.845100 -18.685400
N -10.372400 -23.574500 -17.849400
F -9.662900 -22.710400 -15.345200
C -9.432600 -22.657800 -17.728600
C -9.054500 -22.170300 -16.427000
N -8.837300 -22.150000 -18.824500
C -8.131200 -21.201200 -16.326100
C -7.885100 -21.185700 -18.711600
H -7.883400 -20.863000 -15.473600
N -7.554600 -20.708600 -17.453800
O -7.309300 -20.706700 -19.721900
H -6.986500 -20.040900 -17.375200
H -15.311300 -24.008000 -17.130300
H -15.081000 -23.845100 -18.685400
N -14.900900 -23.574500 -17.849400
F -14.191400 -22.710400 -15.345200
C -13.961100 -22.657800 -17.728600
C -13.583000 -22.170300 -16.427000
N -13.365800 -22.150000 -18.824500
C -12.659700 -21.201200 -16.326100
C -12.413600 -21.185700 -18.711600
H -12.411900 -20.863000 -15.473600
N -12.083100 -20.708600 -17.453800
O -11.837800 -20.706700 -19.721900
H -11.515000 -20.040900 -17.375200
