16
Fragment
O -23.235000 -10.881500 -16.386900
C -22.041800 -11.002200 -16.029700
N -21.658300 -10.811200 -14.745700
H -21.399400 -11.549700 -17.829700
N -21.097900 -11.352600 -16.966900
H -20.640800 -10.484900 -12.656200
C -20.365700 -10.927000 -14.420100
N -20.036800 -10.701200 -13.144000
C -19.788500 -11.524500 -16.623400
C -19.349500 -11.303200 -15.365600
H -19.215000 -10.616200 -12.878100
H -19.210100 -11.838800 -17.342300
C -17.907300 -11.498900 -14.972700
H -17.844500 -12.204800 -14.355200
H -17.570000 -10.666600 -14.524900
H -17.346100 -11.747100 -15.768700
16
Fragment
O -29.090200 -9.771000 -20.738800
C -27.897000 -9.650300 -20.381600
N -27.513500 -9.841300 -19.097600
H -27.254600 -9.102800 -22.181600
N -26.953100 -9.299900 -21.318800
H -26.495900 -10.167600 -17.008100
C -26.220900 -9.725500 -18.772000
N -25.891900 -9.951300 -17.495900
C -25.643600 -9.128000 -20.975300
C -25.204600 -9.349300 -19.717500
H -25.070200 -10.036300 -17.230000
H -25.065200 -8.813700 -21.694200
C -23.762500 -9.153600 -19.324600
H -23.699700 -8.447700 -18.707100
H -23.425100 -9.985900 -18.876800
H -23.201200 -8.905400 -20.120600
32
Fragment
O -23.235000 -10.881500 -16.386900
C -22.041800 -11.002200 -16.029700
N -21.658300 -10.811200 -14.745700
H -21.399400 -11.549700 -17.829700
N -21.097900 -11.352600 -16.966900
H -20.640800 -10.484900 -12.656200
C -20.365700 -10.927000 -14.420100
N -20.036800 -10.701200 -13.144000
C -19.788500 -11.524500 -16.623400
C -19.349500 -11.303200 -15.365600
H -19.215000 -10.616200 -12.878100
H -19.210100 -11.838800 -17.342300
C -17.907300 -11.498900 -14.972700
H -17.844500 -12.204800 -14.355200
H -17.570000 -10.666600 -14.524900
H -17.346100 -11.747100 -15.768700
O -29.090200 -9.771000 -20.738800
C -27.897000 -9.650300 -20.381600
N -27.513500 -9.841300 -19.097600
H -27.254600 -9.102800 -22.181600
N -26.953100 -9.299900 -21.318800
H -26.495900 -10.167600 -17.008100
C -26.220900 -9.725500 -18.772000
N -25.891900 -9.951300 -17.495900
C -25.643600 -9.128000 -20.975300
C -25.204600 -9.349300 -19.717500
H -25.070200 -10.036300 -17.230000
H -25.065200 -8.813700 -21.694200
C -23.762500 -9.153600 -19.324600
H -23.699700 -8.447700 -18.707100
H -23.425100 -9.985900 -18.876800
H -23.201200 -8.905400 -20.120600
