16
Fragment
O -23.235000 -10.881500 -16.386900
C -22.041800 -11.002200 -16.029700
N -21.658300 -10.811200 -14.745700
H -21.399400 -11.549700 -17.829700
N -21.097900 -11.352600 -16.966900
H -20.640800 -10.484900 -12.656200
C -20.365700 -10.927000 -14.420100
N -20.036800 -10.701200 -13.144000
C -19.788500 -11.524500 -16.623400
C -19.349500 -11.303200 -15.365600
H -19.215000 -10.616200 -12.878100
H -19.210100 -11.838800 -17.342300
C -17.907300 -11.498900 -14.972700
H -17.844500 -12.204800 -14.355200
H -17.570000 -10.666600 -14.524900
H -17.346100 -11.747100 -15.768700
16
Fragment
O -26.295800 -13.901500 -12.035000
C -25.102700 -13.780800 -11.677800
N -24.719200 -13.971800 -10.393800
H -24.460200 -13.233300 -13.477800
N -24.158700 -13.430400 -12.615000
H -23.701600 -14.298100 -8.304300
C -23.426600 -13.856000 -10.068200
N -23.097600 -14.081800 -8.792100
C -22.849300 -13.258500 -12.271500
C -22.410300 -13.479800 -11.013700
H -22.275800 -14.166800 -8.526200
H -22.270900 -12.944200 -12.990400
C -20.968100 -13.284100 -10.620800
H -20.905300 -12.578200 -10.003300
H -20.630800 -14.116400 -10.173000
H -20.406900 -13.035900 -11.416800
32
Fragment
O -23.235000 -10.881500 -16.386900
C -22.041800 -11.002200 -16.029700
N -21.658300 -10.811200 -14.745700
H -21.399400 -11.549700 -17.829700
N -21.097900 -11.352600 -16.966900
H -20.640800 -10.484900 -12.656200
C -20.365700 -10.927000 -14.420100
N -20.036800 -10.701200 -13.144000
C -19.788500 -11.524500 -16.623400
C -19.349500 -11.303200 -15.365600
H -19.215000 -10.616200 -12.878100
H -19.210100 -11.838800 -17.342300
C -17.907300 -11.498900 -14.972700
H -17.844500 -12.204800 -14.355200
H -17.570000 -10.666600 -14.524900
H -17.346100 -11.747100 -15.768700
O -26.295800 -13.901500 -12.035000
C -25.102700 -13.780800 -11.677800
N -24.719200 -13.971800 -10.393800
H -24.460200 -13.233300 -13.477800
N -24.158700 -13.430400 -12.615000
H -23.701600 -14.298100 -8.304300
C -23.426600 -13.856000 -10.068200
N -23.097600 -14.081800 -8.792100
C -22.849300 -13.258500 -12.271500
C -22.410300 -13.479800 -11.013700
H -22.275800 -14.166800 -8.526200
H -22.270900 -12.944200 -12.990400
C -20.968100 -13.284100 -10.620800
H -20.905300 -12.578200 -10.003300
H -20.630800 -14.116400 -10.173000
H -20.406900 -13.035900 -11.416800
