16
Fragment
O -23.235000 -10.881500 -16.386900
C -22.041800 -11.002200 -16.029700
N -21.658300 -10.811200 -14.745700
H -21.399400 -11.549700 -17.829700
N -21.097900 -11.352600 -16.966900
H -20.640800 -10.484900 -12.656200
C -20.365700 -10.927000 -14.420100
N -20.036800 -10.701200 -13.144000
C -19.788500 -11.524500 -16.623400
C -19.349500 -11.303200 -15.365600
H -19.215000 -10.616200 -12.878100
H -19.210100 -11.838800 -17.342300
C -17.907300 -11.498900 -14.972700
H -17.844500 -12.204800 -14.355200
H -17.570000 -10.666600 -14.524900
H -17.346100 -11.747100 -15.768700
16
Fragment
H -26.700900 -8.905400 -10.342700
H -26.477000 -9.985900 -11.586500
H -26.202500 -8.447700 -11.756200
C -26.139700 -9.153600 -11.138700
H -24.836900 -8.813700 -8.769100
H -24.832000 -10.036300 -13.233200
C -24.697500 -9.349300 -10.745800
C -24.258500 -9.128000 -9.488000
N -24.010200 -9.951300 -12.967300
C -23.681300 -9.725500 -11.691300
H -23.406200 -10.167600 -13.455200
N -22.949100 -9.299900 -9.144500
H -22.647600 -9.102800 -8.281700
N -22.388700 -9.841300 -11.365700
C -22.005100 -9.650300 -10.081700
O -20.812000 -9.771000 -9.724500
32
Fragment
O -23.235000 -10.881500 -16.386900
C -22.041800 -11.002200 -16.029700
N -21.658300 -10.811200 -14.745700
H -21.399400 -11.549700 -17.829700
N -21.097900 -11.352600 -16.966900
H -20.640800 -10.484900 -12.656200
C -20.365700 -10.927000 -14.420100
N -20.036800 -10.701200 -13.144000
C -19.788500 -11.524500 -16.623400
C -19.349500 -11.303200 -15.365600
H -19.215000 -10.616200 -12.878100
H -19.210100 -11.838800 -17.342300
C -17.907300 -11.498900 -14.972700
H -17.844500 -12.204800 -14.355200
H -17.570000 -10.666600 -14.524900
H -17.346100 -11.747100 -15.768700
H -26.700900 -8.905400 -10.342700
H -26.477000 -9.985900 -11.586500
H -26.202500 -8.447700 -11.756200
C -26.139700 -9.153600 -11.138700
H -24.836900 -8.813700 -8.769100
H -24.832000 -10.036300 -13.233200
C -24.697500 -9.349300 -10.745800
C -24.258500 -9.128000 -9.488000
N -24.010200 -9.951300 -12.967300
C -23.681300 -9.725500 -11.691300
H -23.406200 -10.167600 -13.455200
N -22.949100 -9.299900 -9.144500
H -22.647600 -9.102800 -8.281700
N -22.388700 -9.841300 -11.365700
C -22.005100 -9.650300 -10.081700
O -20.812000 -9.771000 -9.724500
