30
Fragment
H -7.779400 -20.067800 -18.452700
C -7.079600 -19.874800 -19.032400
H -6.878200 -21.647600 -20.132500
C -6.583100 -20.779700 -19.975500
N -6.444100 -18.712100 -19.055800
C -5.584000 -20.127400 -20.614400
N -5.511000 -18.874200 -20.048900
H -5.116400 -14.888300 -17.835900
H -5.051700 -20.460000 -21.300000
N -4.663400 -16.740000 -19.675500
C -4.613200 -17.874700 -20.373400
H -4.503700 -12.580900 -17.198400
C -4.502800 -14.335400 -18.262700
C -4.171300 -13.075000 -17.913000
N -3.789800 -18.154700 -21.385100
N -3.754800 -14.643800 -19.371300
C -3.748800 -15.864900 -20.058100
C -3.217400 -12.668000 -18.861600
N -2.952700 -13.616800 -19.740300
C -2.922500 -17.168100 -21.630500
N -2.838800 -15.997300 -21.017500
H -2.819300 -11.827300 -18.869900
H -2.438000 -19.333400 -23.297900
N -2.019000 -17.415200 -22.664900
C -1.935600 -18.559100 -23.410800
N -1.126900 -16.476300 -23.092400
C -0.989900 -18.349000 -24.338800
H -0.704000 -18.943300 -24.995500
C -0.521300 -17.046200 -24.111600
H 0.139500 -16.634900 -24.621000
30
Fragment
H -7.444200 -11.864400 -12.965900
H -7.218700 -4.571500 -9.073500
H -6.821600 -6.645100 -10.378800
C -6.815800 -11.276900 -13.321100
C -6.613500 -4.695900 -9.768800
N -6.595700 -10.062600 -12.850000
C -6.390200 -5.827900 -10.483400
C -5.992000 -11.578100 -14.418500
H -5.978500 -12.367600 -14.911400
C -5.730800 -3.760800 -10.314100
H -5.674700 -2.880500 -10.018000
N -5.602200 -9.579400 -13.656100
N -5.531200 -7.566400 -12.478100
N -5.407600 -5.533400 -11.385300
C -5.222800 -10.486300 -14.611200
C -5.046700 -8.320900 -13.453300
N -4.986700 -4.246700 -11.286800
C -4.915100 -6.397100 -12.376600
H -4.567000 -10.371400 -15.261100
N -4.048200 -8.007400 -14.293600
N -3.912800 -5.933600 -13.124400
C -3.538100 -6.816300 -14.055000
N -2.466800 -6.412800 -14.866500
N -2.014300 -7.226900 -15.877500
H -1.892600 -4.570200 -14.172000
C -1.763300 -5.258400 -14.784700
C -1.031100 -6.537500 -16.417700
C -0.831300 -5.304600 -15.771900
H -0.526600 -6.831500 -17.141900
H -0.195600 -4.658200 -15.977100
60
Fragment
H -7.779400 -20.067800 -18.452700
C -7.079600 -19.874800 -19.032400
H -6.878200 -21.647600 -20.132500
C -6.583100 -20.779700 -19.975500
N -6.444100 -18.712100 -19.055800
C -5.584000 -20.127400 -20.614400
N -5.511000 -18.874200 -20.048900
H -5.116400 -14.888300 -17.835900
H -5.051700 -20.460000 -21.300000
N -4.663400 -16.740000 -19.675500
C -4.613200 -17.874700 -20.373400
H -4.503700 -12.580900 -17.198400
C -4.502800 -14.335400 -18.262700
C -4.171300 -13.075000 -17.913000
N -3.789800 -18.154700 -21.385100
N -3.754800 -14.643800 -19.371300
C -3.748800 -15.864900 -20.058100
C -3.217400 -12.668000 -18.861600
N -2.952700 -13.616800 -19.740300
C -2.922500 -17.168100 -21.630500
N -2.838800 -15.997300 -21.017500
H -2.819300 -11.827300 -18.869900
H -2.438000 -19.333400 -23.297900
N -2.019000 -17.415200 -22.664900
C -1.935600 -18.559100 -23.410800
N -1.126900 -16.476300 -23.092400
C -0.989900 -18.349000 -24.338800
H -0.704000 -18.943300 -24.995500
C -0.521300 -17.046200 -24.111600
H 0.139500 -16.634900 -24.621000
H -7.444200 -11.864400 -12.965900
H -7.218700 -4.571500 -9.073500
H -6.821600 -6.645100 -10.378800
C -6.815800 -11.276900 -13.321100
C -6.613500 -4.695900 -9.768800
N -6.595700 -10.062600 -12.850000
C -6.390200 -5.827900 -10.483400
C -5.992000 -11.578100 -14.418500
H -5.978500 -12.367600 -14.911400
C -5.730800 -3.760800 -10.314100
H -5.674700 -2.880500 -10.018000
N -5.602200 -9.579400 -13.656100
N -5.531200 -7.566400 -12.478100
N -5.407600 -5.533400 -11.385300
C -5.222800 -10.486300 -14.611200
C -5.046700 -8.320900 -13.453300
N -4.986700 -4.246700 -11.286800
C -4.915100 -6.397100 -12.376600
H -4.567000 -10.371400 -15.261100
N -4.048200 -8.007400 -14.293600
N -3.912800 -5.933600 -13.124400
C -3.538100 -6.816300 -14.055000
N -2.466800 -6.412800 -14.866500
N -2.014300 -7.226900 -15.877500
H -1.892600 -4.570200 -14.172000
C -1.763300 -5.258400 -14.784700
C -1.031100 -6.537500 -16.417700
C -0.831300 -5.304600 -15.771900
H -0.526600 -6.831500 -17.141900
H -0.195600 -4.658200 -15.977100
