30
Fragment
H -7.779400 -20.067800 -18.452700
C -7.079600 -19.874800 -19.032400
H -6.878200 -21.647600 -20.132500
C -6.583100 -20.779700 -19.975500
N -6.444100 -18.712100 -19.055800
C -5.584000 -20.127400 -20.614400
N -5.511000 -18.874200 -20.048900
H -5.116400 -14.888300 -17.835900
H -5.051700 -20.460000 -21.300000
N -4.663400 -16.740000 -19.675500
C -4.613200 -17.874700 -20.373400
H -4.503700 -12.580900 -17.198400
C -4.502800 -14.335400 -18.262700
C -4.171300 -13.075000 -17.913000
N -3.789800 -18.154700 -21.385100
N -3.754800 -14.643800 -19.371300
C -3.748800 -15.864900 -20.058100
C -3.217400 -12.668000 -18.861600
N -2.952700 -13.616800 -19.740300
C -2.922500 -17.168100 -21.630500
N -2.838800 -15.997300 -21.017500
H -2.819300 -11.827300 -18.869900
H -2.438000 -19.333400 -23.297900
N -2.019000 -17.415200 -22.664900
C -1.935600 -18.559100 -23.410800
N -1.126900 -16.476300 -23.092400
C -0.989900 -18.349000 -24.338800
H -0.704000 -18.943300 -24.995500
C -0.521300 -17.046200 -24.111600
H 0.139500 -16.634900 -24.621000
30
Fragment
H -14.473000 -30.144200 -18.452700
C -13.773100 -29.951100 -19.032400
H -13.571800 -31.723900 -20.132500
C -13.276700 -30.856000 -19.975500
N -13.137600 -28.788500 -19.055800
C -12.277600 -30.203800 -20.614400
N -12.204500 -28.950600 -20.048900
H -11.810000 -24.964600 -17.835900
H -11.745200 -30.536300 -21.300000
N -11.357000 -26.816400 -19.675500
C -11.306700 -27.951000 -20.373400
H -11.197200 -22.657200 -17.198400
C -11.196400 -24.411800 -18.262700
C -10.864900 -23.151300 -17.913000
N -10.483300 -28.231000 -21.385100
N -10.448400 -24.720100 -19.371300
C -10.442300 -25.941300 -20.058100
C -9.910900 -22.744400 -18.861600
N -9.646200 -23.693100 -19.740300
C -9.616000 -27.244500 -21.630500
N -9.532400 -26.073700 -21.017500
H -9.512800 -21.903600 -18.869900
H -9.131600 -29.409700 -23.297900
N -8.712600 -27.491500 -22.664900
C -8.629100 -28.635400 -23.410800
N -7.820500 -26.552600 -23.092400
C -7.683400 -28.425300 -24.338800
H -7.397600 -29.019600 -24.995500
C -7.214800 -27.122500 -24.111600
H -6.554100 -26.711300 -24.621000
60
Fragment
H -7.779400 -20.067800 -18.452700
C -7.079600 -19.874800 -19.032400
H -6.878200 -21.647600 -20.132500
C -6.583100 -20.779700 -19.975500
N -6.444100 -18.712100 -19.055800
C -5.584000 -20.127400 -20.614400
N -5.511000 -18.874200 -20.048900
H -5.116400 -14.888300 -17.835900
H -5.051700 -20.460000 -21.300000
N -4.663400 -16.740000 -19.675500
C -4.613200 -17.874700 -20.373400
H -4.503700 -12.580900 -17.198400
C -4.502800 -14.335400 -18.262700
C -4.171300 -13.075000 -17.913000
N -3.789800 -18.154700 -21.385100
N -3.754800 -14.643800 -19.371300
C -3.748800 -15.864900 -20.058100
C -3.217400 -12.668000 -18.861600
N -2.952700 -13.616800 -19.740300
C -2.922500 -17.168100 -21.630500
N -2.838800 -15.997300 -21.017500
H -2.819300 -11.827300 -18.869900
H -2.438000 -19.333400 -23.297900
N -2.019000 -17.415200 -22.664900
C -1.935600 -18.559100 -23.410800
N -1.126900 -16.476300 -23.092400
C -0.989900 -18.349000 -24.338800
H -0.704000 -18.943300 -24.995500
C -0.521300 -17.046200 -24.111600
H 0.139500 -16.634900 -24.621000
H -14.473000 -30.144200 -18.452700
C -13.773100 -29.951100 -19.032400
H -13.571800 -31.723900 -20.132500
C -13.276700 -30.856000 -19.975500
N -13.137600 -28.788500 -19.055800
C -12.277600 -30.203800 -20.614400
N -12.204500 -28.950600 -20.048900
H -11.810000 -24.964600 -17.835900
H -11.745200 -30.536300 -21.300000
N -11.357000 -26.816400 -19.675500
C -11.306700 -27.951000 -20.373400
H -11.197200 -22.657200 -17.198400
C -11.196400 -24.411800 -18.262700
C -10.864900 -23.151300 -17.913000
N -10.483300 -28.231000 -21.385100
N -10.448400 -24.720100 -19.371300
C -10.442300 -25.941300 -20.058100
C -9.910900 -22.744400 -18.861600
N -9.646200 -23.693100 -19.740300
C -9.616000 -27.244500 -21.630500
N -9.532400 -26.073700 -21.017500
H -9.512800 -21.903600 -18.869900
H -9.131600 -29.409700 -23.297900
N -8.712600 -27.491500 -22.664900
C -8.629100 -28.635400 -23.410800
N -7.820500 -26.552600 -23.092400
C -7.683400 -28.425300 -24.338800
H -7.397600 -29.019600 -24.995500
C -7.214800 -27.122500 -24.111600
H -6.554100 -26.711300 -24.621000
