30
Fragment
H -7.779400 -20.067800 -18.452700
C -7.079600 -19.874800 -19.032400
H -6.878200 -21.647600 -20.132500
C -6.583100 -20.779700 -19.975500
N -6.444100 -18.712100 -19.055800
C -5.584000 -20.127400 -20.614400
N -5.511000 -18.874200 -20.048900
H -5.116400 -14.888300 -17.835900
H -5.051700 -20.460000 -21.300000
N -4.663400 -16.740000 -19.675500
C -4.613200 -17.874700 -20.373400
H -4.503700 -12.580900 -17.198400
C -4.502800 -14.335400 -18.262700
C -4.171300 -13.075000 -17.913000
N -3.789800 -18.154700 -21.385100
N -3.754800 -14.643800 -19.371300
C -3.748800 -15.864900 -20.058100
C -3.217400 -12.668000 -18.861600
N -2.952700 -13.616800 -19.740300
C -2.922500 -17.168100 -21.630500
N -2.838800 -15.997300 -21.017500
H -2.819300 -11.827300 -18.869900
H -2.438000 -19.333400 -23.297900
N -2.019000 -17.415200 -22.664900
C -1.935600 -18.559100 -23.410800
N -1.126900 -16.476300 -23.092400
C -0.989900 -18.349000 -24.338800
H -0.704000 -18.943300 -24.995500
C -0.521300 -17.046200 -24.111600
H 0.139500 -16.634900 -24.621000
30
Fragment
H 0.612700 -19.676000 -26.734500
H 0.838200 -12.383100 -22.842100
H 1.235300 -14.456700 -24.147400
C 1.241100 -19.088500 -27.089700
C 1.443400 -12.507600 -23.537400
N 1.461200 -17.874200 -26.618600
C 1.666700 -13.639500 -24.252000
C 2.064900 -19.389700 -28.187100
H 2.078400 -20.179200 -28.680000
C 2.326200 -11.572500 -24.082700
H 2.382200 -10.692100 -23.786700
N 2.454700 -17.391000 -27.424700
N 2.525700 -15.378000 -26.246700
N 2.649300 -13.345000 -25.153900
C 2.834200 -18.297900 -28.379900
C 3.010200 -16.132600 -27.221900
N 3.070200 -12.058400 -25.055400
C 3.141800 -14.208800 -26.145200
H 3.489900 -18.183000 -29.029700
N 4.008700 -15.819000 -28.062200
N 4.144100 -13.745200 -26.893000
C 4.518800 -14.627900 -27.823600
N 5.590100 -14.224400 -28.635100
N 6.042600 -15.038600 -29.646200
H 6.164300 -12.381800 -27.940600
C 6.293600 -13.070000 -28.553300
C 7.025900 -14.349200 -30.186300
C 7.225600 -13.116200 -29.540600
H 7.530300 -14.643200 -30.910500
H 7.861300 -12.469800 -29.745700
60
Fragment
H -7.779400 -20.067800 -18.452700
C -7.079600 -19.874800 -19.032400
H -6.878200 -21.647600 -20.132500
C -6.583100 -20.779700 -19.975500
N -6.444100 -18.712100 -19.055800
C -5.584000 -20.127400 -20.614400
N -5.511000 -18.874200 -20.048900
H -5.116400 -14.888300 -17.835900
H -5.051700 -20.460000 -21.300000
N -4.663400 -16.740000 -19.675500
C -4.613200 -17.874700 -20.373400
H -4.503700 -12.580900 -17.198400
C -4.502800 -14.335400 -18.262700
C -4.171300 -13.075000 -17.913000
N -3.789800 -18.154700 -21.385100
N -3.754800 -14.643800 -19.371300
C -3.748800 -15.864900 -20.058100
C -3.217400 -12.668000 -18.861600
N -2.952700 -13.616800 -19.740300
C -2.922500 -17.168100 -21.630500
N -2.838800 -15.997300 -21.017500
H -2.819300 -11.827300 -18.869900
H -2.438000 -19.333400 -23.297900
N -2.019000 -17.415200 -22.664900
C -1.935600 -18.559100 -23.410800
N -1.126900 -16.476300 -23.092400
C -0.989900 -18.349000 -24.338800
H -0.704000 -18.943300 -24.995500
C -0.521300 -17.046200 -24.111600
H 0.139500 -16.634900 -24.621000
H 0.612700 -19.676000 -26.734500
H 0.838200 -12.383100 -22.842100
H 1.235300 -14.456700 -24.147400
C 1.241100 -19.088500 -27.089700
C 1.443400 -12.507600 -23.537400
N 1.461200 -17.874200 -26.618600
C 1.666700 -13.639500 -24.252000
C 2.064900 -19.389700 -28.187100
H 2.078400 -20.179200 -28.680000
C 2.326200 -11.572500 -24.082700
H 2.382200 -10.692100 -23.786700
N 2.454700 -17.391000 -27.424700
N 2.525700 -15.378000 -26.246700
N 2.649300 -13.345000 -25.153900
C 2.834200 -18.297900 -28.379900
C 3.010200 -16.132600 -27.221900
N 3.070200 -12.058400 -25.055400
C 3.141800 -14.208800 -26.145200
H 3.489900 -18.183000 -29.029700
N 4.008700 -15.819000 -28.062200
N 4.144100 -13.745200 -26.893000
C 4.518800 -14.627900 -27.823600
N 5.590100 -14.224400 -28.635100
N 6.042600 -15.038600 -29.646200
H 6.164300 -12.381800 -27.940600
C 6.293600 -13.070000 -28.553300
C 7.025900 -14.349200 -30.186300
C 7.225600 -13.116200 -29.540600
H 7.530300 -14.643200 -30.910500
H 7.861300 -12.469800 -29.745700
