30
Fragment
N -17.951800 -19.300000 -14.765400
N -17.869600 -19.754100 -19.154500
C -17.691900 -18.932100 -15.817400
C -17.624400 -19.121700 -18.233700
C -17.359400 -18.357500 -17.066600
H -16.966900 -12.932400 -14.598100
H -16.827200 -16.945400 -15.098600
C -16.825700 -17.068600 -17.087000
N -16.789300 -17.001900 -20.659400
H -16.788400 -12.171200 -12.427400
C -16.685900 -16.751600 -19.548200
N -16.615600 -16.462800 -15.864700
C -16.570300 -13.466300 -13.948300
C -16.499200 -16.286800 -18.221200
C -16.468000 -13.015500 -12.652300
C -16.168700 -15.197000 -15.676200
C -16.078800 -14.725400 -14.284700
C -15.993800 -14.974200 -18.089500
C -15.890300 -13.811000 -11.686100
C -15.834400 -14.442200 -16.772100
H -15.816400 -13.500800 -10.812600
H -15.732400 -14.616300 -19.982700
N -15.665900 -14.243200 -19.145000
C -15.517600 -15.526900 -13.300500
C -15.425200 -15.061800 -12.010200
H -15.389100 -13.402700 -19.054100
C -15.274700 -13.134300 -16.631300
H -15.205200 -16.377300 -13.514000
H -15.045100 -15.598000 -11.352900
N -14.807200 -12.090500 -16.615100
30
Fragment
N -17.550200 -10.363400 -14.765400
N -17.468000 -10.817500 -19.154500
C -17.290300 -9.995500 -15.817400
C -17.222800 -10.185200 -18.233700
C -16.957800 -9.420900 -17.066600
H -16.565300 -3.995800 -14.598100
H -16.425600 -8.008900 -15.098600
C -16.424100 -8.132000 -17.087000
N -16.387700 -8.065300 -20.659400
H -16.386800 -3.234700 -12.427400
C -16.284300 -7.815000 -19.548200
N -16.214000 -7.526200 -15.864700
C -16.168700 -4.529700 -13.948300
C -16.097700 -7.350200 -18.221200
C -16.066400 -4.078900 -12.652300
C -15.767100 -6.260400 -15.676200
C -15.677200 -5.788800 -14.284700
C -15.592200 -6.037600 -18.089500
C -15.488700 -4.874400 -11.686100
C -15.432800 -5.505600 -16.772100
H -15.414800 -4.564300 -10.812600
H -15.330800 -5.679700 -19.982700
N -15.264300 -5.306600 -19.145000
C -15.116000 -6.590300 -13.300500
C -15.023600 -6.125200 -12.010200
H -14.987500 -4.466100 -19.054100
C -14.873100 -4.197700 -16.631300
H -14.803600 -7.440800 -13.514000
H -14.643500 -6.661500 -11.352900
N -14.405600 -3.154000 -16.615100
60
Fragment
N -17.951800 -19.300000 -14.765400
N -17.869600 -19.754100 -19.154500
C -17.691900 -18.932100 -15.817400
C -17.624400 -19.121700 -18.233700
C -17.359400 -18.357500 -17.066600
H -16.966900 -12.932400 -14.598100
H -16.827200 -16.945400 -15.098600
C -16.825700 -17.068600 -17.087000
N -16.789300 -17.001900 -20.659400
H -16.788400 -12.171200 -12.427400
C -16.685900 -16.751600 -19.548200
N -16.615600 -16.462800 -15.864700
C -16.570300 -13.466300 -13.948300
C -16.499200 -16.286800 -18.221200
C -16.468000 -13.015500 -12.652300
C -16.168700 -15.197000 -15.676200
C -16.078800 -14.725400 -14.284700
C -15.993800 -14.974200 -18.089500
C -15.890300 -13.811000 -11.686100
C -15.834400 -14.442200 -16.772100
H -15.816400 -13.500800 -10.812600
H -15.732400 -14.616300 -19.982700
N -15.665900 -14.243200 -19.145000
C -15.517600 -15.526900 -13.300500
C -15.425200 -15.061800 -12.010200
H -15.389100 -13.402700 -19.054100
C -15.274700 -13.134300 -16.631300
H -15.205200 -16.377300 -13.514000
H -15.045100 -15.598000 -11.352900
N -14.807200 -12.090500 -16.615100
N -17.550200 -10.363400 -14.765400
N -17.468000 -10.817500 -19.154500
C -17.290300 -9.995500 -15.817400
C -17.222800 -10.185200 -18.233700
C -16.957800 -9.420900 -17.066600
H -16.565300 -3.995800 -14.598100
H -16.425600 -8.008900 -15.098600
C -16.424100 -8.132000 -17.087000
N -16.387700 -8.065300 -20.659400
H -16.386800 -3.234700 -12.427400
C -16.284300 -7.815000 -19.548200
N -16.214000 -7.526200 -15.864700
C -16.168700 -4.529700 -13.948300
C -16.097700 -7.350200 -18.221200
C -16.066400 -4.078900 -12.652300
C -15.767100 -6.260400 -15.676200
C -15.677200 -5.788800 -14.284700
C -15.592200 -6.037600 -18.089500
C -15.488700 -4.874400 -11.686100
C -15.432800 -5.505600 -16.772100
H -15.414800 -4.564300 -10.812600
H -15.330800 -5.679700 -19.982700
N -15.264300 -5.306600 -19.145000
C -15.116000 -6.590300 -13.300500
C -15.023600 -6.125200 -12.010200
H -14.987500 -4.466100 -19.054100
C -14.873100 -4.197700 -16.631300
H -14.803600 -7.440800 -13.514000
H -14.643500 -6.661500 -11.352900
N -14.405600 -3.154000 -16.615100
