30
Fragment
N -17.951800 -19.300000 -14.765400
N -17.869600 -19.754100 -19.154500
C -17.691900 -18.932100 -15.817400
C -17.624400 -19.121700 -18.233700
C -17.359400 -18.357500 -17.066600
H -16.966900 -12.932400 -14.598100
H -16.827200 -16.945400 -15.098600
C -16.825700 -17.068600 -17.087000
N -16.789300 -17.001900 -20.659400
H -16.788400 -12.171200 -12.427400
C -16.685900 -16.751600 -19.548200
N -16.615600 -16.462800 -15.864700
C -16.570300 -13.466300 -13.948300
C -16.499200 -16.286800 -18.221200
C -16.468000 -13.015500 -12.652300
C -16.168700 -15.197000 -15.676200
C -16.078800 -14.725400 -14.284700
C -15.993800 -14.974200 -18.089500
C -15.890300 -13.811000 -11.686100
C -15.834400 -14.442200 -16.772100
H -15.816400 -13.500800 -10.812600
H -15.732400 -14.616300 -19.982700
N -15.665900 -14.243200 -19.145000
C -15.517600 -15.526900 -13.300500
C -15.425200 -15.061800 -12.010200
H -15.389100 -13.402700 -19.054100
C -15.274700 -13.134300 -16.631300
H -15.205200 -16.377300 -13.514000
H -15.045100 -15.598000 -11.352900
N -14.807200 -12.090500 -16.615100
30
Fragment
N -19.476700 -9.682600 -7.504100
H -19.238800 -6.175100 -12.766300
H -19.078700 -5.395800 -10.605200
C -19.009200 -8.638800 -7.487800
H -18.894800 -8.370400 -5.065000
C -18.858700 -6.711300 -12.108900
C -18.766200 -6.246200 -10.818600
N -18.618000 -7.530000 -4.974100
H -18.551500 -7.156800 -4.136400
H -18.467400 -8.272300 -13.306500
C -18.449500 -7.330900 -7.347100
C -18.393600 -7.962100 -12.433100
C -18.290100 -6.798900 -6.029700
C -18.205100 -7.047800 -9.834500
C -18.115200 -6.576100 -8.442900
C -17.815900 -8.757600 -11.466800
C -17.784600 -5.486300 -5.898000
C -17.713600 -8.306800 -10.170800
N -17.668200 -5.310300 -8.254400
C -17.598000 -5.021500 -4.570900
H -17.495500 -9.601900 -11.691800
N -17.494600 -4.771200 -3.459800
C -17.458200 -4.704600 -7.032200
H -17.456700 -4.827700 -9.020600
H -17.316900 -8.840700 -9.521000
C -16.924500 -3.415600 -7.052600
C -16.659500 -2.651400 -5.885400
C -16.592000 -2.841000 -8.301700
N -16.414200 -2.019000 -4.964700
N -16.332100 -2.473100 -9.353800
60
Fragment
N -17.951800 -19.300000 -14.765400
N -17.869600 -19.754100 -19.154500
C -17.691900 -18.932100 -15.817400
C -17.624400 -19.121700 -18.233700
C -17.359400 -18.357500 -17.066600
H -16.966900 -12.932400 -14.598100
H -16.827200 -16.945400 -15.098600
C -16.825700 -17.068600 -17.087000
N -16.789300 -17.001900 -20.659400
H -16.788400 -12.171200 -12.427400
C -16.685900 -16.751600 -19.548200
N -16.615600 -16.462800 -15.864700
C -16.570300 -13.466300 -13.948300
C -16.499200 -16.286800 -18.221200
C -16.468000 -13.015500 -12.652300
C -16.168700 -15.197000 -15.676200
C -16.078800 -14.725400 -14.284700
C -15.993800 -14.974200 -18.089500
C -15.890300 -13.811000 -11.686100
C -15.834400 -14.442200 -16.772100
H -15.816400 -13.500800 -10.812600
H -15.732400 -14.616300 -19.982700
N -15.665900 -14.243200 -19.145000
C -15.517600 -15.526900 -13.300500
C -15.425200 -15.061800 -12.010200
H -15.389100 -13.402700 -19.054100
C -15.274700 -13.134300 -16.631300
H -15.205200 -16.377300 -13.514000
H -15.045100 -15.598000 -11.352900
N -14.807200 -12.090500 -16.615100
N -19.476700 -9.682600 -7.504100
H -19.238800 -6.175100 -12.766300
H -19.078700 -5.395800 -10.605200
C -19.009200 -8.638800 -7.487800
H -18.894800 -8.370400 -5.065000
C -18.858700 -6.711300 -12.108900
C -18.766200 -6.246200 -10.818600
N -18.618000 -7.530000 -4.974100
H -18.551500 -7.156800 -4.136400
H -18.467400 -8.272300 -13.306500
C -18.449500 -7.330900 -7.347100
C -18.393600 -7.962100 -12.433100
C -18.290100 -6.798900 -6.029700
C -18.205100 -7.047800 -9.834500
C -18.115200 -6.576100 -8.442900
C -17.815900 -8.757600 -11.466800
C -17.784600 -5.486300 -5.898000
C -17.713600 -8.306800 -10.170800
N -17.668200 -5.310300 -8.254400
C -17.598000 -5.021500 -4.570900
H -17.495500 -9.601900 -11.691800
N -17.494600 -4.771200 -3.459800
C -17.458200 -4.704600 -7.032200
H -17.456700 -4.827700 -9.020600
H -17.316900 -8.840700 -9.521000
C -16.924500 -3.415600 -7.052600
C -16.659500 -2.651400 -5.885400
C -16.592000 -2.841000 -8.301700
N -16.414200 -2.019000 -4.964700
N -16.332100 -2.473100 -9.353800
