30
Fragment
N -17.951800 -19.300000 -14.765400
N -17.869600 -19.754100 -19.154500
C -17.691900 -18.932100 -15.817400
C -17.624400 -19.121700 -18.233700
C -17.359400 -18.357500 -17.066600
H -16.966900 -12.932400 -14.598100
H -16.827200 -16.945400 -15.098600
C -16.825700 -17.068600 -17.087000
N -16.789300 -17.001900 -20.659400
H -16.788400 -12.171200 -12.427400
C -16.685900 -16.751600 -19.548200
N -16.615600 -16.462800 -15.864700
C -16.570300 -13.466300 -13.948300
C -16.499200 -16.286800 -18.221200
C -16.468000 -13.015500 -12.652300
C -16.168700 -15.197000 -15.676200
C -16.078800 -14.725400 -14.284700
C -15.993800 -14.974200 -18.089500
C -15.890300 -13.811000 -11.686100
C -15.834400 -14.442200 -16.772100
H -15.816400 -13.500800 -10.812600
H -15.732400 -14.616300 -19.982700
N -15.665900 -14.243200 -19.145000
C -15.517600 -15.526900 -13.300500
C -15.425200 -15.061800 -12.010200
H -15.389100 -13.402700 -19.054100
C -15.274700 -13.134300 -16.631300
H -15.205200 -16.377300 -13.514000
H -15.045100 -15.598000 -11.352900
N -14.807200 -12.090500 -16.615100
30
Fragment
N -12.519100 -18.619200 -7.504100
H -12.281200 -15.111700 -12.766300
H -12.121100 -14.332400 -10.605200
C -12.051600 -17.575400 -7.487800
H -11.937200 -17.307000 -5.065000
C -11.901100 -15.647900 -12.108900
C -11.808600 -15.182800 -10.818600
N -11.660400 -16.466500 -4.974100
H -11.593900 -16.093400 -4.136400
H -11.509800 -17.208900 -13.306500
C -11.491900 -16.267500 -7.347100
C -11.436000 -16.898700 -12.433100
C -11.332500 -15.735500 -6.029700
C -11.247400 -15.984300 -9.834500
C -11.157600 -15.512700 -8.442900
C -10.858300 -17.694200 -11.466800
C -10.827000 -14.422900 -5.898000
C -10.756000 -17.243400 -10.170800
N -10.710600 -14.246900 -8.254400
C -10.640400 -13.958100 -4.570900
H -10.537800 -18.538500 -11.691800
N -10.537000 -13.707800 -3.459800
C -10.500600 -13.641100 -7.032200
H -10.499000 -13.764300 -9.020600
H -10.359300 -17.777300 -9.521000
C -9.966900 -12.352200 -7.052600
C -9.701900 -11.588000 -5.885400
C -9.634300 -11.777600 -8.301700
N -9.456600 -10.955600 -4.964700
N -9.374400 -11.409700 -9.353800
60
Fragment
N -17.951800 -19.300000 -14.765400
N -17.869600 -19.754100 -19.154500
C -17.691900 -18.932100 -15.817400
C -17.624400 -19.121700 -18.233700
C -17.359400 -18.357500 -17.066600
H -16.966900 -12.932400 -14.598100
H -16.827200 -16.945400 -15.098600
C -16.825700 -17.068600 -17.087000
N -16.789300 -17.001900 -20.659400
H -16.788400 -12.171200 -12.427400
C -16.685900 -16.751600 -19.548200
N -16.615600 -16.462800 -15.864700
C -16.570300 -13.466300 -13.948300
C -16.499200 -16.286800 -18.221200
C -16.468000 -13.015500 -12.652300
C -16.168700 -15.197000 -15.676200
C -16.078800 -14.725400 -14.284700
C -15.993800 -14.974200 -18.089500
C -15.890300 -13.811000 -11.686100
C -15.834400 -14.442200 -16.772100
H -15.816400 -13.500800 -10.812600
H -15.732400 -14.616300 -19.982700
N -15.665900 -14.243200 -19.145000
C -15.517600 -15.526900 -13.300500
C -15.425200 -15.061800 -12.010200
H -15.389100 -13.402700 -19.054100
C -15.274700 -13.134300 -16.631300
H -15.205200 -16.377300 -13.514000
H -15.045100 -15.598000 -11.352900
N -14.807200 -12.090500 -16.615100
N -12.519100 -18.619200 -7.504100
H -12.281200 -15.111700 -12.766300
H -12.121100 -14.332400 -10.605200
C -12.051600 -17.575400 -7.487800
H -11.937200 -17.307000 -5.065000
C -11.901100 -15.647900 -12.108900
C -11.808600 -15.182800 -10.818600
N -11.660400 -16.466500 -4.974100
H -11.593900 -16.093400 -4.136400
H -11.509800 -17.208900 -13.306500
C -11.491900 -16.267500 -7.347100
C -11.436000 -16.898700 -12.433100
C -11.332500 -15.735500 -6.029700
C -11.247400 -15.984300 -9.834500
C -11.157600 -15.512700 -8.442900
C -10.858300 -17.694200 -11.466800
C -10.827000 -14.422900 -5.898000
C -10.756000 -17.243400 -10.170800
N -10.710600 -14.246900 -8.254400
C -10.640400 -13.958100 -4.570900
H -10.537800 -18.538500 -11.691800
N -10.537000 -13.707800 -3.459800
C -10.500600 -13.641100 -7.032200
H -10.499000 -13.764300 -9.020600
H -10.359300 -17.777300 -9.521000
C -9.966900 -12.352200 -7.052600
C -9.701900 -11.588000 -5.885400
C -9.634300 -11.777600 -8.301700
N -9.456600 -10.955600 -4.964700
N -9.374400 -11.409700 -9.353800
