12
Fragment
H -5.879800 -13.856000 -18.762800
H -5.333100 -12.729600 -16.529800
H -5.224900 -15.257000 -19.019800
C -5.065900 -14.363000 -18.708900
N -4.609000 -14.403800 -17.318900
C -4.471900 -13.144100 -16.614300
H -4.470700 -16.323600 -17.219900
H -4.394200 -13.948500 -19.254700
C -4.340200 -15.545200 -16.728100
H -4.106600 -13.304600 -15.741000
O -3.927200 -15.662900 -15.569800
H -3.884200 -12.565500 -17.105400
39
Fragment
H -5.998100 -6.729000 -10.581500
C -5.072700 -6.494300 -10.685200
H -5.000600 -8.801300 -11.976400
H -4.964200 -5.551500 -10.537800
C -4.668600 -8.138900 -12.537800
C -4.620200 -6.840500 -12.075200
H -4.546300 -6.980300 -10.046300
H -4.310600 -9.377400 -14.078100
C -4.243800 -8.492700 -13.798600
C -4.110500 -5.901200 -12.944600
H -4.068000 -5.012800 -12.672200
C -3.718100 -7.538800 -14.651000
C -3.663000 -6.233200 -14.200700
H -3.318200 -5.570200 -14.755300
O -3.317000 -9.184900 -16.383800
C -3.215000 -7.860300 -15.970300
C -2.776300 -9.190100 -17.639900
N -2.693500 -10.311100 -18.356100
N -2.661100 -7.072700 -16.838100
C -2.371200 -7.911500 -17.928200
C -2.141900 -10.016700 -19.516700
H -1.947600 -11.841600 -20.412000
N -1.863900 -10.857400 -20.539800
C -1.788600 -7.586800 -19.180300
N -1.730000 -8.781000 -19.952300
O -1.374700 -6.521600 -19.611200
C -1.308200 -10.116100 -21.551600
N -1.214500 -8.846800 -21.239700
H -1.154700 -12.613400 -22.388800
C -0.897600 -10.668500 -22.838600
C -0.891600 -12.030100 -23.062900
H -0.505300 -8.899600 -23.714900
H -0.502200 -13.442100 -24.438200
C -0.498800 -9.819600 -23.852800
C -0.494700 -12.524500 -24.288100
C -0.090200 -10.327100 -25.072100
C -0.089200 -11.677800 -25.285500
H 0.185100 -9.750200 -25.748000
H 0.185800 -12.020700 -26.105000
51
Fragment
H -5.879800 -13.856000 -18.762800
H -5.333100 -12.729600 -16.529800
H -5.224900 -15.257000 -19.019800
C -5.065900 -14.363000 -18.708900
N -4.609000 -14.403800 -17.318900
C -4.471900 -13.144100 -16.614300
H -4.470700 -16.323600 -17.219900
H -4.394200 -13.948500 -19.254700
C -4.340200 -15.545200 -16.728100
H -4.106600 -13.304600 -15.741000
O -3.927200 -15.662900 -15.569800
H -3.884200 -12.565500 -17.105400
H -5.998100 -6.729000 -10.581500
C -5.072700 -6.494300 -10.685200
H -5.000600 -8.801300 -11.976400
H -4.964200 -5.551500 -10.537800
C -4.668600 -8.138900 -12.537800
C -4.620200 -6.840500 -12.075200
H -4.546300 -6.980300 -10.046300
H -4.310600 -9.377400 -14.078100
C -4.243800 -8.492700 -13.798600
C -4.110500 -5.901200 -12.944600
H -4.068000 -5.012800 -12.672200
C -3.718100 -7.538800 -14.651000
C -3.663000 -6.233200 -14.200700
H -3.318200 -5.570200 -14.755300
O -3.317000 -9.184900 -16.383800
C -3.215000 -7.860300 -15.970300
C -2.776300 -9.190100 -17.639900
N -2.693500 -10.311100 -18.356100
N -2.661100 -7.072700 -16.838100
C -2.371200 -7.911500 -17.928200
C -2.141900 -10.016700 -19.516700
H -1.947600 -11.841600 -20.412000
N -1.863900 -10.857400 -20.539800
C -1.788600 -7.586800 -19.180300
N -1.730000 -8.781000 -19.952300
O -1.374700 -6.521600 -19.611200
C -1.308200 -10.116100 -21.551600
N -1.214500 -8.846800 -21.239700
H -1.154700 -12.613400 -22.388800
C -0.897600 -10.668500 -22.838600
C -0.891600 -12.030100 -23.062900
H -0.505300 -8.899600 -23.714900
H -0.502200 -13.442100 -24.438200
C -0.498800 -9.819600 -23.852800
C -0.494700 -12.524500 -24.288100
C -0.090200 -10.327100 -25.072100
C -0.089200 -11.677800 -25.285500
H 0.185100 -9.750200 -25.748000
H 0.185800 -12.020700 -26.105000
