12
Fragment
H -5.879800 -13.856000 -18.762800
H -5.333100 -12.729600 -16.529800
H -5.224900 -15.257000 -19.019800
C -5.065900 -14.363000 -18.708900
N -4.609000 -14.403800 -17.318900
C -4.471900 -13.144100 -16.614300
H -4.470700 -16.323600 -17.219900
H -4.394200 -13.948500 -19.254700
C -4.340200 -15.545200 -16.728100
H -4.106600 -13.304600 -15.741000
O -3.927200 -15.662900 -15.569800
H -3.884200 -12.565500 -17.105400
39
Fragment
H -10.191100 -17.970300 -10.581500
C -9.265700 -17.735600 -10.685200
H -9.193600 -20.042600 -11.976400
H -9.157200 -16.792800 -10.537800
C -8.861600 -19.380200 -12.537800
C -8.813200 -18.081800 -12.075200
H -8.739300 -18.221600 -10.046300
H -8.503600 -20.618700 -14.078100
C -8.436800 -19.734000 -13.798600
C -8.303500 -17.142500 -12.944600
H -8.260900 -16.254100 -12.672200
C -7.911100 -18.780100 -14.651000
C -7.855900 -17.474500 -14.200700
H -7.511100 -16.811500 -14.755300
O -7.510000 -20.426200 -16.383800
C -7.408000 -19.101600 -15.970300
C -6.969300 -20.431400 -17.639900
N -6.886500 -21.552400 -18.356100
N -6.854100 -18.314000 -16.838100
C -6.564200 -19.152800 -17.928200
C -6.334900 -21.258000 -19.516700
H -6.140600 -23.082900 -20.412000
N -6.056900 -22.098700 -20.539800
C -5.981600 -18.828100 -19.180300
N -5.923000 -20.022300 -19.952300
O -5.567700 -17.762900 -19.611200
C -5.501200 -21.357400 -21.551600
N -5.407500 -20.088100 -21.239700
H -5.347700 -23.854700 -22.388800
C -5.090600 -21.909800 -22.838600
C -5.084600 -23.271400 -23.062900
H -4.698300 -20.140900 -23.714900
H -4.695200 -24.683400 -24.438200
C -4.691800 -21.060900 -23.852800
C -4.687700 -23.765800 -24.288100
C -4.283200 -21.568400 -25.072100
C -4.282200 -22.919100 -25.285500
H -4.007900 -20.991500 -25.748000
H -4.007200 -23.262000 -26.105000
51
Fragment
H -5.879800 -13.856000 -18.762800
H -5.333100 -12.729600 -16.529800
H -5.224900 -15.257000 -19.019800
C -5.065900 -14.363000 -18.708900
N -4.609000 -14.403800 -17.318900
C -4.471900 -13.144100 -16.614300
H -4.470700 -16.323600 -17.219900
H -4.394200 -13.948500 -19.254700
C -4.340200 -15.545200 -16.728100
H -4.106600 -13.304600 -15.741000
O -3.927200 -15.662900 -15.569800
H -3.884200 -12.565500 -17.105400
H -10.191100 -17.970300 -10.581500
C -9.265700 -17.735600 -10.685200
H -9.193600 -20.042600 -11.976400
H -9.157200 -16.792800 -10.537800
C -8.861600 -19.380200 -12.537800
C -8.813200 -18.081800 -12.075200
H -8.739300 -18.221600 -10.046300
H -8.503600 -20.618700 -14.078100
C -8.436800 -19.734000 -13.798600
C -8.303500 -17.142500 -12.944600
H -8.260900 -16.254100 -12.672200
C -7.911100 -18.780100 -14.651000
C -7.855900 -17.474500 -14.200700
H -7.511100 -16.811500 -14.755300
O -7.510000 -20.426200 -16.383800
C -7.408000 -19.101600 -15.970300
C -6.969300 -20.431400 -17.639900
N -6.886500 -21.552400 -18.356100
N -6.854100 -18.314000 -16.838100
C -6.564200 -19.152800 -17.928200
C -6.334900 -21.258000 -19.516700
H -6.140600 -23.082900 -20.412000
N -6.056900 -22.098700 -20.539800
C -5.981600 -18.828100 -19.180300
N -5.923000 -20.022300 -19.952300
O -5.567700 -17.762900 -19.611200
C -5.501200 -21.357400 -21.551600
N -5.407500 -20.088100 -21.239700
H -5.347700 -23.854700 -22.388800
C -5.090600 -21.909800 -22.838600
C -5.084600 -23.271400 -23.062900
H -4.698300 -20.140900 -23.714900
H -4.695200 -24.683400 -24.438200
C -4.691800 -21.060900 -23.852800
C -4.687700 -23.765800 -24.288100
C -4.283200 -21.568400 -25.072100
C -4.282200 -22.919100 -25.285500
H -4.007900 -20.991500 -25.748000
H -4.007200 -23.262000 -26.105000
