34
Fragment
H -26.074300 -10.261600 -50.012600
N -25.606700 -10.409200 -48.098100
C -25.569300 -10.714800 -49.375900
H -25.163200 -10.738700 -45.695000
H -24.792200 -14.704800 -42.653500
H -24.758400 -12.250600 -45.796200
N -24.742200 -11.738100 -49.698100
N -24.740100 -11.313800 -47.562800
C -24.547700 -11.359600 -46.116000
N -24.418900 -12.850700 -43.240200
F -24.296600 -8.470000 -44.962400
C -24.240800 -12.090200 -48.519100
C -24.144900 -14.110600 -42.957900
H -23.685300 -10.443300 -43.780700
H -23.630800 -12.778600 -48.382200
H -23.349700 -6.430500 -46.099700
C -23.286400 -8.440400 -45.878000
N -23.198800 -12.376900 -43.635900
C -23.118000 -11.004900 -45.704200
C -23.012300 -11.030900 -44.158200
C -22.924500 -7.210700 -46.373500
N -22.850700 -14.478200 -43.144600
C -22.694200 -9.638000 -46.254300
O -22.322600 -12.039900 -46.254100
C -22.296500 -13.353700 -43.576900
H -22.141200 -10.699700 -43.890300
C -21.898900 -7.187900 -47.299500
C -21.675800 -9.541100 -47.200500
F -21.507400 -5.986900 -47.795600
H -21.481800 -11.961100 -45.987300
H -21.400800 -13.260000 -43.808800
C -21.271700 -8.321700 -47.725600
H -21.253600 -10.317700 -47.488400
H -20.588300 -8.278600 -48.354100
34
Fragment
H -33.434100 -14.506200 -48.371000
N -32.966500 -14.653800 -50.285500
C -32.929100 -14.959300 -49.007700
H -32.523000 -14.983300 -52.688600
H -32.152000 -18.949400 -55.730100
H -32.118200 -16.495200 -52.587400
N -32.102000 -15.982700 -48.685500
N -32.099900 -15.558400 -50.820800
C -31.907500 -15.604200 -52.267600
N -31.778700 -17.095300 -55.143400
F -31.656400 -12.714500 -53.421200
C -31.600600 -16.334700 -49.864500
C -31.504700 -18.355100 -55.425700
H -31.045100 -14.687800 -54.602900
H -30.990600 -17.023200 -50.001400
H -30.709500 -10.675000 -52.283900
C -30.646200 -12.684900 -52.505600
N -30.558600 -16.621500 -54.747700
C -30.477800 -15.249500 -52.679400
C -30.372100 -15.275500 -54.225400
C -30.284300 -11.455300 -52.010100
N -30.210500 -18.722700 -55.239000
C -30.054000 -13.882600 -52.129300
O -29.682400 -16.284500 -52.129500
C -29.656300 -17.598200 -54.806700
H -29.501000 -14.944200 -54.493300
C -29.258700 -11.432400 -51.084100
C -29.035600 -13.785600 -51.183100
F -28.867200 -10.231500 -50.588000
H -28.841600 -16.205700 -52.396300
H -28.760600 -17.504500 -54.574800
C -28.631500 -12.566200 -50.658000
H -28.613400 -14.562200 -50.895200
H -27.948100 -12.523100 -50.029500
68
Fragment
H -26.074300 -10.261600 -50.012600
N -25.606700 -10.409200 -48.098100
C -25.569300 -10.714800 -49.375900
H -25.163200 -10.738700 -45.695000
H -24.792200 -14.704800 -42.653500
H -24.758400 -12.250600 -45.796200
N -24.742200 -11.738100 -49.698100
N -24.740100 -11.313800 -47.562800
C -24.547700 -11.359600 -46.116000
N -24.418900 -12.850700 -43.240200
F -24.296600 -8.470000 -44.962400
C -24.240800 -12.090200 -48.519100
C -24.144900 -14.110600 -42.957900
H -23.685300 -10.443300 -43.780700
H -23.630800 -12.778600 -48.382200
H -23.349700 -6.430500 -46.099700
C -23.286400 -8.440400 -45.878000
N -23.198800 -12.376900 -43.635900
C -23.118000 -11.004900 -45.704200
C -23.012300 -11.030900 -44.158200
C -22.924500 -7.210700 -46.373500
N -22.850700 -14.478200 -43.144600
C -22.694200 -9.638000 -46.254300
O -22.322600 -12.039900 -46.254100
C -22.296500 -13.353700 -43.576900
H -22.141200 -10.699700 -43.890300
C -21.898900 -7.187900 -47.299500
C -21.675800 -9.541100 -47.200500
F -21.507400 -5.986900 -47.795600
H -21.481800 -11.961100 -45.987300
H -21.400800 -13.260000 -43.808800
C -21.271700 -8.321700 -47.725600
H -21.253600 -10.317700 -47.488400
H -20.588300 -8.278600 -48.354100
H -33.434100 -14.506200 -48.371000
N -32.966500 -14.653800 -50.285500
C -32.929100 -14.959300 -49.007700
H -32.523000 -14.983300 -52.688600
H -32.152000 -18.949400 -55.730100
H -32.118200 -16.495200 -52.587400
N -32.102000 -15.982700 -48.685500
N -32.099900 -15.558400 -50.820800
C -31.907500 -15.604200 -52.267600
N -31.778700 -17.095300 -55.143400
F -31.656400 -12.714500 -53.421200
C -31.600600 -16.334700 -49.864500
C -31.504700 -18.355100 -55.425700
H -31.045100 -14.687800 -54.602900
H -30.990600 -17.023200 -50.001400
H -30.709500 -10.675000 -52.283900
C -30.646200 -12.684900 -52.505600
N -30.558600 -16.621500 -54.747700
C -30.477800 -15.249500 -52.679400
C -30.372100 -15.275500 -54.225400
C -30.284300 -11.455300 -52.010100
N -30.210500 -18.722700 -55.239000
C -30.054000 -13.882600 -52.129300
O -29.682400 -16.284500 -52.129500
C -29.656300 -17.598200 -54.806700
H -29.501000 -14.944200 -54.493300
C -29.258700 -11.432400 -51.084100
C -29.035600 -13.785600 -51.183100
F -28.867200 -10.231500 -50.588000
H -28.841600 -16.205700 -52.396300
H -28.760600 -17.504500 -54.574800
C -28.631500 -12.566200 -50.658000
H -28.613400 -14.562200 -50.895200
H -27.948100 -12.523100 -50.029500
