34
Fragment
H -26.074300 -10.261600 -50.012600
N -25.606700 -10.409200 -48.098100
C -25.569300 -10.714800 -49.375900
H -25.163200 -10.738700 -45.695000
H -24.792200 -14.704800 -42.653500
H -24.758400 -12.250600 -45.796200
N -24.742200 -11.738100 -49.698100
N -24.740100 -11.313800 -47.562800
C -24.547700 -11.359600 -46.116000
N -24.418900 -12.850700 -43.240200
F -24.296600 -8.470000 -44.962400
C -24.240800 -12.090200 -48.519100
C -24.144900 -14.110600 -42.957900
H -23.685300 -10.443300 -43.780700
H -23.630800 -12.778600 -48.382200
H -23.349700 -6.430500 -46.099700
C -23.286400 -8.440400 -45.878000
N -23.198800 -12.376900 -43.635900
C -23.118000 -11.004900 -45.704200
C -23.012300 -11.030900 -44.158200
C -22.924500 -7.210700 -46.373500
N -22.850700 -14.478200 -43.144600
C -22.694200 -9.638000 -46.254300
O -22.322600 -12.039900 -46.254100
C -22.296500 -13.353700 -43.576900
H -22.141200 -10.699700 -43.890300
C -21.898900 -7.187900 -47.299500
C -21.675800 -9.541100 -47.200500
F -21.507400 -5.986900 -47.795600
H -21.481800 -11.961100 -45.987300
H -21.400800 -13.260000 -43.808800
C -21.271700 -8.321700 -47.725600
H -21.253600 -10.317700 -47.488400
H -20.588300 -8.278600 -48.354100
11
Fragment
O -19.824900 -11.884100 -44.985200
H -18.980900 -12.512900 -47.052700
C -18.812200 -12.514000 -45.236800
O -18.454400 -12.866400 -46.449400
H -18.278800 -13.082600 -43.347800
C -17.820100 -12.945700 -44.190800
H -17.417700 -13.788000 -44.455300
O -16.812000 -10.797700 -44.490200
C -16.743400 -11.905100 -44.016500
O -15.725500 -12.341000 -43.289300
H -15.114100 -11.715000 -43.167900
45
Fragment
H -26.074300 -10.261600 -50.012600
N -25.606700 -10.409200 -48.098100
C -25.569300 -10.714800 -49.375900
H -25.163200 -10.738700 -45.695000
H -24.792200 -14.704800 -42.653500
H -24.758400 -12.250600 -45.796200
N -24.742200 -11.738100 -49.698100
N -24.740100 -11.313800 -47.562800
C -24.547700 -11.359600 -46.116000
N -24.418900 -12.850700 -43.240200
F -24.296600 -8.470000 -44.962400
C -24.240800 -12.090200 -48.519100
C -24.144900 -14.110600 -42.957900
H -23.685300 -10.443300 -43.780700
H -23.630800 -12.778600 -48.382200
H -23.349700 -6.430500 -46.099700
C -23.286400 -8.440400 -45.878000
N -23.198800 -12.376900 -43.635900
C -23.118000 -11.004900 -45.704200
C -23.012300 -11.030900 -44.158200
C -22.924500 -7.210700 -46.373500
N -22.850700 -14.478200 -43.144600
C -22.694200 -9.638000 -46.254300
O -22.322600 -12.039900 -46.254100
C -22.296500 -13.353700 -43.576900
H -22.141200 -10.699700 -43.890300
C -21.898900 -7.187900 -47.299500
C -21.675800 -9.541100 -47.200500
F -21.507400 -5.986900 -47.795600
H -21.481800 -11.961100 -45.987300
H -21.400800 -13.260000 -43.808800
C -21.271700 -8.321700 -47.725600
H -21.253600 -10.317700 -47.488400
H -20.588300 -8.278600 -48.354100
O -19.824900 -11.884100 -44.985200
H -18.980900 -12.512900 -47.052700
C -18.812200 -12.514000 -45.236800
O -18.454400 -12.866400 -46.449400
H -18.278800 -13.082600 -43.347800
C -17.820100 -12.945700 -44.190800
H -17.417700 -13.788000 -44.455300
O -16.812000 -10.797700 -44.490200
C -16.743400 -11.905100 -44.016500
O -15.725500 -12.341000 -43.289300
H -15.114100 -11.715000 -43.167900
