34
Fragment
H -26.074300 -10.261600 -50.012600
N -25.606700 -10.409200 -48.098100
C -25.569300 -10.714800 -49.375900
H -25.163200 -10.738700 -45.695000
H -24.792200 -14.704800 -42.653500
H -24.758400 -12.250600 -45.796200
N -24.742200 -11.738100 -49.698100
N -24.740100 -11.313800 -47.562800
C -24.547700 -11.359600 -46.116000
N -24.418900 -12.850700 -43.240200
F -24.296600 -8.470000 -44.962400
C -24.240800 -12.090200 -48.519100
C -24.144900 -14.110600 -42.957900
H -23.685300 -10.443300 -43.780700
H -23.630800 -12.778600 -48.382200
H -23.349700 -6.430500 -46.099700
C -23.286400 -8.440400 -45.878000
N -23.198800 -12.376900 -43.635900
C -23.118000 -11.004900 -45.704200
C -23.012300 -11.030900 -44.158200
C -22.924500 -7.210700 -46.373500
N -22.850700 -14.478200 -43.144600
C -22.694200 -9.638000 -46.254300
O -22.322600 -12.039900 -46.254100
C -22.296500 -13.353700 -43.576900
H -22.141200 -10.699700 -43.890300
C -21.898900 -7.187900 -47.299500
C -21.675800 -9.541100 -47.200500
F -21.507400 -5.986900 -47.795600
H -21.481800 -11.961100 -45.987300
H -21.400800 -13.260000 -43.808800
C -21.271700 -8.321700 -47.725600
H -21.253600 -10.317700 -47.488400
H -20.588300 -8.278600 -48.354100
34
Fragment
H -18.714500 -6.017100 -48.371000
N -18.246900 -6.164700 -50.285500
C -18.209500 -6.470200 -49.007700
H -17.803400 -6.494200 -52.688600
H -17.432400 -10.460300 -55.730100
H -17.398600 -8.006100 -52.587400
N -17.382400 -7.493600 -48.685500
N -17.380300 -7.069300 -50.820800
C -17.187900 -7.115100 -52.267600
N -17.059100 -8.606200 -55.143400
F -16.936800 -4.225400 -53.421200
C -16.881000 -7.845600 -49.864500
C -16.785100 -9.866000 -55.425700
H -16.325500 -6.198700 -54.602900
H -16.271000 -8.534100 -50.001400
H -15.989900 -2.185900 -52.283900
C -15.926600 -4.195800 -52.505600
N -15.839000 -8.132400 -54.747700
C -15.758200 -6.760400 -52.679400
C -15.652500 -6.786400 -54.225400
C -15.564700 -2.966200 -52.010100
N -15.490900 -10.233600 -55.239000
C -15.334400 -5.393500 -52.129300
O -14.962800 -7.795400 -52.129500
C -14.936700 -9.109100 -54.806700
H -14.781400 -6.455100 -54.493300
C -14.539100 -2.943300 -51.084100
C -14.316000 -5.296500 -51.183100
F -14.147600 -1.742400 -50.588000
H -14.122000 -7.716600 -52.396300
H -14.041000 -9.015400 -54.574800
C -13.911900 -4.077100 -50.658000
H -13.893800 -6.073100 -50.895200
H -13.228500 -4.034000 -50.029500
68
Fragment
H -26.074300 -10.261600 -50.012600
N -25.606700 -10.409200 -48.098100
C -25.569300 -10.714800 -49.375900
H -25.163200 -10.738700 -45.695000
H -24.792200 -14.704800 -42.653500
H -24.758400 -12.250600 -45.796200
N -24.742200 -11.738100 -49.698100
N -24.740100 -11.313800 -47.562800
C -24.547700 -11.359600 -46.116000
N -24.418900 -12.850700 -43.240200
F -24.296600 -8.470000 -44.962400
C -24.240800 -12.090200 -48.519100
C -24.144900 -14.110600 -42.957900
H -23.685300 -10.443300 -43.780700
H -23.630800 -12.778600 -48.382200
H -23.349700 -6.430500 -46.099700
C -23.286400 -8.440400 -45.878000
N -23.198800 -12.376900 -43.635900
C -23.118000 -11.004900 -45.704200
C -23.012300 -11.030900 -44.158200
C -22.924500 -7.210700 -46.373500
N -22.850700 -14.478200 -43.144600
C -22.694200 -9.638000 -46.254300
O -22.322600 -12.039900 -46.254100
C -22.296500 -13.353700 -43.576900
H -22.141200 -10.699700 -43.890300
C -21.898900 -7.187900 -47.299500
C -21.675800 -9.541100 -47.200500
F -21.507400 -5.986900 -47.795600
H -21.481800 -11.961100 -45.987300
H -21.400800 -13.260000 -43.808800
C -21.271700 -8.321700 -47.725600
H -21.253600 -10.317700 -47.488400
H -20.588300 -8.278600 -48.354100
H -18.714500 -6.017100 -48.371000
N -18.246900 -6.164700 -50.285500
C -18.209500 -6.470200 -49.007700
H -17.803400 -6.494200 -52.688600
H -17.432400 -10.460300 -55.730100
H -17.398600 -8.006100 -52.587400
N -17.382400 -7.493600 -48.685500
N -17.380300 -7.069300 -50.820800
C -17.187900 -7.115100 -52.267600
N -17.059100 -8.606200 -55.143400
F -16.936800 -4.225400 -53.421200
C -16.881000 -7.845600 -49.864500
C -16.785100 -9.866000 -55.425700
H -16.325500 -6.198700 -54.602900
H -16.271000 -8.534100 -50.001400
H -15.989900 -2.185900 -52.283900
C -15.926600 -4.195800 -52.505600
N -15.839000 -8.132400 -54.747700
C -15.758200 -6.760400 -52.679400
C -15.652500 -6.786400 -54.225400
C -15.564700 -2.966200 -52.010100
N -15.490900 -10.233600 -55.239000
C -15.334400 -5.393500 -52.129300
O -14.962800 -7.795400 -52.129500
C -14.936700 -9.109100 -54.806700
H -14.781400 -6.455100 -54.493300
C -14.539100 -2.943300 -51.084100
C -14.316000 -5.296500 -51.183100
F -14.147600 -1.742400 -50.588000
H -14.122000 -7.716600 -52.396300
H -14.041000 -9.015400 -54.574800
C -13.911900 -4.077100 -50.658000
H -13.893800 -6.073100 -50.895200
H -13.228500 -4.034000 -50.029500
