34
Fragment
H -26.074300 -10.261600 -50.012600
N -25.606700 -10.409200 -48.098100
C -25.569300 -10.714800 -49.375900
H -25.163200 -10.738700 -45.695000
H -24.792200 -14.704800 -42.653500
H -24.758400 -12.250600 -45.796200
N -24.742200 -11.738100 -49.698100
N -24.740100 -11.313800 -47.562800
C -24.547700 -11.359600 -46.116000
N -24.418900 -12.850700 -43.240200
F -24.296600 -8.470000 -44.962400
C -24.240800 -12.090200 -48.519100
C -24.144900 -14.110600 -42.957900
H -23.685300 -10.443300 -43.780700
H -23.630800 -12.778600 -48.382200
H -23.349700 -6.430500 -46.099700
C -23.286400 -8.440400 -45.878000
N -23.198800 -12.376900 -43.635900
C -23.118000 -11.004900 -45.704200
C -23.012300 -11.030900 -44.158200
C -22.924500 -7.210700 -46.373500
N -22.850700 -14.478200 -43.144600
C -22.694200 -9.638000 -46.254300
O -22.322600 -12.039900 -46.254100
C -22.296500 -13.353700 -43.576900
H -22.141200 -10.699700 -43.890300
C -21.898900 -7.187900 -47.299500
C -21.675800 -9.541100 -47.200500
F -21.507400 -5.986900 -47.795600
H -21.481800 -11.961100 -45.987300
H -21.400800 -13.260000 -43.808800
C -21.271700 -8.321700 -47.725600
H -21.253600 -10.317700 -47.488400
H -20.588300 -8.278600 -48.354100
34
Fragment
H -26.074300 -1.772500 -50.012600
N -25.606700 -1.920100 -48.098100
C -25.569300 -2.225700 -49.375900
H -25.163200 -2.249600 -45.695000
H -24.792200 -6.215700 -42.653500
H -24.758400 -3.761500 -45.796200
N -24.742200 -3.249000 -49.698100
N -24.740100 -2.824700 -47.562800
C -24.547700 -2.870500 -46.116000
N -24.418900 -4.361600 -43.240200
F -24.296600 0.019100 -44.962400
C -24.240800 -3.601100 -48.519100
C -24.144900 -5.621500 -42.957900
H -23.685300 -1.954200 -43.780700
H -23.630800 -4.289500 -48.382200
H -23.349700 2.058600 -46.099700
C -23.286400 0.048700 -45.878000
N -23.198800 -3.887800 -43.635900
C -23.118000 -2.515800 -45.704200
C -23.012300 -2.541800 -44.158200
C -22.924500 1.278400 -46.373500
N -22.850700 -5.989100 -43.144600
C -22.694200 -1.148900 -46.254300
O -22.322600 -3.550800 -46.254100
C -22.296500 -4.864600 -43.576900
H -22.141200 -2.210600 -43.890300
C -21.898900 1.301200 -47.299500
C -21.675800 -1.052000 -47.200500
F -21.507400 2.502200 -47.795600
H -21.481800 -3.472000 -45.987300
H -21.400800 -4.770900 -43.808800
C -21.271700 0.167400 -47.725600
H -21.253600 -1.828600 -47.488400
H -20.588300 0.210500 -48.354100
68
Fragment
H -26.074300 -10.261600 -50.012600
N -25.606700 -10.409200 -48.098100
C -25.569300 -10.714800 -49.375900
H -25.163200 -10.738700 -45.695000
H -24.792200 -14.704800 -42.653500
H -24.758400 -12.250600 -45.796200
N -24.742200 -11.738100 -49.698100
N -24.740100 -11.313800 -47.562800
C -24.547700 -11.359600 -46.116000
N -24.418900 -12.850700 -43.240200
F -24.296600 -8.470000 -44.962400
C -24.240800 -12.090200 -48.519100
C -24.144900 -14.110600 -42.957900
H -23.685300 -10.443300 -43.780700
H -23.630800 -12.778600 -48.382200
H -23.349700 -6.430500 -46.099700
C -23.286400 -8.440400 -45.878000
N -23.198800 -12.376900 -43.635900
C -23.118000 -11.004900 -45.704200
C -23.012300 -11.030900 -44.158200
C -22.924500 -7.210700 -46.373500
N -22.850700 -14.478200 -43.144600
C -22.694200 -9.638000 -46.254300
O -22.322600 -12.039900 -46.254100
C -22.296500 -13.353700 -43.576900
H -22.141200 -10.699700 -43.890300
C -21.898900 -7.187900 -47.299500
C -21.675800 -9.541100 -47.200500
F -21.507400 -5.986900 -47.795600
H -21.481800 -11.961100 -45.987300
H -21.400800 -13.260000 -43.808800
C -21.271700 -8.321700 -47.725600
H -21.253600 -10.317700 -47.488400
H -20.588300 -8.278600 -48.354100
H -26.074300 -1.772500 -50.012600
N -25.606700 -1.920100 -48.098100
C -25.569300 -2.225700 -49.375900
H -25.163200 -2.249600 -45.695000
H -24.792200 -6.215700 -42.653500
H -24.758400 -3.761500 -45.796200
N -24.742200 -3.249000 -49.698100
N -24.740100 -2.824700 -47.562800
C -24.547700 -2.870500 -46.116000
N -24.418900 -4.361600 -43.240200
F -24.296600 0.019100 -44.962400
C -24.240800 -3.601100 -48.519100
C -24.144900 -5.621500 -42.957900
H -23.685300 -1.954200 -43.780700
H -23.630800 -4.289500 -48.382200
H -23.349700 2.058600 -46.099700
C -23.286400 0.048700 -45.878000
N -23.198800 -3.887800 -43.635900
C -23.118000 -2.515800 -45.704200
C -23.012300 -2.541800 -44.158200
C -22.924500 1.278400 -46.373500
N -22.850700 -5.989100 -43.144600
C -22.694200 -1.148900 -46.254300
O -22.322600 -3.550800 -46.254100
C -22.296500 -4.864600 -43.576900
H -22.141200 -2.210600 -43.890300
C -21.898900 1.301200 -47.299500
C -21.675800 -1.052000 -47.200500
F -21.507400 2.502200 -47.795600
H -21.481800 -3.472000 -45.987300
H -21.400800 -4.770900 -43.808800
C -21.271700 0.167400 -47.725600
H -21.253600 -1.828600 -47.488400
H -20.588300 0.210500 -48.354100
