34
Fragment
H -26.074300 -10.261600 -50.012600
N -25.606700 -10.409200 -48.098100
C -25.569300 -10.714800 -49.375900
H -25.163200 -10.738700 -45.695000
H -24.792200 -14.704800 -42.653500
H -24.758400 -12.250600 -45.796200
N -24.742200 -11.738100 -49.698100
N -24.740100 -11.313800 -47.562800
C -24.547700 -11.359600 -46.116000
N -24.418900 -12.850700 -43.240200
F -24.296600 -8.470000 -44.962400
C -24.240800 -12.090200 -48.519100
C -24.144900 -14.110600 -42.957900
H -23.685300 -10.443300 -43.780700
H -23.630800 -12.778600 -48.382200
H -23.349700 -6.430500 -46.099700
C -23.286400 -8.440400 -45.878000
N -23.198800 -12.376900 -43.635900
C -23.118000 -11.004900 -45.704200
C -23.012300 -11.030900 -44.158200
C -22.924500 -7.210700 -46.373500
N -22.850700 -14.478200 -43.144600
C -22.694200 -9.638000 -46.254300
O -22.322600 -12.039900 -46.254100
C -22.296500 -13.353700 -43.576900
H -22.141200 -10.699700 -43.890300
C -21.898900 -7.187900 -47.299500
C -21.675800 -9.541100 -47.200500
F -21.507400 -5.986900 -47.795600
H -21.481800 -11.961100 -45.987300
H -21.400800 -13.260000 -43.808800
C -21.271700 -8.321700 -47.725600
H -21.253600 -10.317700 -47.488400
H -20.588300 -8.278600 -48.354100
34
Fragment
H -23.570500 -16.767700 -50.029500
H -22.905200 -18.806800 -50.895200
C -22.887100 -16.810800 -50.658000
H -22.758000 -21.749100 -54.574800
H -22.677000 -20.450200 -52.396300
F -22.651400 -14.476000 -50.588000
C -22.483000 -18.030200 -51.183100
C -22.259900 -15.677000 -51.084100
H -22.017600 -19.188800 -54.493300
C -21.862300 -21.842800 -54.806700
O -21.836200 -20.529000 -52.129500
C -21.464600 -18.127100 -52.129300
N -21.308100 -22.967300 -55.239000
C -21.234300 -15.699800 -52.010100
C -21.146500 -19.520000 -54.225400
C -21.040800 -19.494000 -52.679400
N -20.960000 -20.866000 -54.747700
C -20.872400 -16.929500 -52.505600
H -20.809100 -14.919600 -52.283900
H -20.528000 -21.267700 -50.001400
H -20.473500 -18.932400 -54.602900
C -20.013900 -22.599700 -55.425700
C -19.918000 -20.579300 -49.864500
F -19.862200 -16.959100 -53.421200
N -19.739900 -21.339800 -55.143400
C -19.611100 -19.848700 -52.267600
N -19.418700 -19.802900 -50.820800
N -19.416600 -20.227200 -48.685500
H -19.400400 -20.739700 -52.587400
H -19.366600 -23.193900 -55.730100
H -18.995600 -19.227800 -52.688600
C -18.589500 -19.203900 -49.007700
N -18.552100 -18.898300 -50.285500
H -18.084500 -18.750700 -48.371000
68
Fragment
H -26.074300 -10.261600 -50.012600
N -25.606700 -10.409200 -48.098100
C -25.569300 -10.714800 -49.375900
H -25.163200 -10.738700 -45.695000
H -24.792200 -14.704800 -42.653500
H -24.758400 -12.250600 -45.796200
N -24.742200 -11.738100 -49.698100
N -24.740100 -11.313800 -47.562800
C -24.547700 -11.359600 -46.116000
N -24.418900 -12.850700 -43.240200
F -24.296600 -8.470000 -44.962400
C -24.240800 -12.090200 -48.519100
C -24.144900 -14.110600 -42.957900
H -23.685300 -10.443300 -43.780700
H -23.630800 -12.778600 -48.382200
H -23.349700 -6.430500 -46.099700
C -23.286400 -8.440400 -45.878000
N -23.198800 -12.376900 -43.635900
C -23.118000 -11.004900 -45.704200
C -23.012300 -11.030900 -44.158200
C -22.924500 -7.210700 -46.373500
N -22.850700 -14.478200 -43.144600
C -22.694200 -9.638000 -46.254300
O -22.322600 -12.039900 -46.254100
C -22.296500 -13.353700 -43.576900
H -22.141200 -10.699700 -43.890300
C -21.898900 -7.187900 -47.299500
C -21.675800 -9.541100 -47.200500
F -21.507400 -5.986900 -47.795600
H -21.481800 -11.961100 -45.987300
H -21.400800 -13.260000 -43.808800
C -21.271700 -8.321700 -47.725600
H -21.253600 -10.317700 -47.488400
H -20.588300 -8.278600 -48.354100
H -23.570500 -16.767700 -50.029500
H -22.905200 -18.806800 -50.895200
C -22.887100 -16.810800 -50.658000
H -22.758000 -21.749100 -54.574800
H -22.677000 -20.450200 -52.396300
F -22.651400 -14.476000 -50.588000
C -22.483000 -18.030200 -51.183100
C -22.259900 -15.677000 -51.084100
H -22.017600 -19.188800 -54.493300
C -21.862300 -21.842800 -54.806700
O -21.836200 -20.529000 -52.129500
C -21.464600 -18.127100 -52.129300
N -21.308100 -22.967300 -55.239000
C -21.234300 -15.699800 -52.010100
C -21.146500 -19.520000 -54.225400
C -21.040800 -19.494000 -52.679400
N -20.960000 -20.866000 -54.747700
C -20.872400 -16.929500 -52.505600
H -20.809100 -14.919600 -52.283900
H -20.528000 -21.267700 -50.001400
H -20.473500 -18.932400 -54.602900
C -20.013900 -22.599700 -55.425700
C -19.918000 -20.579300 -49.864500
F -19.862200 -16.959100 -53.421200
N -19.739900 -21.339800 -55.143400
C -19.611100 -19.848700 -52.267600
N -19.418700 -19.802900 -50.820800
N -19.416600 -20.227200 -48.685500
H -19.400400 -20.739700 -52.587400
H -19.366600 -23.193900 -55.730100
H -18.995600 -19.227800 -52.688600
C -18.589500 -19.203900 -49.007700
N -18.552100 -18.898300 -50.285500
H -18.084500 -18.750700 -48.371000
