34
Fragment
H -26.074300 -10.261600 -50.012600
N -25.606700 -10.409200 -48.098100
C -25.569300 -10.714800 -49.375900
H -25.163200 -10.738700 -45.695000
H -24.792200 -14.704800 -42.653500
H -24.758400 -12.250600 -45.796200
N -24.742200 -11.738100 -49.698100
N -24.740100 -11.313800 -47.562800
C -24.547700 -11.359600 -46.116000
N -24.418900 -12.850700 -43.240200
F -24.296600 -8.470000 -44.962400
C -24.240800 -12.090200 -48.519100
C -24.144900 -14.110600 -42.957900
H -23.685300 -10.443300 -43.780700
H -23.630800 -12.778600 -48.382200
H -23.349700 -6.430500 -46.099700
C -23.286400 -8.440400 -45.878000
N -23.198800 -12.376900 -43.635900
C -23.118000 -11.004900 -45.704200
C -23.012300 -11.030900 -44.158200
C -22.924500 -7.210700 -46.373500
N -22.850700 -14.478200 -43.144600
C -22.694200 -9.638000 -46.254300
O -22.322600 -12.039900 -46.254100
C -22.296500 -13.353700 -43.576900
H -22.141200 -10.699700 -43.890300
C -21.898900 -7.187900 -47.299500
C -21.675800 -9.541100 -47.200500
F -21.507400 -5.986900 -47.795600
H -21.481800 -11.961100 -45.987300
H -21.400800 -13.260000 -43.808800
C -21.271700 -8.321700 -47.725600
H -21.253600 -10.317700 -47.488400
H -20.588300 -8.278600 -48.354100
34
Fragment
H -30.930300 -4.034000 -48.354100
H -30.265000 -6.073100 -47.488400
C -30.246900 -4.077100 -47.725600
H -30.117800 -9.015400 -43.808800
H -30.036800 -7.716600 -45.987300
F -30.011200 -1.742400 -47.795600
C -29.842800 -5.296500 -47.200500
C -29.619700 -2.943300 -47.299500
H -29.377400 -6.455100 -43.890300
C -29.222100 -9.109100 -43.576900
O -29.196000 -7.795400 -46.254100
C -28.824400 -5.393500 -46.254300
N -28.667900 -10.233600 -43.144600
C -28.594100 -2.966200 -46.373500
C -28.506300 -6.786400 -44.158200
C -28.400600 -6.760400 -45.704200
N -28.319800 -8.132400 -43.635900
C -28.232200 -4.195800 -45.878000
H -28.168900 -2.185900 -46.099700
H -27.887800 -8.534100 -48.382200
H -27.833300 -6.198700 -43.780700
C -27.373700 -9.866000 -42.957900
C -27.277800 -7.845600 -48.519100
F -27.222000 -4.225400 -44.962400
N -27.099700 -8.606200 -43.240200
C -26.970900 -7.115100 -46.116000
N -26.778500 -7.069300 -47.562800
N -26.776400 -7.493600 -49.698100
H -26.760200 -8.006100 -45.796200
H -26.726400 -10.460300 -42.653500
H -26.355400 -6.494200 -45.695000
C -25.949300 -6.470200 -49.375900
N -25.911900 -6.164700 -48.098100
H -25.444300 -6.017100 -50.012600
68
Fragment
H -26.074300 -10.261600 -50.012600
N -25.606700 -10.409200 -48.098100
C -25.569300 -10.714800 -49.375900
H -25.163200 -10.738700 -45.695000
H -24.792200 -14.704800 -42.653500
H -24.758400 -12.250600 -45.796200
N -24.742200 -11.738100 -49.698100
N -24.740100 -11.313800 -47.562800
C -24.547700 -11.359600 -46.116000
N -24.418900 -12.850700 -43.240200
F -24.296600 -8.470000 -44.962400
C -24.240800 -12.090200 -48.519100
C -24.144900 -14.110600 -42.957900
H -23.685300 -10.443300 -43.780700
H -23.630800 -12.778600 -48.382200
H -23.349700 -6.430500 -46.099700
C -23.286400 -8.440400 -45.878000
N -23.198800 -12.376900 -43.635900
C -23.118000 -11.004900 -45.704200
C -23.012300 -11.030900 -44.158200
C -22.924500 -7.210700 -46.373500
N -22.850700 -14.478200 -43.144600
C -22.694200 -9.638000 -46.254300
O -22.322600 -12.039900 -46.254100
C -22.296500 -13.353700 -43.576900
H -22.141200 -10.699700 -43.890300
C -21.898900 -7.187900 -47.299500
C -21.675800 -9.541100 -47.200500
F -21.507400 -5.986900 -47.795600
H -21.481800 -11.961100 -45.987300
H -21.400800 -13.260000 -43.808800
C -21.271700 -8.321700 -47.725600
H -21.253600 -10.317700 -47.488400
H -20.588300 -8.278600 -48.354100
H -30.930300 -4.034000 -48.354100
H -30.265000 -6.073100 -47.488400
C -30.246900 -4.077100 -47.725600
H -30.117800 -9.015400 -43.808800
H -30.036800 -7.716600 -45.987300
F -30.011200 -1.742400 -47.795600
C -29.842800 -5.296500 -47.200500
C -29.619700 -2.943300 -47.299500
H -29.377400 -6.455100 -43.890300
C -29.222100 -9.109100 -43.576900
O -29.196000 -7.795400 -46.254100
C -28.824400 -5.393500 -46.254300
N -28.667900 -10.233600 -43.144600
C -28.594100 -2.966200 -46.373500
C -28.506300 -6.786400 -44.158200
C -28.400600 -6.760400 -45.704200
N -28.319800 -8.132400 -43.635900
C -28.232200 -4.195800 -45.878000
H -28.168900 -2.185900 -46.099700
H -27.887800 -8.534100 -48.382200
H -27.833300 -6.198700 -43.780700
C -27.373700 -9.866000 -42.957900
C -27.277800 -7.845600 -48.519100
F -27.222000 -4.225400 -44.962400
N -27.099700 -8.606200 -43.240200
C -26.970900 -7.115100 -46.116000
N -26.778500 -7.069300 -47.562800
N -26.776400 -7.493600 -49.698100
H -26.760200 -8.006100 -45.796200
H -26.726400 -10.460300 -42.653500
H -26.355400 -6.494200 -45.695000
C -25.949300 -6.470200 -49.375900
N -25.911900 -6.164700 -48.098100
H -25.444300 -6.017100 -50.012600
