19
Fragment
O -17.355100 -12.101500 -36.211300
N -16.711700 -11.576900 -38.686400
N -16.495400 -11.203100 -39.916000
N -16.198700 -12.320600 -36.548300
C -15.747500 -11.898500 -37.834400
O -15.392600 -12.942400 -35.841200
C -15.179600 -11.071800 -40.270300
N -14.670200 -10.685200 -41.423500
C -14.350100 -11.879800 -38.141400
N -14.161500 -11.406700 -39.400200
H -13.419600 -12.554700 -36.625700
C -13.334500 -10.779600 -41.196700
N -13.312500 -12.246300 -37.442700
N -12.960100 -11.199700 -40.000100
O -12.802500 -10.070100 -43.356300
H -12.505300 -12.184600 -37.787700
C -12.290300 -10.375600 -42.197900
H -12.206700 -9.743500 -43.849400
O -11.108600 -10.313300 -41.906000
12
Fragment
O -16.790200 -10.157200 -47.848300
H -15.759200 -8.809500 -46.137700
C -15.654500 -10.656400 -47.792300
H -15.470400 -11.381300 -48.378300
C -14.843900 -9.154200 -46.071100
N -14.678000 -10.266400 -46.991300
H -14.675500 -9.459300 -45.155900
H -14.210000 -8.443300 -46.301100
H -13.411800 -11.651300 -47.686700
C -13.380100 -10.908300 -47.049100
H -13.145100 -11.249200 -46.160900
H -12.707300 -10.257400 -47.337900
31
Fragment
O -17.355100 -12.101500 -36.211300
N -16.711700 -11.576900 -38.686400
N -16.495400 -11.203100 -39.916000
N -16.198700 -12.320600 -36.548300
C -15.747500 -11.898500 -37.834400
O -15.392600 -12.942400 -35.841200
C -15.179600 -11.071800 -40.270300
N -14.670200 -10.685200 -41.423500
C -14.350100 -11.879800 -38.141400
N -14.161500 -11.406700 -39.400200
H -13.419600 -12.554700 -36.625700
C -13.334500 -10.779600 -41.196700
N -13.312500 -12.246300 -37.442700
N -12.960100 -11.199700 -40.000100
O -12.802500 -10.070100 -43.356300
H -12.505300 -12.184600 -37.787700
C -12.290300 -10.375600 -42.197900
H -12.206700 -9.743500 -43.849400
O -11.108600 -10.313300 -41.906000
O -16.790200 -10.157200 -47.848300
H -15.759200 -8.809500 -46.137700
C -15.654500 -10.656400 -47.792300
H -15.470400 -11.381300 -48.378300
C -14.843900 -9.154200 -46.071100
N -14.678000 -10.266400 -46.991300
H -14.675500 -9.459300 -45.155900
H -14.210000 -8.443300 -46.301100
H -13.411800 -11.651300 -47.686700
C -13.380100 -10.908300 -47.049100
H -13.145100 -11.249200 -46.160900
H -12.707300 -10.257400 -47.337900
