19
Fragment
O -17.355100 -12.101500 -36.211300
N -16.711700 -11.576900 -38.686400
N -16.495400 -11.203100 -39.916000
N -16.198700 -12.320600 -36.548300
C -15.747500 -11.898500 -37.834400
O -15.392600 -12.942400 -35.841200
C -15.179600 -11.071800 -40.270300
N -14.670200 -10.685200 -41.423500
C -14.350100 -11.879800 -38.141400
N -14.161500 -11.406700 -39.400200
H -13.419600 -12.554700 -36.625700
C -13.334500 -10.779600 -41.196700
N -13.312500 -12.246300 -37.442700
N -12.960100 -11.199700 -40.000100
O -12.802500 -10.070100 -43.356300
H -12.505300 -12.184600 -37.787700
C -12.290300 -10.375600 -42.197900
H -12.206700 -9.743500 -43.849400
O -11.108600 -10.313300 -41.906000
12
Fragment
H -16.405100 -14.785700 -32.227900
H -16.354500 -13.190500 -30.337200
C -15.457500 -14.604700 -32.405100
C -15.403000 -13.026800 -30.505900
H -15.294100 -14.634700 -33.369700
H -15.189000 -12.094600 -30.294100
N -15.111700 -13.282100 -31.891600
H -14.907700 -15.281900 -31.958200
H -14.864100 -13.622100 -29.944700
C -14.606100 -12.370200 -32.683800
H -14.425800 -12.613900 -33.585400
O -14.344900 -11.205100 -32.333100
31
Fragment
O -17.355100 -12.101500 -36.211300
N -16.711700 -11.576900 -38.686400
N -16.495400 -11.203100 -39.916000
N -16.198700 -12.320600 -36.548300
C -15.747500 -11.898500 -37.834400
O -15.392600 -12.942400 -35.841200
C -15.179600 -11.071800 -40.270300
N -14.670200 -10.685200 -41.423500
C -14.350100 -11.879800 -38.141400
N -14.161500 -11.406700 -39.400200
H -13.419600 -12.554700 -36.625700
C -13.334500 -10.779600 -41.196700
N -13.312500 -12.246300 -37.442700
N -12.960100 -11.199700 -40.000100
O -12.802500 -10.070100 -43.356300
H -12.505300 -12.184600 -37.787700
C -12.290300 -10.375600 -42.197900
H -12.206700 -9.743500 -43.849400
O -11.108600 -10.313300 -41.906000
H -16.405100 -14.785700 -32.227900
H -16.354500 -13.190500 -30.337200
C -15.457500 -14.604700 -32.405100
C -15.403000 -13.026800 -30.505900
H -15.294100 -14.634700 -33.369700
H -15.189000 -12.094600 -30.294100
N -15.111700 -13.282100 -31.891600
H -14.907700 -15.281900 -31.958200
H -14.864100 -13.622100 -29.944700
C -14.606100 -12.370200 -32.683800
H -14.425800 -12.613900 -33.585400
O -14.344900 -11.205100 -32.333100
