19
Fragment
O -17.355100 -12.101500 -36.211300
N -16.711700 -11.576900 -38.686400
N -16.495400 -11.203100 -39.916000
N -16.198700 -12.320600 -36.548300
C -15.747500 -11.898500 -37.834400
O -15.392600 -12.942400 -35.841200
C -15.179600 -11.071800 -40.270300
N -14.670200 -10.685200 -41.423500
C -14.350100 -11.879800 -38.141400
N -14.161500 -11.406700 -39.400200
H -13.419600 -12.554700 -36.625700
C -13.334500 -10.779600 -41.196700
N -13.312500 -12.246300 -37.442700
N -12.960100 -11.199700 -40.000100
O -12.802500 -10.070100 -43.356300
H -12.505300 -12.184600 -37.787700
C -12.290300 -10.375600 -42.197900
H -12.206700 -9.743500 -43.849400
O -11.108600 -10.313300 -41.906000
12
Fragment
O -12.506200 -13.292800 -34.946100
H -11.475200 -14.640500 -33.235500
C -11.370400 -12.793600 -34.890100
H -11.186300 -12.068700 -35.476100
C -10.559900 -14.295800 -33.168900
N -10.393900 -13.183600 -34.089100
H -10.391400 -13.990700 -32.253700
H -9.925900 -15.006700 -33.398900
H -9.127800 -11.798700 -34.784600
C -9.096000 -12.541700 -34.146900
H -8.861000 -12.200800 -33.258700
H -8.423200 -13.192600 -34.435700
31
Fragment
O -17.355100 -12.101500 -36.211300
N -16.711700 -11.576900 -38.686400
N -16.495400 -11.203100 -39.916000
N -16.198700 -12.320600 -36.548300
C -15.747500 -11.898500 -37.834400
O -15.392600 -12.942400 -35.841200
C -15.179600 -11.071800 -40.270300
N -14.670200 -10.685200 -41.423500
C -14.350100 -11.879800 -38.141400
N -14.161500 -11.406700 -39.400200
H -13.419600 -12.554700 -36.625700
C -13.334500 -10.779600 -41.196700
N -13.312500 -12.246300 -37.442700
N -12.960100 -11.199700 -40.000100
O -12.802500 -10.070100 -43.356300
H -12.505300 -12.184600 -37.787700
C -12.290300 -10.375600 -42.197900
H -12.206700 -9.743500 -43.849400
O -11.108600 -10.313300 -41.906000
O -12.506200 -13.292800 -34.946100
H -11.475200 -14.640500 -33.235500
C -11.370400 -12.793600 -34.890100
H -11.186300 -12.068700 -35.476100
C -10.559900 -14.295800 -33.168900
N -10.393900 -13.183600 -34.089100
H -10.391400 -13.990700 -32.253700
H -9.925900 -15.006700 -33.398900
H -9.127800 -11.798700 -34.784600
C -9.096000 -12.541700 -34.146900
H -8.861000 -12.200800 -33.258700
H -8.423200 -13.192600 -34.435700
