19
Fragment
O -17.355100 -12.101500 -36.211300
N -16.711700 -11.576900 -38.686400
N -16.495400 -11.203100 -39.916000
N -16.198700 -12.320600 -36.548300
C -15.747500 -11.898500 -37.834400
O -15.392600 -12.942400 -35.841200
C -15.179600 -11.071800 -40.270300
N -14.670200 -10.685200 -41.423500
C -14.350100 -11.879800 -38.141400
N -14.161500 -11.406700 -39.400200
H -13.419600 -12.554700 -36.625700
C -13.334500 -10.779600 -41.196700
N -13.312500 -12.246300 -37.442700
N -12.960100 -11.199700 -40.000100
O -12.802500 -10.070100 -43.356300
H -12.505300 -12.184600 -37.787700
C -12.290300 -10.375600 -42.197900
H -12.206700 -9.743500 -43.849400
O -11.108600 -10.313300 -41.906000
12
Fragment
H -18.774700 -14.717700 -39.366900
H -18.378400 -14.754500 -36.953200
H -18.146600 -16.286200 -37.354700
C -17.822100 -14.729300 -39.596800
C -17.707400 -15.424100 -37.202200
H -17.657200 -15.425700 -40.267500
H -17.564400 -13.857300 -39.963200
H -17.052500 -15.514500 -36.477800
N -17.036400 -15.007300 -38.404900
C -15.696600 -14.950400 -38.464000
H -15.202100 -15.170700 -37.683400
O -15.079700 -14.629500 -39.468800
31
Fragment
O -17.355100 -12.101500 -36.211300
N -16.711700 -11.576900 -38.686400
N -16.495400 -11.203100 -39.916000
N -16.198700 -12.320600 -36.548300
C -15.747500 -11.898500 -37.834400
O -15.392600 -12.942400 -35.841200
C -15.179600 -11.071800 -40.270300
N -14.670200 -10.685200 -41.423500
C -14.350100 -11.879800 -38.141400
N -14.161500 -11.406700 -39.400200
H -13.419600 -12.554700 -36.625700
C -13.334500 -10.779600 -41.196700
N -13.312500 -12.246300 -37.442700
N -12.960100 -11.199700 -40.000100
O -12.802500 -10.070100 -43.356300
H -12.505300 -12.184600 -37.787700
C -12.290300 -10.375600 -42.197900
H -12.206700 -9.743500 -43.849400
O -11.108600 -10.313300 -41.906000
H -18.774700 -14.717700 -39.366900
H -18.378400 -14.754500 -36.953200
H -18.146600 -16.286200 -37.354700
C -17.822100 -14.729300 -39.596800
C -17.707400 -15.424100 -37.202200
H -17.657200 -15.425700 -40.267500
H -17.564400 -13.857300 -39.963200
H -17.052500 -15.514500 -36.477800
N -17.036400 -15.007300 -38.404900
C -15.696600 -14.950400 -38.464000
H -15.202100 -15.170700 -37.683400
O -15.079700 -14.629500 -39.468800
