19
Fragment
O -17.355100 -12.101500 -36.211300
N -16.711700 -11.576900 -38.686400
N -16.495400 -11.203100 -39.916000
N -16.198700 -12.320600 -36.548300
C -15.747500 -11.898500 -37.834400
O -15.392600 -12.942400 -35.841200
C -15.179600 -11.071800 -40.270300
N -14.670200 -10.685200 -41.423500
C -14.350100 -11.879800 -38.141400
N -14.161500 -11.406700 -39.400200
H -13.419600 -12.554700 -36.625700
C -13.334500 -10.779600 -41.196700
N -13.312500 -12.246300 -37.442700
N -12.960100 -11.199700 -40.000100
O -12.802500 -10.070100 -43.356300
H -12.505300 -12.184600 -37.787700
C -12.290300 -10.375600 -42.197900
H -12.206700 -9.743500 -43.849400
O -11.108600 -10.313300 -41.906000
12
Fragment
O -11.359500 -15.594900 -45.080000
H -11.278600 -14.186100 -43.827700
C -11.098300 -14.429800 -44.729300
H -10.840200 -13.177900 -47.468400
H -10.796600 -11.518100 -45.454900
N -10.592700 -13.517900 -45.521500
H -10.515300 -14.705400 -47.119000
H -10.410200 -12.165300 -44.043400
C -10.301300 -13.773200 -46.907200
C -10.246900 -12.195300 -45.008000
H -9.349900 -13.609500 -47.076000
H -9.299300 -12.014300 -45.185300
31
Fragment
O -17.355100 -12.101500 -36.211300
N -16.711700 -11.576900 -38.686400
N -16.495400 -11.203100 -39.916000
N -16.198700 -12.320600 -36.548300
C -15.747500 -11.898500 -37.834400
O -15.392600 -12.942400 -35.841200
C -15.179600 -11.071800 -40.270300
N -14.670200 -10.685200 -41.423500
C -14.350100 -11.879800 -38.141400
N -14.161500 -11.406700 -39.400200
H -13.419600 -12.554700 -36.625700
C -13.334500 -10.779600 -41.196700
N -13.312500 -12.246300 -37.442700
N -12.960100 -11.199700 -40.000100
O -12.802500 -10.070100 -43.356300
H -12.505300 -12.184600 -37.787700
C -12.290300 -10.375600 -42.197900
H -12.206700 -9.743500 -43.849400
O -11.108600 -10.313300 -41.906000
O -11.359500 -15.594900 -45.080000
H -11.278600 -14.186100 -43.827700
C -11.098300 -14.429800 -44.729300
H -10.840200 -13.177900 -47.468400
H -10.796600 -11.518100 -45.454900
N -10.592700 -13.517900 -45.521500
H -10.515300 -14.705400 -47.119000
H -10.410200 -12.165300 -44.043400
C -10.301300 -13.773200 -46.907200
C -10.246900 -12.195300 -45.008000
H -9.349900 -13.609500 -47.076000
H -9.299300 -12.014300 -45.185300
