27
Fragment
H -16.607800 -45.243100 -8.608700
H -16.372800 -45.243100 -10.158800
O -16.370300 -49.732000 -9.650100
H -16.346700 -43.892200 -9.364200
C -16.128000 -44.827100 -9.329300
H -15.888300 -47.351000 -9.377300
C -15.210600 -49.836500 -9.286100
H -15.196200 -51.597100 -9.162700
C -14.974900 -47.402100 -9.207900
O -14.726900 -44.978700 -9.116700
O -14.650000 -50.997000 -9.037900
C -14.345400 -48.640300 -9.104400
C -14.222900 -46.242100 -9.054400
C -12.996600 -48.741400 -8.837000
C -12.863100 -46.338700 -8.808200
H -12.596600 -49.577600 -8.756100
C -12.237800 -47.582700 -8.690300
O -12.133500 -45.174300 -8.634100
H -11.969600 -44.850800 -10.565400
C -11.411500 -44.759600 -9.790000
H -11.147500 -43.842500 -9.690600
O -10.901600 -47.540200 -8.422300
H -10.629900 -45.306600 -9.892800
H -10.609800 -49.284800 -7.568000
H -10.288300 -49.279300 -9.102300
C -10.217400 -48.780600 -8.284500
H -9.291900 -48.616200 -8.089800
27
Fragment
H -7.693800 -45.243100 -8.608700
H -7.458800 -45.243100 -10.158800
O -7.456300 -49.732000 -9.650100
H -7.432700 -43.892200 -9.364200
C -7.214000 -44.827100 -9.329300
H -6.974300 -47.351000 -9.377300
C -6.296600 -49.836500 -9.286100
H -6.282200 -51.597100 -9.162700
C -6.060900 -47.402100 -9.207900
O -5.812900 -44.978700 -9.116700
O -5.736000 -50.997000 -9.037900
C -5.431400 -48.640300 -9.104400
C -5.308900 -46.242100 -9.054400
C -4.082600 -48.741400 -8.837000
C -3.949100 -46.338700 -8.808200
H -3.682600 -49.577600 -8.756100
C -3.323800 -47.582700 -8.690300
O -3.219500 -45.174300 -8.634100
H -3.055600 -44.850800 -10.565400
C -2.497500 -44.759600 -9.790000
H -2.233500 -43.842500 -9.690600
O -1.987600 -47.540200 -8.422300
H -1.715900 -45.306600 -9.892800
H -1.695800 -49.284800 -7.568000
H -1.374300 -49.279300 -9.102300
C -1.303400 -48.780600 -8.284500
H -0.377900 -48.616200 -8.089800
54
Fragment
H -16.607800 -45.243100 -8.608700
H -16.372800 -45.243100 -10.158800
O -16.370300 -49.732000 -9.650100
H -16.346700 -43.892200 -9.364200
C -16.128000 -44.827100 -9.329300
H -15.888300 -47.351000 -9.377300
C -15.210600 -49.836500 -9.286100
H -15.196200 -51.597100 -9.162700
C -14.974900 -47.402100 -9.207900
O -14.726900 -44.978700 -9.116700
O -14.650000 -50.997000 -9.037900
C -14.345400 -48.640300 -9.104400
C -14.222900 -46.242100 -9.054400
C -12.996600 -48.741400 -8.837000
C -12.863100 -46.338700 -8.808200
H -12.596600 -49.577600 -8.756100
C -12.237800 -47.582700 -8.690300
O -12.133500 -45.174300 -8.634100
H -11.969600 -44.850800 -10.565400
C -11.411500 -44.759600 -9.790000
H -11.147500 -43.842500 -9.690600
O -10.901600 -47.540200 -8.422300
H -10.629900 -45.306600 -9.892800
H -10.609800 -49.284800 -7.568000
H -10.288300 -49.279300 -9.102300
C -10.217400 -48.780600 -8.284500
H -9.291900 -48.616200 -8.089800
H -7.693800 -45.243100 -8.608700
H -7.458800 -45.243100 -10.158800
O -7.456300 -49.732000 -9.650100
H -7.432700 -43.892200 -9.364200
C -7.214000 -44.827100 -9.329300
H -6.974300 -47.351000 -9.377300
C -6.296600 -49.836500 -9.286100
H -6.282200 -51.597100 -9.162700
C -6.060900 -47.402100 -9.207900
O -5.812900 -44.978700 -9.116700
O -5.736000 -50.997000 -9.037900
C -5.431400 -48.640300 -9.104400
C -5.308900 -46.242100 -9.054400
C -4.082600 -48.741400 -8.837000
C -3.949100 -46.338700 -8.808200
H -3.682600 -49.577600 -8.756100
C -3.323800 -47.582700 -8.690300
O -3.219500 -45.174300 -8.634100
H -3.055600 -44.850800 -10.565400
C -2.497500 -44.759600 -9.790000
H -2.233500 -43.842500 -9.690600
O -1.987600 -47.540200 -8.422300
H -1.715900 -45.306600 -9.892800
H -1.695800 -49.284800 -7.568000
H -1.374300 -49.279300 -9.102300
C -1.303400 -48.780600 -8.284500
H -0.377900 -48.616200 -8.089800
