31
Fragment
H -18.877800 -19.701800 -20.846500
H -18.200800 -15.753600 -16.824000
O -17.998000 -16.862200 -19.822300
C -17.968500 -19.411000 -20.742400
H -17.813200 -18.643300 -21.297000
C -17.744200 -17.728600 -19.007400
N -17.724400 -19.057200 -19.334600
N -17.452900 -17.400900 -17.690000
O -17.436900 -21.248700 -18.849100
H -17.435900 -15.451000 -18.158500
C -17.433400 -20.085900 -18.435800
C -17.428600 -15.971100 -17.351000
H -17.375000 -20.119400 -21.002700
C -17.199400 -18.336800 -16.715700
C -17.149100 -19.701100 -17.088600
H -17.105600 -17.086000 -15.193200
N -17.017500 -17.925000 -15.487500
H -16.922200 -18.531700 -14.842600
N -16.848100 -20.753500 -16.257800
H -16.706600 -23.151100 -15.515100
H -16.633500 -15.773900 -16.850600
N -16.514000 -20.483100 -15.050800
C -16.431100 -22.947200 -14.650300
H -16.315400 -24.833500 -14.003200
C -16.255600 -21.634600 -14.255000
C -16.187200 -23.953800 -13.730200
C -15.820300 -21.399400 -12.967300
N -15.779300 -23.742400 -12.475400
H -15.676600 -20.530300 -12.670900
C -15.602100 -22.462900 -12.128000
H -15.311000 -22.283700 -11.263100
31
Fragment
H -20.827400 -22.569500 -15.534200
H -20.150400 -26.517600 -11.511800
O -19.947600 -25.409100 -14.510000
C -19.918100 -22.860300 -15.430100
H -19.762800 -23.627900 -15.984700
C -19.693800 -24.542700 -13.695100
N -19.674000 -23.214000 -14.022300
N -19.402500 -24.870400 -12.377700
O -19.386500 -21.022500 -13.536800
H -19.385500 -26.820300 -12.846200
C -19.383000 -22.185300 -13.123500
C -19.378200 -26.300200 -12.038700
H -19.324600 -22.151800 -15.690400
C -19.149000 -23.934500 -11.403400
C -19.098700 -22.570100 -11.776300
H -19.055200 -25.185200 -9.880900
N -18.967100 -24.346200 -10.175200
H -18.871800 -23.739500 -9.530300
N -18.797700 -21.517800 -10.945500
H -18.656200 -19.120100 -10.202800
H -18.583100 -26.497300 -11.538300
N -18.463600 -21.788100 -9.738500
C -18.380700 -19.324000 -9.338000
H -18.265000 -17.437700 -8.690900
C -18.205200 -20.636700 -8.942700
C -18.136800 -18.317500 -8.417900
C -17.769900 -20.871900 -7.655000
N -17.728900 -18.528800 -7.163100
H -17.626200 -21.740900 -7.358600
C -17.551700 -19.808300 -6.815700
H -17.260600 -19.987500 -5.950800
62
Fragment
H -18.877800 -19.701800 -20.846500
H -18.200800 -15.753600 -16.824000
O -17.998000 -16.862200 -19.822300
C -17.968500 -19.411000 -20.742400
H -17.813200 -18.643300 -21.297000
C -17.744200 -17.728600 -19.007400
N -17.724400 -19.057200 -19.334600
N -17.452900 -17.400900 -17.690000
O -17.436900 -21.248700 -18.849100
H -17.435900 -15.451000 -18.158500
C -17.433400 -20.085900 -18.435800
C -17.428600 -15.971100 -17.351000
H -17.375000 -20.119400 -21.002700
C -17.199400 -18.336800 -16.715700
C -17.149100 -19.701100 -17.088600
H -17.105600 -17.086000 -15.193200
N -17.017500 -17.925000 -15.487500
H -16.922200 -18.531700 -14.842600
N -16.848100 -20.753500 -16.257800
H -16.706600 -23.151100 -15.515100
H -16.633500 -15.773900 -16.850600
N -16.514000 -20.483100 -15.050800
C -16.431100 -22.947200 -14.650300
H -16.315400 -24.833500 -14.003200
C -16.255600 -21.634600 -14.255000
C -16.187200 -23.953800 -13.730200
C -15.820300 -21.399400 -12.967300
N -15.779300 -23.742400 -12.475400
H -15.676600 -20.530300 -12.670900
C -15.602100 -22.462900 -12.128000
H -15.311000 -22.283700 -11.263100
H -20.827400 -22.569500 -15.534200
H -20.150400 -26.517600 -11.511800
O -19.947600 -25.409100 -14.510000
C -19.918100 -22.860300 -15.430100
H -19.762800 -23.627900 -15.984700
C -19.693800 -24.542700 -13.695100
N -19.674000 -23.214000 -14.022300
N -19.402500 -24.870400 -12.377700
O -19.386500 -21.022500 -13.536800
H -19.385500 -26.820300 -12.846200
C -19.383000 -22.185300 -13.123500
C -19.378200 -26.300200 -12.038700
H -19.324600 -22.151800 -15.690400
C -19.149000 -23.934500 -11.403400
C -19.098700 -22.570100 -11.776300
H -19.055200 -25.185200 -9.880900
N -18.967100 -24.346200 -10.175200
H -18.871800 -23.739500 -9.530300
N -18.797700 -21.517800 -10.945500
H -18.656200 -19.120100 -10.202800
H -18.583100 -26.497300 -11.538300
N -18.463600 -21.788100 -9.738500
C -18.380700 -19.324000 -9.338000
H -18.265000 -17.437700 -8.690900
C -18.205200 -20.636700 -8.942700
C -18.136800 -18.317500 -8.417900
C -17.769900 -20.871900 -7.655000
N -17.728900 -18.528800 -7.163100
H -17.626200 -21.740900 -7.358600
C -17.551700 -19.808300 -6.815700
H -17.260600 -19.987500 -5.950800
