31
Fragment
H -18.877800 -19.701800 -20.846500
H -18.200800 -15.753600 -16.824000
O -17.998000 -16.862200 -19.822300
C -17.968500 -19.411000 -20.742400
H -17.813200 -18.643300 -21.297000
C -17.744200 -17.728600 -19.007400
N -17.724400 -19.057200 -19.334600
N -17.452900 -17.400900 -17.690000
O -17.436900 -21.248700 -18.849100
H -17.435900 -15.451000 -18.158500
C -17.433400 -20.085900 -18.435800
C -17.428600 -15.971100 -17.351000
H -17.375000 -20.119400 -21.002700
C -17.199400 -18.336800 -16.715700
C -17.149100 -19.701100 -17.088600
H -17.105600 -17.086000 -15.193200
N -17.017500 -17.925000 -15.487500
H -16.922200 -18.531700 -14.842600
N -16.848100 -20.753500 -16.257800
H -16.706600 -23.151100 -15.515100
H -16.633500 -15.773900 -16.850600
N -16.514000 -20.483100 -15.050800
C -16.431100 -22.947200 -14.650300
H -16.315400 -24.833500 -14.003200
C -16.255600 -21.634600 -14.255000
C -16.187200 -23.953800 -13.730200
C -15.820300 -21.399400 -12.967300
N -15.779300 -23.742400 -12.475400
H -15.676600 -20.530300 -12.670900
C -15.602100 -22.462900 -12.128000
H -15.311000 -22.283700 -11.263100
31
Fragment
H -13.705200 -23.012500 -15.715900
H -13.356100 -24.517300 -15.441800
C -13.021600 -23.617800 -15.414200
O -12.733200 -25.456100 -13.468800
N -12.642900 -23.277300 -14.030800
C -12.524700 -24.302600 -13.100100
O -12.474600 -21.090100 -14.615200
C -12.376500 -21.955700 -13.770500
H -12.256500 -19.828600 -11.674300
H -12.253700 -23.541700 -15.983600
H -12.250300 -27.363000 -10.110400
C -12.146600 -23.925000 -11.768900
N -12.096600 -24.974200 -10.888100
H -12.058600 -29.050500 -8.557100
C -11.997700 -27.170300 -9.237000
N -11.968000 -21.642500 -12.476500
C -11.882500 -28.178000 -8.287200
C -11.847700 -22.569600 -11.477800
N -11.760500 -24.719600 -9.684300
C -11.726800 -25.865300 -8.842900
C -11.592900 -20.244900 -12.230000
H -11.535700 -19.776200 -13.066100
N -11.535100 -27.976300 -7.014400
N -11.429100 -22.179400 -10.299500
C -11.388400 -25.641200 -7.530700
C -11.302800 -26.705300 -6.670100
H -11.285100 -22.809600 -9.679000
H -11.266000 -21.348700 -10.040200
H -11.218300 -24.777700 -7.229000
H -11.068000 -26.531100 -5.787200
H -10.740900 -20.215800 -11.788000
62
Fragment
H -18.877800 -19.701800 -20.846500
H -18.200800 -15.753600 -16.824000
O -17.998000 -16.862200 -19.822300
C -17.968500 -19.411000 -20.742400
H -17.813200 -18.643300 -21.297000
C -17.744200 -17.728600 -19.007400
N -17.724400 -19.057200 -19.334600
N -17.452900 -17.400900 -17.690000
O -17.436900 -21.248700 -18.849100
H -17.435900 -15.451000 -18.158500
C -17.433400 -20.085900 -18.435800
C -17.428600 -15.971100 -17.351000
H -17.375000 -20.119400 -21.002700
C -17.199400 -18.336800 -16.715700
C -17.149100 -19.701100 -17.088600
H -17.105600 -17.086000 -15.193200
N -17.017500 -17.925000 -15.487500
H -16.922200 -18.531700 -14.842600
N -16.848100 -20.753500 -16.257800
H -16.706600 -23.151100 -15.515100
H -16.633500 -15.773900 -16.850600
N -16.514000 -20.483100 -15.050800
C -16.431100 -22.947200 -14.650300
H -16.315400 -24.833500 -14.003200
C -16.255600 -21.634600 -14.255000
C -16.187200 -23.953800 -13.730200
C -15.820300 -21.399400 -12.967300
N -15.779300 -23.742400 -12.475400
H -15.676600 -20.530300 -12.670900
C -15.602100 -22.462900 -12.128000
H -15.311000 -22.283700 -11.263100
H -13.705200 -23.012500 -15.715900
H -13.356100 -24.517300 -15.441800
C -13.021600 -23.617800 -15.414200
O -12.733200 -25.456100 -13.468800
N -12.642900 -23.277300 -14.030800
C -12.524700 -24.302600 -13.100100
O -12.474600 -21.090100 -14.615200
C -12.376500 -21.955700 -13.770500
H -12.256500 -19.828600 -11.674300
H -12.253700 -23.541700 -15.983600
H -12.250300 -27.363000 -10.110400
C -12.146600 -23.925000 -11.768900
N -12.096600 -24.974200 -10.888100
H -12.058600 -29.050500 -8.557100
C -11.997700 -27.170300 -9.237000
N -11.968000 -21.642500 -12.476500
C -11.882500 -28.178000 -8.287200
C -11.847700 -22.569600 -11.477800
N -11.760500 -24.719600 -9.684300
C -11.726800 -25.865300 -8.842900
C -11.592900 -20.244900 -12.230000
H -11.535700 -19.776200 -13.066100
N -11.535100 -27.976300 -7.014400
N -11.429100 -22.179400 -10.299500
C -11.388400 -25.641200 -7.530700
C -11.302800 -26.705300 -6.670100
H -11.285100 -22.809600 -9.679000
H -11.266000 -21.348700 -10.040200
H -11.218300 -24.777700 -7.229000
H -11.068000 -26.531100 -5.787200
H -10.740900 -20.215800 -11.788000
