31
Fragment
H -18.877800 -19.701800 -20.846500
H -18.200800 -15.753600 -16.824000
O -17.998000 -16.862200 -19.822300
C -17.968500 -19.411000 -20.742400
H -17.813200 -18.643300 -21.297000
C -17.744200 -17.728600 -19.007400
N -17.724400 -19.057200 -19.334600
N -17.452900 -17.400900 -17.690000
O -17.436900 -21.248700 -18.849100
H -17.435900 -15.451000 -18.158500
C -17.433400 -20.085900 -18.435800
C -17.428600 -15.971100 -17.351000
H -17.375000 -20.119400 -21.002700
C -17.199400 -18.336800 -16.715700
C -17.149100 -19.701100 -17.088600
H -17.105600 -17.086000 -15.193200
N -17.017500 -17.925000 -15.487500
H -16.922200 -18.531700 -14.842600
N -16.848100 -20.753500 -16.257800
H -16.706600 -23.151100 -15.515100
H -16.633500 -15.773900 -16.850600
N -16.514000 -20.483100 -15.050800
C -16.431100 -22.947200 -14.650300
H -16.315400 -24.833500 -14.003200
C -16.255600 -21.634600 -14.255000
C -16.187200 -23.953800 -13.730200
C -15.820300 -21.399400 -12.967300
N -15.779300 -23.742400 -12.475400
H -15.676600 -20.530300 -12.670900
C -15.602100 -22.462900 -12.128000
H -15.311000 -22.283700 -11.263100
31
Fragment
H -15.654800 -19.258800 -10.403600
H -15.305700 -17.753900 -10.129500
C -14.971200 -18.653500 -10.101900
O -14.682800 -16.815200 -8.156500
N -14.592500 -18.994000 -8.718500
C -14.474300 -17.968700 -7.787800
O -14.424200 -21.181100 -9.302900
C -14.326100 -20.315600 -8.458200
H -14.206100 -22.442700 -6.362000
H -14.203300 -18.729500 -10.671300
H -14.199900 -14.908200 -4.798100
C -14.096200 -18.346200 -6.456600
N -14.046200 -17.297100 -5.575800
H -14.008200 -13.220800 -3.244800
C -13.947300 -15.101000 -3.924700
N -13.917600 -20.628700 -7.164200
C -13.832100 -14.093200 -2.974900
C -13.797300 -19.701600 -6.165500
N -13.710100 -17.551700 -4.372000
C -13.676400 -16.406000 -3.530600
C -13.542500 -22.026400 -6.917700
H -13.485300 -22.495100 -7.753800
N -13.484700 -14.295000 -1.702100
N -13.378700 -20.091900 -4.987200
C -13.338000 -16.630000 -2.218400
C -13.252400 -15.566000 -1.357800
H -13.234700 -19.461700 -4.366700
H -13.215600 -20.922600 -4.727900
H -13.167900 -17.493500 -1.916700
H -13.017600 -15.740100 -0.474900
H -12.690500 -22.055400 -6.475700
62
Fragment
H -18.877800 -19.701800 -20.846500
H -18.200800 -15.753600 -16.824000
O -17.998000 -16.862200 -19.822300
C -17.968500 -19.411000 -20.742400
H -17.813200 -18.643300 -21.297000
C -17.744200 -17.728600 -19.007400
N -17.724400 -19.057200 -19.334600
N -17.452900 -17.400900 -17.690000
O -17.436900 -21.248700 -18.849100
H -17.435900 -15.451000 -18.158500
C -17.433400 -20.085900 -18.435800
C -17.428600 -15.971100 -17.351000
H -17.375000 -20.119400 -21.002700
C -17.199400 -18.336800 -16.715700
C -17.149100 -19.701100 -17.088600
H -17.105600 -17.086000 -15.193200
N -17.017500 -17.925000 -15.487500
H -16.922200 -18.531700 -14.842600
N -16.848100 -20.753500 -16.257800
H -16.706600 -23.151100 -15.515100
H -16.633500 -15.773900 -16.850600
N -16.514000 -20.483100 -15.050800
C -16.431100 -22.947200 -14.650300
H -16.315400 -24.833500 -14.003200
C -16.255600 -21.634600 -14.255000
C -16.187200 -23.953800 -13.730200
C -15.820300 -21.399400 -12.967300
N -15.779300 -23.742400 -12.475400
H -15.676600 -20.530300 -12.670900
C -15.602100 -22.462900 -12.128000
H -15.311000 -22.283700 -11.263100
H -15.654800 -19.258800 -10.403600
H -15.305700 -17.753900 -10.129500
C -14.971200 -18.653500 -10.101900
O -14.682800 -16.815200 -8.156500
N -14.592500 -18.994000 -8.718500
C -14.474300 -17.968700 -7.787800
O -14.424200 -21.181100 -9.302900
C -14.326100 -20.315600 -8.458200
H -14.206100 -22.442700 -6.362000
H -14.203300 -18.729500 -10.671300
H -14.199900 -14.908200 -4.798100
C -14.096200 -18.346200 -6.456600
N -14.046200 -17.297100 -5.575800
H -14.008200 -13.220800 -3.244800
C -13.947300 -15.101000 -3.924700
N -13.917600 -20.628700 -7.164200
C -13.832100 -14.093200 -2.974900
C -13.797300 -19.701600 -6.165500
N -13.710100 -17.551700 -4.372000
C -13.676400 -16.406000 -3.530600
C -13.542500 -22.026400 -6.917700
H -13.485300 -22.495100 -7.753800
N -13.484700 -14.295000 -1.702100
N -13.378700 -20.091900 -4.987200
C -13.338000 -16.630000 -2.218400
C -13.252400 -15.566000 -1.357800
H -13.234700 -19.461700 -4.366700
H -13.215600 -20.922600 -4.727900
H -13.167900 -17.493500 -1.916700
H -13.017600 -15.740100 -0.474900
H -12.690500 -22.055400 -6.475700
