31
Fragment
H -18.877800 -19.701800 -20.846500
H -18.200800 -15.753600 -16.824000
O -17.998000 -16.862200 -19.822300
C -17.968500 -19.411000 -20.742400
H -17.813200 -18.643300 -21.297000
C -17.744200 -17.728600 -19.007400
N -17.724400 -19.057200 -19.334600
N -17.452900 -17.400900 -17.690000
O -17.436900 -21.248700 -18.849100
H -17.435900 -15.451000 -18.158500
C -17.433400 -20.085900 -18.435800
C -17.428600 -15.971100 -17.351000
H -17.375000 -20.119400 -21.002700
C -17.199400 -18.336800 -16.715700
C -17.149100 -19.701100 -17.088600
H -17.105600 -17.086000 -15.193200
N -17.017500 -17.925000 -15.487500
H -16.922200 -18.531700 -14.842600
N -16.848100 -20.753500 -16.257800
H -16.706600 -23.151100 -15.515100
H -16.633500 -15.773900 -16.850600
N -16.514000 -20.483100 -15.050800
C -16.431100 -22.947200 -14.650300
H -16.315400 -24.833500 -14.003200
C -16.255600 -21.634600 -14.255000
C -16.187200 -23.953800 -13.730200
C -15.820300 -21.399400 -12.967300
N -15.779300 -23.742400 -12.475400
H -15.676600 -20.530300 -12.670900
C -15.602100 -22.462900 -12.128000
H -15.311000 -22.283700 -11.263100
31
Fragment
H -17.495400 -30.738000 -15.298400
C -17.204300 -30.917200 -14.433500
H -17.129800 -28.984600 -13.890600
N -17.027100 -32.196700 -14.086100
C -16.986100 -29.853600 -13.594200
C -16.619200 -32.408000 -12.831300
C -16.550800 -30.088800 -12.306500
H -16.491000 -33.287800 -12.558300
C -16.375300 -31.401500 -11.911200
N -16.292400 -28.937400 -11.510700
H -16.172900 -24.228200 -9.710900
H -16.099800 -31.605400 -11.046400
N -15.958300 -29.207700 -10.303700
H -15.884200 -26.986000 -11.718900
N -15.788900 -26.379300 -11.074000
H -15.700800 -25.540300 -11.368300
C -15.657400 -28.155400 -9.472900
C -15.607000 -26.791000 -9.845800
H -15.431400 -28.573700 -5.558800
C -15.377800 -24.425300 -9.210500
C -15.373000 -28.540200 -8.125700
H -15.370500 -23.905200 -8.403000
O -15.369500 -29.703000 -7.712400
N -15.353500 -25.855100 -8.871500
N -15.082000 -27.511500 -7.226900
C -15.062200 -26.182800 -7.554100
H -14.993300 -27.097600 -5.264500
C -14.837900 -27.865200 -5.819100
O -14.808400 -25.316400 -6.739200
H -14.605600 -24.207900 -9.737400
H -13.928600 -28.156000 -5.715000
62
Fragment
H -18.877800 -19.701800 -20.846500
H -18.200800 -15.753600 -16.824000
O -17.998000 -16.862200 -19.822300
C -17.968500 -19.411000 -20.742400
H -17.813200 -18.643300 -21.297000
C -17.744200 -17.728600 -19.007400
N -17.724400 -19.057200 -19.334600
N -17.452900 -17.400900 -17.690000
O -17.436900 -21.248700 -18.849100
H -17.435900 -15.451000 -18.158500
C -17.433400 -20.085900 -18.435800
C -17.428600 -15.971100 -17.351000
H -17.375000 -20.119400 -21.002700
C -17.199400 -18.336800 -16.715700
C -17.149100 -19.701100 -17.088600
H -17.105600 -17.086000 -15.193200
N -17.017500 -17.925000 -15.487500
H -16.922200 -18.531700 -14.842600
N -16.848100 -20.753500 -16.257800
H -16.706600 -23.151100 -15.515100
H -16.633500 -15.773900 -16.850600
N -16.514000 -20.483100 -15.050800
C -16.431100 -22.947200 -14.650300
H -16.315400 -24.833500 -14.003200
C -16.255600 -21.634600 -14.255000
C -16.187200 -23.953800 -13.730200
C -15.820300 -21.399400 -12.967300
N -15.779300 -23.742400 -12.475400
H -15.676600 -20.530300 -12.670900
C -15.602100 -22.462900 -12.128000
H -15.311000 -22.283700 -11.263100
H -17.495400 -30.738000 -15.298400
C -17.204300 -30.917200 -14.433500
H -17.129800 -28.984600 -13.890600
N -17.027100 -32.196700 -14.086100
C -16.986100 -29.853600 -13.594200
C -16.619200 -32.408000 -12.831300
C -16.550800 -30.088800 -12.306500
H -16.491000 -33.287800 -12.558300
C -16.375300 -31.401500 -11.911200
N -16.292400 -28.937400 -11.510700
H -16.172900 -24.228200 -9.710900
H -16.099800 -31.605400 -11.046400
N -15.958300 -29.207700 -10.303700
H -15.884200 -26.986000 -11.718900
N -15.788900 -26.379300 -11.074000
H -15.700800 -25.540300 -11.368300
C -15.657400 -28.155400 -9.472900
C -15.607000 -26.791000 -9.845800
H -15.431400 -28.573700 -5.558800
C -15.377800 -24.425300 -9.210500
C -15.373000 -28.540200 -8.125700
H -15.370500 -23.905200 -8.403000
O -15.369500 -29.703000 -7.712400
N -15.353500 -25.855100 -8.871500
N -15.082000 -27.511500 -7.226900
C -15.062200 -26.182800 -7.554100
H -14.993300 -27.097600 -5.264500
C -14.837900 -27.865200 -5.819100
O -14.808400 -25.316400 -6.739200
H -14.605600 -24.207900 -9.737400
H -13.928600 -28.156000 -5.715000
