31
Fragment
H -18.877800 -19.701800 -20.846500
H -18.200800 -15.753600 -16.824000
O -17.998000 -16.862200 -19.822300
C -17.968500 -19.411000 -20.742400
H -17.813200 -18.643300 -21.297000
C -17.744200 -17.728600 -19.007400
N -17.724400 -19.057200 -19.334600
N -17.452900 -17.400900 -17.690000
O -17.436900 -21.248700 -18.849100
H -17.435900 -15.451000 -18.158500
C -17.433400 -20.085900 -18.435800
C -17.428600 -15.971100 -17.351000
H -17.375000 -20.119400 -21.002700
C -17.199400 -18.336800 -16.715700
C -17.149100 -19.701100 -17.088600
H -17.105600 -17.086000 -15.193200
N -17.017500 -17.925000 -15.487500
H -16.922200 -18.531700 -14.842600
N -16.848100 -20.753500 -16.257800
H -16.706600 -23.151100 -15.515100
H -16.633500 -15.773900 -16.850600
N -16.514000 -20.483100 -15.050800
C -16.431100 -22.947200 -14.650300
H -16.315400 -24.833500 -14.003200
C -16.255600 -21.634600 -14.255000
C -16.187200 -23.953800 -13.730200
C -15.820300 -21.399400 -12.967300
N -15.779300 -23.742400 -12.475400
H -15.676600 -20.530300 -12.670900
C -15.602100 -22.462900 -12.128000
H -15.311000 -22.283700 -11.263100
31
Fragment
H -20.115900 -13.601200 -20.085800
H -19.788800 -7.285900 -26.086600
H -19.638500 -9.039300 -24.644800
H -19.590800 -12.468300 -21.833500
H -19.571700 -11.007400 -22.194800
C -19.554000 -7.111700 -25.203700
C -19.468400 -8.175800 -24.343100
N -19.427700 -11.637600 -21.574300
N -19.321700 -5.840700 -24.859400
H -19.321100 -14.040800 -18.807700
C -19.263900 -13.572100 -19.643800
C -19.130100 -7.951700 -23.030900
N -19.096300 -9.097400 -22.189500
C -19.009100 -11.247400 -20.396000
C -18.974400 -5.639000 -23.586600
N -18.888800 -12.174500 -19.397300
C -18.859100 -6.646700 -22.636800
H -18.798200 -4.766500 -23.316700
N -18.760200 -8.842800 -20.985700
C -18.710200 -9.892000 -20.104900
H -18.606500 -6.454000 -21.763400
H -18.603100 -10.275300 -15.890100
H -18.600300 -13.988400 -20.199500
C -18.480300 -11.861300 -18.103300
O -18.382200 -12.726900 -17.258600
C -18.332100 -9.514400 -18.773700
N -18.213900 -10.539700 -17.842900
O -18.123600 -8.360900 -18.405000
C -17.835200 -10.199200 -16.459600
H -17.500700 -9.299700 -16.432000
H -17.151600 -10.804500 -16.157900
62
Fragment
H -18.877800 -19.701800 -20.846500
H -18.200800 -15.753600 -16.824000
O -17.998000 -16.862200 -19.822300
C -17.968500 -19.411000 -20.742400
H -17.813200 -18.643300 -21.297000
C -17.744200 -17.728600 -19.007400
N -17.724400 -19.057200 -19.334600
N -17.452900 -17.400900 -17.690000
O -17.436900 -21.248700 -18.849100
H -17.435900 -15.451000 -18.158500
C -17.433400 -20.085900 -18.435800
C -17.428600 -15.971100 -17.351000
H -17.375000 -20.119400 -21.002700
C -17.199400 -18.336800 -16.715700
C -17.149100 -19.701100 -17.088600
H -17.105600 -17.086000 -15.193200
N -17.017500 -17.925000 -15.487500
H -16.922200 -18.531700 -14.842600
N -16.848100 -20.753500 -16.257800
H -16.706600 -23.151100 -15.515100
H -16.633500 -15.773900 -16.850600
N -16.514000 -20.483100 -15.050800
C -16.431100 -22.947200 -14.650300
H -16.315400 -24.833500 -14.003200
C -16.255600 -21.634600 -14.255000
C -16.187200 -23.953800 -13.730200
C -15.820300 -21.399400 -12.967300
N -15.779300 -23.742400 -12.475400
H -15.676600 -20.530300 -12.670900
C -15.602100 -22.462900 -12.128000
H -15.311000 -22.283700 -11.263100
H -20.115900 -13.601200 -20.085800
H -19.788800 -7.285900 -26.086600
H -19.638500 -9.039300 -24.644800
H -19.590800 -12.468300 -21.833500
H -19.571700 -11.007400 -22.194800
C -19.554000 -7.111700 -25.203700
C -19.468400 -8.175800 -24.343100
N -19.427700 -11.637600 -21.574300
N -19.321700 -5.840700 -24.859400
H -19.321100 -14.040800 -18.807700
C -19.263900 -13.572100 -19.643800
C -19.130100 -7.951700 -23.030900
N -19.096300 -9.097400 -22.189500
C -19.009100 -11.247400 -20.396000
C -18.974400 -5.639000 -23.586600
N -18.888800 -12.174500 -19.397300
C -18.859100 -6.646700 -22.636800
H -18.798200 -4.766500 -23.316700
N -18.760200 -8.842800 -20.985700
C -18.710200 -9.892000 -20.104900
H -18.606500 -6.454000 -21.763400
H -18.603100 -10.275300 -15.890100
H -18.600300 -13.988400 -20.199500
C -18.480300 -11.861300 -18.103300
O -18.382200 -12.726900 -17.258600
C -18.332100 -9.514400 -18.773700
N -18.213900 -10.539700 -17.842900
O -18.123600 -8.360900 -18.405000
C -17.835200 -10.199200 -16.459600
H -17.500700 -9.299700 -16.432000
H -17.151600 -10.804500 -16.157900
