20
Fragment
N -7.775900 -25.191500 -8.623700
N -7.758500 -32.804200 -12.925600
C -7.695400 -31.735900 -13.331100
C -7.691100 -25.400600 -9.750700
F -7.665300 -27.957300 -15.300600
F -7.651700 -25.661700 -14.001400
C -7.638100 -30.448600 -13.974200
C -7.636200 -29.249700 -13.291700
C -7.635200 -27.970900 -13.963800
C -7.627900 -29.165900 -11.855100
C -7.627600 -26.796100 -13.301600
C -7.620300 -27.991100 -11.193000
C -7.619300 -26.712300 -11.865000
C -7.617300 -25.513400 -11.182600
F -7.603800 -30.300300 -11.155300
F -7.590100 -28.004700 -9.856200
C -7.564400 -30.561400 -15.406100
C -7.560100 -24.226100 -11.825600
N -7.496900 -23.157800 -12.231100
N -7.479600 -30.770500 -16.533100
26
Fragment
H -8.516100 -37.686700 -11.822000
H -8.469600 -39.734900 -10.856000
C -8.466500 -37.751400 -10.895700
C -8.445400 -38.975900 -10.318500
H -8.429400 -35.175800 -11.609800
C -8.414700 -36.545800 -10.107800
C -8.413200 -35.265400 -10.684500
H -8.393000 -33.291800 -10.280700
C -8.388700 -34.132900 -9.884000
C -8.386200 -39.125500 -8.894800
H -8.386000 -41.152600 -8.788900
C -8.373400 -40.380300 -8.270800
C -8.370500 -36.663500 -8.692900
C -8.361000 -37.952500 -8.078300
C -8.358100 -34.235700 -8.500400
H -8.345600 -33.463400 -7.982200
C -8.345300 -35.490500 -7.876300
C -8.342800 -40.483100 -6.887200
H -8.338500 -41.324200 -6.490400
C -8.318400 -39.350600 -6.086700
C -8.316800 -38.070200 -6.663400
H -8.302100 -39.440200 -5.161300
C -8.286100 -35.640100 -6.452600
C -8.265000 -36.864600 -5.875400
H -8.261900 -34.881100 -5.915200
H -8.215400 -36.929300 -4.949200
46
Fragment
N -7.775900 -25.191500 -8.623700
N -7.758500 -32.804200 -12.925600
C -7.695400 -31.735900 -13.331100
C -7.691100 -25.400600 -9.750700
F -7.665300 -27.957300 -15.300600
F -7.651700 -25.661700 -14.001400
C -7.638100 -30.448600 -13.974200
C -7.636200 -29.249700 -13.291700
C -7.635200 -27.970900 -13.963800
C -7.627900 -29.165900 -11.855100
C -7.627600 -26.796100 -13.301600
C -7.620300 -27.991100 -11.193000
C -7.619300 -26.712300 -11.865000
C -7.617300 -25.513400 -11.182600
F -7.603800 -30.300300 -11.155300
F -7.590100 -28.004700 -9.856200
C -7.564400 -30.561400 -15.406100
C -7.560100 -24.226100 -11.825600
N -7.496900 -23.157800 -12.231100
N -7.479600 -30.770500 -16.533100
H -8.516100 -37.686700 -11.822000
H -8.469600 -39.734900 -10.856000
C -8.466500 -37.751400 -10.895700
C -8.445400 -38.975900 -10.318500
H -8.429400 -35.175800 -11.609800
C -8.414700 -36.545800 -10.107800
C -8.413200 -35.265400 -10.684500
H -8.393000 -33.291800 -10.280700
C -8.388700 -34.132900 -9.884000
C -8.386200 -39.125500 -8.894800
H -8.386000 -41.152600 -8.788900
C -8.373400 -40.380300 -8.270800
C -8.370500 -36.663500 -8.692900
C -8.361000 -37.952500 -8.078300
C -8.358100 -34.235700 -8.500400
H -8.345600 -33.463400 -7.982200
C -8.345300 -35.490500 -7.876300
C -8.342800 -40.483100 -6.887200
H -8.338500 -41.324200 -6.490400
C -8.318400 -39.350600 -6.086700
C -8.316800 -38.070200 -6.663400
H -8.302100 -39.440200 -5.161300
C -8.286100 -35.640100 -6.452600
C -8.265000 -36.864600 -5.875400
H -8.261900 -34.881100 -5.915200
H -8.215400 -36.929300 -4.949200
