20
Fragment
N -7.775900 -25.191500 -8.623700
N -7.758500 -32.804200 -12.925600
C -7.695400 -31.735900 -13.331100
C -7.691100 -25.400600 -9.750700
F -7.665300 -27.957300 -15.300600
F -7.651700 -25.661700 -14.001400
C -7.638100 -30.448600 -13.974200
C -7.636200 -29.249700 -13.291700
C -7.635200 -27.970900 -13.963800
C -7.627900 -29.165900 -11.855100
C -7.627600 -26.796100 -13.301600
C -7.620300 -27.991100 -11.193000
C -7.619300 -26.712300 -11.865000
C -7.617300 -25.513400 -11.182600
F -7.603800 -30.300300 -11.155300
F -7.590100 -28.004700 -9.856200
C -7.564400 -30.561400 -15.406100
C -7.560100 -24.226100 -11.825600
N -7.496900 -23.157800 -12.231100
N -7.479600 -30.770500 -16.533100
20
Fragment
N -5.233300 -21.443500 -4.430900
N -5.216000 -13.830800 -8.732800
C -5.152800 -14.899100 -9.138400
C -5.148500 -21.234400 -5.557900
F -5.122800 -18.677700 -11.107800
F -5.109100 -20.973300 -9.808600
C -5.095600 -16.186400 -9.781400
C -5.093600 -17.385300 -9.098900
C -5.092600 -18.664100 -9.771000
C -5.085300 -17.469100 -7.662300
C -5.085000 -19.838900 -9.108800
C -5.077700 -18.643900 -7.000200
C -5.076700 -19.922700 -7.672200
C -5.074800 -21.121600 -6.989800
F -5.061200 -16.334700 -6.962600
F -5.047600 -18.630300 -5.663400
C -5.021800 -16.073600 -11.213300
C -5.017500 -22.408900 -7.632800
N -4.954400 -23.477200 -8.038300
N -4.937000 -15.864500 -12.340300
40
Fragment
N -7.775900 -25.191500 -8.623700
N -7.758500 -32.804200 -12.925600
C -7.695400 -31.735900 -13.331100
C -7.691100 -25.400600 -9.750700
F -7.665300 -27.957300 -15.300600
F -7.651700 -25.661700 -14.001400
C -7.638100 -30.448600 -13.974200
C -7.636200 -29.249700 -13.291700
C -7.635200 -27.970900 -13.963800
C -7.627900 -29.165900 -11.855100
C -7.627600 -26.796100 -13.301600
C -7.620300 -27.991100 -11.193000
C -7.619300 -26.712300 -11.865000
C -7.617300 -25.513400 -11.182600
F -7.603800 -30.300300 -11.155300
F -7.590100 -28.004700 -9.856200
C -7.564400 -30.561400 -15.406100
C -7.560100 -24.226100 -11.825600
N -7.496900 -23.157800 -12.231100
N -7.479600 -30.770500 -16.533100
N -5.233300 -21.443500 -4.430900
N -5.216000 -13.830800 -8.732800
C -5.152800 -14.899100 -9.138400
C -5.148500 -21.234400 -5.557900
F -5.122800 -18.677700 -11.107800
F -5.109100 -20.973300 -9.808600
C -5.095600 -16.186400 -9.781400
C -5.093600 -17.385300 -9.098900
C -5.092600 -18.664100 -9.771000
C -5.085300 -17.469100 -7.662300
C -5.085000 -19.838900 -9.108800
C -5.077700 -18.643900 -7.000200
C -5.076700 -19.922700 -7.672200
C -5.074800 -21.121600 -6.989800
F -5.061200 -16.334700 -6.962600
F -5.047600 -18.630300 -5.663400
C -5.021800 -16.073600 -11.213300
C -5.017500 -22.408900 -7.632800
N -4.954400 -23.477200 -8.038300
N -4.937000 -15.864500 -12.340300
