20
Fragment
N -7.775900 -25.191500 -8.623700
N -7.758500 -32.804200 -12.925600
C -7.695400 -31.735900 -13.331100
C -7.691100 -25.400600 -9.750700
F -7.665300 -27.957300 -15.300600
F -7.651700 -25.661700 -14.001400
C -7.638100 -30.448600 -13.974200
C -7.636200 -29.249700 -13.291700
C -7.635200 -27.970900 -13.963800
C -7.627900 -29.165900 -11.855100
C -7.627600 -26.796100 -13.301600
C -7.620300 -27.991100 -11.193000
C -7.619300 -26.712300 -11.865000
C -7.617300 -25.513400 -11.182600
F -7.603800 -30.300300 -11.155300
F -7.590100 -28.004700 -9.856200
C -7.564400 -30.561400 -15.406100
C -7.560100 -24.226100 -11.825600
N -7.496900 -23.157800 -12.231100
N -7.479600 -30.770500 -16.533100
20
Fragment
N -10.318400 -40.097500 -12.816400
N -10.301100 -32.484800 -17.118400
C -10.237900 -33.553100 -17.523900
C -10.233700 -39.888400 -13.943500
F -10.207900 -37.331700 -19.493400
F -10.194300 -39.627300 -18.194200
C -10.180700 -34.840400 -18.166900
C -10.178700 -36.039300 -17.484500
C -10.177800 -37.318100 -18.156600
C -10.170500 -36.123100 -16.047900
C -10.170200 -38.492900 -17.494400
C -10.162900 -37.297900 -15.385800
C -10.161900 -38.576700 -16.057800
C -10.159900 -39.775600 -15.375400
F -10.146400 -34.988700 -15.348100
F -10.132700 -37.284300 -14.049000
C -10.106900 -34.727600 -19.598900
C -10.102700 -41.062900 -16.018400
N -10.039500 -42.131200 -16.423900
N -10.022200 -34.518500 -20.725900
40
Fragment
N -7.775900 -25.191500 -8.623700
N -7.758500 -32.804200 -12.925600
C -7.695400 -31.735900 -13.331100
C -7.691100 -25.400600 -9.750700
F -7.665300 -27.957300 -15.300600
F -7.651700 -25.661700 -14.001400
C -7.638100 -30.448600 -13.974200
C -7.636200 -29.249700 -13.291700
C -7.635200 -27.970900 -13.963800
C -7.627900 -29.165900 -11.855100
C -7.627600 -26.796100 -13.301600
C -7.620300 -27.991100 -11.193000
C -7.619300 -26.712300 -11.865000
C -7.617300 -25.513400 -11.182600
F -7.603800 -30.300300 -11.155300
F -7.590100 -28.004700 -9.856200
C -7.564400 -30.561400 -15.406100
C -7.560100 -24.226100 -11.825600
N -7.496900 -23.157800 -12.231100
N -7.479600 -30.770500 -16.533100
N -10.318400 -40.097500 -12.816400
N -10.301100 -32.484800 -17.118400
C -10.237900 -33.553100 -17.523900
C -10.233700 -39.888400 -13.943500
F -10.207900 -37.331700 -19.493400
F -10.194300 -39.627300 -18.194200
C -10.180700 -34.840400 -18.166900
C -10.178700 -36.039300 -17.484500
C -10.177800 -37.318100 -18.156600
C -10.170500 -36.123100 -16.047900
C -10.170200 -38.492900 -17.494400
C -10.162900 -37.297900 -15.385800
C -10.161900 -38.576700 -16.057800
C -10.159900 -39.775600 -15.375400
F -10.146400 -34.988700 -15.348100
F -10.132700 -37.284300 -14.049000
C -10.106900 -34.727600 -19.598900
C -10.102700 -41.062900 -16.018400
N -10.039500 -42.131200 -16.423900
N -10.022200 -34.518500 -20.725900
