20
Fragment
N -7.775900 -25.191500 -8.623700
N -7.758500 -32.804200 -12.925600
C -7.695400 -31.735900 -13.331100
C -7.691100 -25.400600 -9.750700
F -7.665300 -27.957300 -15.300600
F -7.651700 -25.661700 -14.001400
C -7.638100 -30.448600 -13.974200
C -7.636200 -29.249700 -13.291700
C -7.635200 -27.970900 -13.963800
C -7.627900 -29.165900 -11.855100
C -7.627600 -26.796100 -13.301600
C -7.620300 -27.991100 -11.193000
C -7.619300 -26.712300 -11.865000
C -7.617300 -25.513400 -11.182600
F -7.603800 -30.300300 -11.155300
F -7.590100 -28.004700 -9.856200
C -7.564400 -30.561400 -15.406100
C -7.560100 -24.226100 -11.825600
N -7.496900 -23.157800 -12.231100
N -7.479600 -30.770500 -16.533100
20
Fragment
N -6.299800 -25.191500 -17.009200
N -6.282500 -32.804200 -21.311200
C -6.219300 -31.735900 -21.716700
C -6.215100 -25.400600 -18.136300
F -6.189300 -27.957300 -23.686200
F -6.175700 -25.661700 -22.387000
C -6.162100 -30.448600 -22.359700
C -6.160100 -29.249700 -21.677300
C -6.159100 -27.970900 -22.349300
C -6.151900 -29.165900 -20.240700
C -6.151500 -26.796100 -21.687200
C -6.144300 -27.991100 -19.578600
C -6.143300 -26.712300 -20.250600
C -6.141300 -25.513400 -19.568200
F -6.127700 -30.300300 -19.540900
F -6.114100 -28.004700 -18.241700
C -6.088300 -30.561400 -23.791700
C -6.084100 -24.226100 -20.211200
N -6.020900 -23.157800 -20.616700
N -6.003600 -30.770500 -24.918700
40
Fragment
N -7.775900 -25.191500 -8.623700
N -7.758500 -32.804200 -12.925600
C -7.695400 -31.735900 -13.331100
C -7.691100 -25.400600 -9.750700
F -7.665300 -27.957300 -15.300600
F -7.651700 -25.661700 -14.001400
C -7.638100 -30.448600 -13.974200
C -7.636200 -29.249700 -13.291700
C -7.635200 -27.970900 -13.963800
C -7.627900 -29.165900 -11.855100
C -7.627600 -26.796100 -13.301600
C -7.620300 -27.991100 -11.193000
C -7.619300 -26.712300 -11.865000
C -7.617300 -25.513400 -11.182600
F -7.603800 -30.300300 -11.155300
F -7.590100 -28.004700 -9.856200
C -7.564400 -30.561400 -15.406100
C -7.560100 -24.226100 -11.825600
N -7.496900 -23.157800 -12.231100
N -7.479600 -30.770500 -16.533100
N -6.299800 -25.191500 -17.009200
N -6.282500 -32.804200 -21.311200
C -6.219300 -31.735900 -21.716700
C -6.215100 -25.400600 -18.136300
F -6.189300 -27.957300 -23.686200
F -6.175700 -25.661700 -22.387000
C -6.162100 -30.448600 -22.359700
C -6.160100 -29.249700 -21.677300
C -6.159100 -27.970900 -22.349300
C -6.151900 -29.165900 -20.240700
C -6.151500 -26.796100 -21.687200
C -6.144300 -27.991100 -19.578600
C -6.143300 -26.712300 -20.250600
C -6.141300 -25.513400 -19.568200
F -6.127700 -30.300300 -19.540900
F -6.114100 -28.004700 -18.241700
C -6.088300 -30.561400 -23.791700
C -6.084100 -24.226100 -20.211200
N -6.020900 -23.157800 -20.616700
N -6.003600 -30.770500 -24.918700
