25
Fragment
H -4.413700 -25.070300 -30.811900
C -3.984800 -25.640500 -30.179700
H -3.692500 -24.604200 -28.345400
C -3.668100 -25.402800 -28.884600
H -3.660700 -22.076800 -23.341300
N -3.627000 -26.924400 -30.546900
H -3.512300 -23.518600 -25.446000
C -3.334200 -22.918800 -23.404500
C -3.248000 -23.669000 -24.520200
C -3.097600 -27.449400 -29.466800
N -3.091100 -26.569600 -28.414800
N -2.836100 -23.620500 -22.317100
N -2.814100 -25.793000 -26.250800
H -2.703800 -28.316200 -29.451200
N -2.683100 -24.875000 -24.137100
C -2.610400 -26.799100 -27.099100
C -2.455800 -24.789400 -22.788600
C -2.406600 -25.971400 -24.996800
H -2.048200 -25.576700 -22.291800
C -1.993600 -27.998100 -26.755900
H -1.868500 -28.726500 -27.374600
C -1.779400 -27.112400 -24.526700
C -1.574500 -28.141300 -25.439500
H -1.509800 -27.196500 -23.650500
H -1.129600 -29.009900 -25.163000
25
Fragment
H -1.768200 -21.266900 -21.692000
H -1.388000 -19.453500 -23.204500
C -1.323200 -20.398300 -21.415600
C -1.118400 -19.369400 -22.328300
H -1.029300 -20.983500 -19.480500
C -0.904100 -20.255100 -20.099100
H -0.849500 -17.833700 -24.563300
C -0.491200 -18.228400 -21.858300
C -0.441900 -17.046400 -24.066400
C -0.287400 -19.056100 -19.756000
N -0.214600 -17.132000 -22.717900
H -0.194000 -20.573200 -17.403800
N -0.083600 -18.050000 -20.604200
N -0.061600 -15.877500 -24.538000
N 0.193300 -18.826600 -18.440300
C 0.199900 -19.706400 -17.388300
C 0.350300 -15.926000 -22.334900
C 0.436400 -15.175800 -23.450600
H 0.614600 -15.775600 -21.409000
N 0.729200 -19.181400 -16.308200
H 0.763000 -14.333800 -23.513700
C 0.770400 -17.659800 -17.970400
H 0.794800 -16.861200 -18.509600
C 1.087100 -17.897500 -16.675300
H 1.516000 -17.327300 -16.043200
50
Fragment
H -4.413700 -25.070300 -30.811900
C -3.984800 -25.640500 -30.179700
H -3.692500 -24.604200 -28.345400
C -3.668100 -25.402800 -28.884600
H -3.660700 -22.076800 -23.341300
N -3.627000 -26.924400 -30.546900
H -3.512300 -23.518600 -25.446000
C -3.334200 -22.918800 -23.404500
C -3.248000 -23.669000 -24.520200
C -3.097600 -27.449400 -29.466800
N -3.091100 -26.569600 -28.414800
N -2.836100 -23.620500 -22.317100
N -2.814100 -25.793000 -26.250800
H -2.703800 -28.316200 -29.451200
N -2.683100 -24.875000 -24.137100
C -2.610400 -26.799100 -27.099100
C -2.455800 -24.789400 -22.788600
C -2.406600 -25.971400 -24.996800
H -2.048200 -25.576700 -22.291800
C -1.993600 -27.998100 -26.755900
H -1.868500 -28.726500 -27.374600
C -1.779400 -27.112400 -24.526700
C -1.574500 -28.141300 -25.439500
H -1.509800 -27.196500 -23.650500
H -1.129600 -29.009900 -25.163000
H -1.768200 -21.266900 -21.692000
H -1.388000 -19.453500 -23.204500
C -1.323200 -20.398300 -21.415600
C -1.118400 -19.369400 -22.328300
H -1.029300 -20.983500 -19.480500
C -0.904100 -20.255100 -20.099100
H -0.849500 -17.833700 -24.563300
C -0.491200 -18.228400 -21.858300
C -0.441900 -17.046400 -24.066400
C -0.287400 -19.056100 -19.756000
N -0.214600 -17.132000 -22.717900
H -0.194000 -20.573200 -17.403800
N -0.083600 -18.050000 -20.604200
N -0.061600 -15.877500 -24.538000
N 0.193300 -18.826600 -18.440300
C 0.199900 -19.706400 -17.388300
C 0.350300 -15.926000 -22.334900
C 0.436400 -15.175800 -23.450600
H 0.614600 -15.775600 -21.409000
N 0.729200 -19.181400 -16.308200
H 0.763000 -14.333800 -23.513700
C 0.770400 -17.659800 -17.970400
H 0.794800 -16.861200 -18.509600
C 1.087100 -17.897500 -16.675300
H 1.516000 -17.327300 -16.043200
