25
Fragment
H -4.413700 -25.070300 -30.811900
C -3.984800 -25.640500 -30.179700
H -3.692500 -24.604200 -28.345400
C -3.668100 -25.402800 -28.884600
H -3.660700 -22.076800 -23.341300
N -3.627000 -26.924400 -30.546900
H -3.512300 -23.518600 -25.446000
C -3.334200 -22.918800 -23.404500
C -3.248000 -23.669000 -24.520200
C -3.097600 -27.449400 -29.466800
N -3.091100 -26.569600 -28.414800
N -2.836100 -23.620500 -22.317100
N -2.814100 -25.793000 -26.250800
H -2.703800 -28.316200 -29.451200
N -2.683100 -24.875000 -24.137100
C -2.610400 -26.799100 -27.099100
C -2.455800 -24.789400 -22.788600
C -2.406600 -25.971400 -24.996800
H -2.048200 -25.576700 -22.291800
C -1.993600 -27.998100 -26.755900
H -1.868500 -28.726500 -27.374600
C -1.779400 -27.112400 -24.526700
C -1.574500 -28.141300 -25.439500
H -1.509800 -27.196500 -23.650500
H -1.129600 -29.009900 -25.163000
25
Fragment
H -3.484100 -29.130700 -40.182900
C -3.055300 -28.560500 -39.550700
H -2.763000 -29.596800 -37.716400
C -2.738500 -28.798200 -38.255600
H -2.731200 -32.124200 -32.712300
N -2.697400 -27.276600 -39.917900
H -2.582800 -30.682400 -34.817000
C -2.404600 -31.282200 -32.775500
C -2.318400 -30.532000 -33.891200
C -2.168100 -26.751600 -38.837800
N -2.161500 -27.631400 -37.785800
N -1.906600 -30.580500 -31.688100
N -1.884600 -28.408000 -35.621800
H -1.774200 -25.884800 -38.822200
N -1.753600 -29.326000 -33.508100
C -1.680800 -27.401900 -36.470100
C -1.526300 -29.411600 -32.159600
C -1.477000 -28.229600 -34.367800
H -1.118700 -28.624300 -31.662800
C -1.064100 -26.202900 -36.126900
H -0.938900 -25.474500 -36.745600
C -0.849800 -27.088600 -33.897700
C -0.644900 -26.059700 -34.810500
H -0.580200 -27.004500 -33.021600
H -0.200000 -25.191100 -34.534000
50
Fragment
H -4.413700 -25.070300 -30.811900
C -3.984800 -25.640500 -30.179700
H -3.692500 -24.604200 -28.345400
C -3.668100 -25.402800 -28.884600
H -3.660700 -22.076800 -23.341300
N -3.627000 -26.924400 -30.546900
H -3.512300 -23.518600 -25.446000
C -3.334200 -22.918800 -23.404500
C -3.248000 -23.669000 -24.520200
C -3.097600 -27.449400 -29.466800
N -3.091100 -26.569600 -28.414800
N -2.836100 -23.620500 -22.317100
N -2.814100 -25.793000 -26.250800
H -2.703800 -28.316200 -29.451200
N -2.683100 -24.875000 -24.137100
C -2.610400 -26.799100 -27.099100
C -2.455800 -24.789400 -22.788600
C -2.406600 -25.971400 -24.996800
H -2.048200 -25.576700 -22.291800
C -1.993600 -27.998100 -26.755900
H -1.868500 -28.726500 -27.374600
C -1.779400 -27.112400 -24.526700
C -1.574500 -28.141300 -25.439500
H -1.509800 -27.196500 -23.650500
H -1.129600 -29.009900 -25.163000
H -3.484100 -29.130700 -40.182900
C -3.055300 -28.560500 -39.550700
H -2.763000 -29.596800 -37.716400
C -2.738500 -28.798200 -38.255600
H -2.731200 -32.124200 -32.712300
N -2.697400 -27.276600 -39.917900
H -2.582800 -30.682400 -34.817000
C -2.404600 -31.282200 -32.775500
C -2.318400 -30.532000 -33.891200
C -2.168100 -26.751600 -38.837800
N -2.161500 -27.631400 -37.785800
N -1.906600 -30.580500 -31.688100
N -1.884600 -28.408000 -35.621800
H -1.774200 -25.884800 -38.822200
N -1.753600 -29.326000 -33.508100
C -1.680800 -27.401900 -36.470100
C -1.526300 -29.411600 -32.159600
C -1.477000 -28.229600 -34.367800
H -1.118700 -28.624300 -31.662800
C -1.064100 -26.202900 -36.126900
H -0.938900 -25.474500 -36.745600
C -0.849800 -27.088600 -33.897700
C -0.644900 -26.059700 -34.810500
H -0.580200 -27.004500 -33.021600
H -0.200000 -25.191100 -34.534000
