38
Fragment
H -13.556900 -21.421200 -42.823300
H -13.373800 -19.352500 -43.796500
C -12.897700 -20.838100 -42.522600
C -12.789200 -19.583100 -43.111600
H -12.136800 -22.083000 -41.111000
C -12.057500 -21.244700 -41.507200
C -11.842200 -18.675900 -42.707000
H -11.781400 -17.836000 -43.101400
C -11.082000 -20.332100 -41.104500
C -10.970800 -19.060800 -41.680600
N -10.114500 -20.377700 -40.126800
N -9.959600 -18.341900 -41.051700
H -9.941500 -21.039400 -39.607300
C -9.485900 -19.172300 -40.143200
C -8.379700 -18.862200 -39.228400
H -8.281000 -16.939100 -39.850600
H -8.279900 -24.011600 -36.034400
N -8.048600 -19.824900 -38.451100
C -7.755800 -17.510400 -39.285200
H -7.717700 -17.138500 -38.400100
H -7.611200 -25.513600 -34.431000
C -7.534900 -23.823800 -35.509200
N -7.278700 -21.715800 -36.641500
C -7.131400 -24.726300 -34.554800
N -7.006700 -19.614700 -37.601700
H -6.867200 -17.582400 -39.639700
C -6.839500 -22.630000 -35.698700
C -6.632500 -20.602400 -36.744100
H -6.554000 -18.874300 -37.612300
C -6.007500 -24.471300 -33.770900
H -5.738200 -25.089600 -33.131200
C -5.713000 -22.384600 -34.898400
C -5.439800 -20.237600 -35.943100
C -5.295400 -23.306900 -33.942600
N -5.048700 -21.181000 -35.072600
O -4.887200 -19.136700 -36.071300
H -4.541700 -23.137100 -33.425500
H -4.347500 -21.030200 -34.597900
38
Fragment
H -8.755700 -24.813500 -31.238200
H -8.572600 -26.882100 -32.211300
C -8.096500 -25.396600 -30.937400
C -7.988000 -26.651500 -31.526400
H -7.335600 -24.151700 -29.525900
C -7.256300 -24.990000 -29.922100
C -7.041000 -27.558800 -31.121900
H -6.980200 -28.398600 -31.516200
C -6.280800 -25.902500 -29.519400
C -6.169700 -27.173800 -30.095400
N -5.313400 -25.856900 -28.541600
N -5.158400 -27.892700 -29.466600
H -5.140400 -25.195200 -28.022100
C -4.684700 -27.062300 -28.558100
C -3.578600 -27.372500 -27.643300
H -3.479800 -29.295600 -28.265400
H -3.478700 -22.223000 -24.449300
N -3.247500 -26.409800 -26.865900
C -2.954700 -28.724300 -27.700100
H -2.916600 -29.096100 -26.815000
H -2.810100 -20.721000 -22.845900
C -2.733800 -22.410900 -23.924000
N -2.477500 -24.518900 -25.056300
C -2.330200 -21.508400 -22.969600
N -2.205500 -26.619900 -26.016500
H -2.066000 -28.652300 -28.054600
C -2.038300 -23.604600 -24.113500
C -1.831300 -25.632200 -25.159000
H -1.752800 -27.360300 -26.027200
C -1.206300 -21.763300 -22.185800
H -0.937100 -21.145100 -21.546000
C -0.911900 -23.850100 -23.313200
C -0.638600 -25.997100 -24.358000
C -0.494200 -22.927800 -22.357500
N -0.247500 -25.053600 -23.487500
O -0.086000 -27.098000 -24.486100
H 0.259500 -23.097500 -21.840300
H 0.453700 -25.204500 -23.012700
76
Fragment
H -13.556900 -21.421200 -42.823300
H -13.373800 -19.352500 -43.796500
C -12.897700 -20.838100 -42.522600
C -12.789200 -19.583100 -43.111600
H -12.136800 -22.083000 -41.111000
C -12.057500 -21.244700 -41.507200
C -11.842200 -18.675900 -42.707000
H -11.781400 -17.836000 -43.101400
C -11.082000 -20.332100 -41.104500
C -10.970800 -19.060800 -41.680600
N -10.114500 -20.377700 -40.126800
N -9.959600 -18.341900 -41.051700
H -9.941500 -21.039400 -39.607300
C -9.485900 -19.172300 -40.143200
C -8.379700 -18.862200 -39.228400
H -8.281000 -16.939100 -39.850600
H -8.279900 -24.011600 -36.034400
N -8.048600 -19.824900 -38.451100
C -7.755800 -17.510400 -39.285200
H -7.717700 -17.138500 -38.400100
H -7.611200 -25.513600 -34.431000
C -7.534900 -23.823800 -35.509200
N -7.278700 -21.715800 -36.641500
C -7.131400 -24.726300 -34.554800
N -7.006700 -19.614700 -37.601700
H -6.867200 -17.582400 -39.639700
C -6.839500 -22.630000 -35.698700
C -6.632500 -20.602400 -36.744100
H -6.554000 -18.874300 -37.612300
C -6.007500 -24.471300 -33.770900
H -5.738200 -25.089600 -33.131200
C -5.713000 -22.384600 -34.898400
C -5.439800 -20.237600 -35.943100
C -5.295400 -23.306900 -33.942600
N -5.048700 -21.181000 -35.072600
O -4.887200 -19.136700 -36.071300
H -4.541700 -23.137100 -33.425500
H -4.347500 -21.030200 -34.597900
H -8.755700 -24.813500 -31.238200
H -8.572600 -26.882100 -32.211300
C -8.096500 -25.396600 -30.937400
C -7.988000 -26.651500 -31.526400
H -7.335600 -24.151700 -29.525900
C -7.256300 -24.990000 -29.922100
C -7.041000 -27.558800 -31.121900
H -6.980200 -28.398600 -31.516200
C -6.280800 -25.902500 -29.519400
C -6.169700 -27.173800 -30.095400
N -5.313400 -25.856900 -28.541600
N -5.158400 -27.892700 -29.466600
H -5.140400 -25.195200 -28.022100
C -4.684700 -27.062300 -28.558100
C -3.578600 -27.372500 -27.643300
H -3.479800 -29.295600 -28.265400
H -3.478700 -22.223000 -24.449300
N -3.247500 -26.409800 -26.865900
C -2.954700 -28.724300 -27.700100
H -2.916600 -29.096100 -26.815000
H -2.810100 -20.721000 -22.845900
C -2.733800 -22.410900 -23.924000
N -2.477500 -24.518900 -25.056300
C -2.330200 -21.508400 -22.969600
N -2.205500 -26.619900 -26.016500
H -2.066000 -28.652300 -28.054600
C -2.038300 -23.604600 -24.113500
C -1.831300 -25.632200 -25.159000
H -1.752800 -27.360300 -26.027200
C -1.206300 -21.763300 -22.185800
H -0.937100 -21.145100 -21.546000
C -0.911900 -23.850100 -23.313200
C -0.638600 -25.997100 -24.358000
C -0.494200 -22.927800 -22.357500
N -0.247500 -25.053600 -23.487500
O -0.086000 -27.098000 -24.486100
H 0.259500 -23.097500 -21.840300
H 0.453700 -25.204500 -23.012700
