38
Fragment
H -13.556900 -21.421200 -42.823300
H -13.373800 -19.352500 -43.796500
C -12.897700 -20.838100 -42.522600
C -12.789200 -19.583100 -43.111600
H -12.136800 -22.083000 -41.111000
C -12.057500 -21.244700 -41.507200
C -11.842200 -18.675900 -42.707000
H -11.781400 -17.836000 -43.101400
C -11.082000 -20.332100 -41.104500
C -10.970800 -19.060800 -41.680600
N -10.114500 -20.377700 -40.126800
N -9.959600 -18.341900 -41.051700
H -9.941500 -21.039400 -39.607300
C -9.485900 -19.172300 -40.143200
C -8.379700 -18.862200 -39.228400
H -8.281000 -16.939100 -39.850600
H -8.279900 -24.011600 -36.034400
N -8.048600 -19.824900 -38.451100
C -7.755800 -17.510400 -39.285200
H -7.717700 -17.138500 -38.400100
H -7.611200 -25.513600 -34.431000
C -7.534900 -23.823800 -35.509200
N -7.278700 -21.715800 -36.641500
C -7.131400 -24.726300 -34.554800
N -7.006700 -19.614700 -37.601700
H -6.867200 -17.582400 -39.639700
C -6.839500 -22.630000 -35.698700
C -6.632500 -20.602400 -36.744100
H -6.554000 -18.874300 -37.612300
C -6.007500 -24.471300 -33.770900
H -5.738200 -25.089600 -33.131200
C -5.713000 -22.384600 -34.898400
C -5.439800 -20.237600 -35.943100
C -5.295400 -23.306900 -33.942600
N -5.048700 -21.181000 -35.072600
O -4.887200 -19.136700 -36.071300
H -4.541700 -23.137100 -33.425500
H -4.347500 -21.030200 -34.597900
38
Fragment
H -13.482600 -27.635100 -46.498100
H -13.288400 -29.742100 -47.670500
O -12.942900 -25.741600 -45.024700
N -12.781300 -27.786000 -46.023400
C -12.534700 -29.911800 -47.153400
C -12.390300 -26.842500 -45.152900
C -12.117000 -28.989500 -46.197600
H -12.091800 -31.694500 -47.964800
C -11.822600 -31.076300 -47.325100
H -11.276100 -25.479300 -43.483700
C -11.197600 -27.207400 -44.351900
C -10.990600 -29.235000 -45.397300
H -10.962900 -24.187300 -41.456300
N -10.823400 -26.219700 -43.494300
C -10.698600 -31.331200 -46.541200
N -10.551300 -28.320700 -44.454500
C -10.295100 -30.428700 -45.586800
H -10.218800 -32.118600 -46.665000
H -10.112300 -23.743500 -42.695900
C -10.074200 -24.115300 -41.810800
N -9.781400 -26.429800 -42.644900
H -9.550100 -30.616600 -45.061600
H -9.549100 -23.544000 -41.245400
C -9.450300 -25.467100 -41.867500
C -8.344200 -25.777300 -40.952800
H -7.888500 -27.644400 -41.488700
N -7.870500 -24.946900 -40.044300
N -7.715500 -26.982700 -40.969200
C -6.859200 -25.665800 -39.415400
C -6.748100 -26.937100 -39.991400
H -6.048700 -24.441000 -37.994600
C -5.987800 -25.280800 -38.389000
C -5.772600 -27.849600 -39.588700
H -5.693300 -28.687900 -39.985000
C -5.040800 -26.188100 -37.984400
C -4.932300 -27.443000 -38.573400
H -4.456300 -25.957500 -37.299500
H -4.273100 -28.026100 -38.272700
76
Fragment
H -13.556900 -21.421200 -42.823300
H -13.373800 -19.352500 -43.796500
C -12.897700 -20.838100 -42.522600
C -12.789200 -19.583100 -43.111600
H -12.136800 -22.083000 -41.111000
C -12.057500 -21.244700 -41.507200
C -11.842200 -18.675900 -42.707000
H -11.781400 -17.836000 -43.101400
C -11.082000 -20.332100 -41.104500
C -10.970800 -19.060800 -41.680600
N -10.114500 -20.377700 -40.126800
N -9.959600 -18.341900 -41.051700
H -9.941500 -21.039400 -39.607300
C -9.485900 -19.172300 -40.143200
C -8.379700 -18.862200 -39.228400
H -8.281000 -16.939100 -39.850600
H -8.279900 -24.011600 -36.034400
N -8.048600 -19.824900 -38.451100
C -7.755800 -17.510400 -39.285200
H -7.717700 -17.138500 -38.400100
H -7.611200 -25.513600 -34.431000
C -7.534900 -23.823800 -35.509200
N -7.278700 -21.715800 -36.641500
C -7.131400 -24.726300 -34.554800
N -7.006700 -19.614700 -37.601700
H -6.867200 -17.582400 -39.639700
C -6.839500 -22.630000 -35.698700
C -6.632500 -20.602400 -36.744100
H -6.554000 -18.874300 -37.612300
C -6.007500 -24.471300 -33.770900
H -5.738200 -25.089600 -33.131200
C -5.713000 -22.384600 -34.898400
C -5.439800 -20.237600 -35.943100
C -5.295400 -23.306900 -33.942600
N -5.048700 -21.181000 -35.072600
O -4.887200 -19.136700 -36.071300
H -4.541700 -23.137100 -33.425500
H -4.347500 -21.030200 -34.597900
H -13.482600 -27.635100 -46.498100
H -13.288400 -29.742100 -47.670500
O -12.942900 -25.741600 -45.024700
N -12.781300 -27.786000 -46.023400
C -12.534700 -29.911800 -47.153400
C -12.390300 -26.842500 -45.152900
C -12.117000 -28.989500 -46.197600
H -12.091800 -31.694500 -47.964800
C -11.822600 -31.076300 -47.325100
H -11.276100 -25.479300 -43.483700
C -11.197600 -27.207400 -44.351900
C -10.990600 -29.235000 -45.397300
H -10.962900 -24.187300 -41.456300
N -10.823400 -26.219700 -43.494300
C -10.698600 -31.331200 -46.541200
N -10.551300 -28.320700 -44.454500
C -10.295100 -30.428700 -45.586800
H -10.218800 -32.118600 -46.665000
H -10.112300 -23.743500 -42.695900
C -10.074200 -24.115300 -41.810800
N -9.781400 -26.429800 -42.644900
H -9.550100 -30.616600 -45.061600
H -9.549100 -23.544000 -41.245400
C -9.450300 -25.467100 -41.867500
C -8.344200 -25.777300 -40.952800
H -7.888500 -27.644400 -41.488700
N -7.870500 -24.946900 -40.044300
N -7.715500 -26.982700 -40.969200
C -6.859200 -25.665800 -39.415400
C -6.748100 -26.937100 -39.991400
H -6.048700 -24.441000 -37.994600
C -5.987800 -25.280800 -38.389000
C -5.772600 -27.849600 -39.588700
H -5.693300 -28.687900 -39.985000
C -5.040800 -26.188100 -37.984400
C -4.932300 -27.443000 -38.573400
H -4.456300 -25.957500 -37.299500
H -4.273100 -28.026100 -38.272700
