38
Fragment
H -13.556900 -21.421200 -42.823300
H -13.373800 -19.352500 -43.796500
C -12.897700 -20.838100 -42.522600
C -12.789200 -19.583100 -43.111600
H -12.136800 -22.083000 -41.111000
C -12.057500 -21.244700 -41.507200
C -11.842200 -18.675900 -42.707000
H -11.781400 -17.836000 -43.101400
C -11.082000 -20.332100 -41.104500
C -10.970800 -19.060800 -41.680600
N -10.114500 -20.377700 -40.126800
N -9.959600 -18.341900 -41.051700
H -9.941500 -21.039400 -39.607300
C -9.485900 -19.172300 -40.143200
C -8.379700 -18.862200 -39.228400
H -8.281000 -16.939100 -39.850600
H -8.279900 -24.011600 -36.034400
N -8.048600 -19.824900 -38.451100
C -7.755800 -17.510400 -39.285200
H -7.717700 -17.138500 -38.400100
H -7.611200 -25.513600 -34.431000
C -7.534900 -23.823800 -35.509200
N -7.278700 -21.715800 -36.641500
C -7.131400 -24.726300 -34.554800
N -7.006700 -19.614700 -37.601700
H -6.867200 -17.582400 -39.639700
C -6.839500 -22.630000 -35.698700
C -6.632500 -20.602400 -36.744100
H -6.554000 -18.874300 -37.612300
C -6.007500 -24.471300 -33.770900
H -5.738200 -25.089600 -33.131200
C -5.713000 -22.384600 -34.898400
C -5.439800 -20.237600 -35.943100
C -5.295400 -23.306900 -33.942600
N -5.048700 -21.181000 -35.072600
O -4.887200 -19.136700 -36.071300
H -4.541700 -23.137100 -33.425500
H -4.347500 -21.030200 -34.597900
38
Fragment
H -8.297500 -21.421200 -42.823300
H -8.114400 -19.352500 -43.796500
C -7.638300 -20.838100 -42.522600
C -7.529800 -19.583100 -43.111600
H -6.877400 -22.083000 -41.111000
C -6.798100 -21.244700 -41.507200
C -6.582800 -18.675900 -42.707000
H -6.522000 -17.836000 -43.101400
C -5.822600 -20.332100 -41.104500
C -5.711400 -19.060800 -41.680600
N -4.855100 -20.377700 -40.126800
N -4.700200 -18.341900 -41.051700
H -4.682100 -21.039400 -39.607300
C -4.226500 -19.172300 -40.143200
C -3.120300 -18.862200 -39.228400
H -3.021600 -16.939100 -39.850600
H -3.020500 -24.011600 -36.034400
N -2.789200 -19.824900 -38.451100
C -2.496400 -17.510400 -39.285200
H -2.458300 -17.138500 -38.400100
H -2.351800 -25.513600 -34.431000
C -2.275500 -23.823800 -35.509200
N -2.019300 -21.715800 -36.641500
C -1.872000 -24.726300 -34.554800
N -1.747300 -19.614700 -37.601700
H -1.607800 -17.582400 -39.639700
C -1.580100 -22.630000 -35.698700
C -1.373100 -20.602400 -36.744100
H -1.294600 -18.874300 -37.612300
C -0.748100 -24.471300 -33.770900
H -0.478800 -25.089600 -33.131200
C -0.453600 -22.384600 -34.898400
C -0.180400 -20.237600 -35.943100
C -0.036000 -23.306900 -33.942600
N 0.210700 -21.181000 -35.072600
O 0.372200 -19.136700 -36.071300
H 0.717700 -23.137100 -33.425500
H 0.911900 -21.030200 -34.597900
76
Fragment
H -13.556900 -21.421200 -42.823300
H -13.373800 -19.352500 -43.796500
C -12.897700 -20.838100 -42.522600
C -12.789200 -19.583100 -43.111600
H -12.136800 -22.083000 -41.111000
C -12.057500 -21.244700 -41.507200
C -11.842200 -18.675900 -42.707000
H -11.781400 -17.836000 -43.101400
C -11.082000 -20.332100 -41.104500
C -10.970800 -19.060800 -41.680600
N -10.114500 -20.377700 -40.126800
N -9.959600 -18.341900 -41.051700
H -9.941500 -21.039400 -39.607300
C -9.485900 -19.172300 -40.143200
C -8.379700 -18.862200 -39.228400
H -8.281000 -16.939100 -39.850600
H -8.279900 -24.011600 -36.034400
N -8.048600 -19.824900 -38.451100
C -7.755800 -17.510400 -39.285200
H -7.717700 -17.138500 -38.400100
H -7.611200 -25.513600 -34.431000
C -7.534900 -23.823800 -35.509200
N -7.278700 -21.715800 -36.641500
C -7.131400 -24.726300 -34.554800
N -7.006700 -19.614700 -37.601700
H -6.867200 -17.582400 -39.639700
C -6.839500 -22.630000 -35.698700
C -6.632500 -20.602400 -36.744100
H -6.554000 -18.874300 -37.612300
C -6.007500 -24.471300 -33.770900
H -5.738200 -25.089600 -33.131200
C -5.713000 -22.384600 -34.898400
C -5.439800 -20.237600 -35.943100
C -5.295400 -23.306900 -33.942600
N -5.048700 -21.181000 -35.072600
O -4.887200 -19.136700 -36.071300
H -4.541700 -23.137100 -33.425500
H -4.347500 -21.030200 -34.597900
H -8.297500 -21.421200 -42.823300
H -8.114400 -19.352500 -43.796500
C -7.638300 -20.838100 -42.522600
C -7.529800 -19.583100 -43.111600
H -6.877400 -22.083000 -41.111000
C -6.798100 -21.244700 -41.507200
C -6.582800 -18.675900 -42.707000
H -6.522000 -17.836000 -43.101400
C -5.822600 -20.332100 -41.104500
C -5.711400 -19.060800 -41.680600
N -4.855100 -20.377700 -40.126800
N -4.700200 -18.341900 -41.051700
H -4.682100 -21.039400 -39.607300
C -4.226500 -19.172300 -40.143200
C -3.120300 -18.862200 -39.228400
H -3.021600 -16.939100 -39.850600
H -3.020500 -24.011600 -36.034400
N -2.789200 -19.824900 -38.451100
C -2.496400 -17.510400 -39.285200
H -2.458300 -17.138500 -38.400100
H -2.351800 -25.513600 -34.431000
C -2.275500 -23.823800 -35.509200
N -2.019300 -21.715800 -36.641500
C -1.872000 -24.726300 -34.554800
N -1.747300 -19.614700 -37.601700
H -1.607800 -17.582400 -39.639700
C -1.580100 -22.630000 -35.698700
C -1.373100 -20.602400 -36.744100
H -1.294600 -18.874300 -37.612300
C -0.748100 -24.471300 -33.770900
H -0.478800 -25.089600 -33.131200
C -0.453600 -22.384600 -34.898400
C -0.180400 -20.237600 -35.943100
C -0.036000 -23.306900 -33.942600
N 0.210700 -21.181000 -35.072600
O 0.372200 -19.136700 -36.071300
H 0.717700 -23.137100 -33.425500
H 0.911900 -21.030200 -34.597900
