17
Fragment
H -5.781300 -24.817200 -37.214000
O -5.558100 -23.060800 -35.411300
C -5.395500 -24.044000 -37.557900
H -5.323000 -22.199800 -35.016100
C -5.184100 -22.951700 -36.726200
H -5.183700 -24.731500 -39.431600
C -5.039500 -23.992000 -38.886300
O -4.625100 -20.649900 -35.171600
C -4.605200 -21.791600 -37.254900
C -4.464400 -22.841300 -39.420700
C -4.334600 -20.646400 -36.379200
C -4.256900 -21.748900 -38.609900
H -4.239900 -23.546100 -41.260500
O -4.076900 -22.750300 -40.733200
H -3.882200 -20.975500 -38.965600
O -3.760000 -19.619800 -36.949000
H -3.577700 -18.955400 -36.335700
17
Fragment
H -3.887100 -26.272400 -41.413800
O -3.704800 -26.936800 -40.800500
H -3.582600 -28.292500 -38.783900
O -3.388000 -30.067300 -37.016300
H -3.224900 -30.863100 -36.488900
C -3.208000 -29.065900 -39.139500
C -3.130200 -27.963400 -41.370300
C -3.000400 -30.158300 -38.328700
C -2.859600 -29.108600 -40.494600
O -2.839800 -27.966900 -42.577800
C -2.425300 -31.309000 -38.863200
H -2.281100 -32.048500 -38.317800
C -2.280700 -30.268700 -41.023300
H -2.141800 -29.516800 -42.733300
C -2.069300 -31.361000 -40.191600
O -1.906800 -30.377800 -42.338100
H -1.683500 -32.134200 -40.535500
34
Fragment
H -5.781300 -24.817200 -37.214000
O -5.558100 -23.060800 -35.411300
C -5.395500 -24.044000 -37.557900
H -5.323000 -22.199800 -35.016100
C -5.184100 -22.951700 -36.726200
H -5.183700 -24.731500 -39.431600
C -5.039500 -23.992000 -38.886300
O -4.625100 -20.649900 -35.171600
C -4.605200 -21.791600 -37.254900
C -4.464400 -22.841300 -39.420700
C -4.334600 -20.646400 -36.379200
C -4.256900 -21.748900 -38.609900
H -4.239900 -23.546100 -41.260500
O -4.076900 -22.750300 -40.733200
H -3.882200 -20.975500 -38.965600
O -3.760000 -19.619800 -36.949000
H -3.577700 -18.955400 -36.335700
H -3.887100 -26.272400 -41.413800
O -3.704800 -26.936800 -40.800500
H -3.582600 -28.292500 -38.783900
O -3.388000 -30.067300 -37.016300
H -3.224900 -30.863100 -36.488900
C -3.208000 -29.065900 -39.139500
C -3.130200 -27.963400 -41.370300
C -3.000400 -30.158300 -38.328700
C -2.859600 -29.108600 -40.494600
O -2.839800 -27.966900 -42.577800
C -2.425300 -31.309000 -38.863200
H -2.281100 -32.048500 -38.317800
C -2.280700 -30.268700 -41.023300
H -2.141800 -29.516800 -42.733300
C -2.069300 -31.361000 -40.191600
O -1.906800 -30.377800 -42.338100
H -1.683500 -32.134200 -40.535500
