17
Fragment
H -5.781300 -24.817200 -37.214000
O -5.558100 -23.060800 -35.411300
C -5.395500 -24.044000 -37.557900
H -5.323000 -22.199800 -35.016100
C -5.184100 -22.951700 -36.726200
H -5.183700 -24.731500 -39.431600
C -5.039500 -23.992000 -38.886300
O -4.625100 -20.649900 -35.171600
C -4.605200 -21.791600 -37.254900
C -4.464400 -22.841300 -39.420700
C -4.334600 -20.646400 -36.379200
C -4.256900 -21.748900 -38.609900
H -4.239900 -23.546100 -41.260500
O -4.076900 -22.750300 -40.733200
H -3.882200 -20.975500 -38.965600
O -3.760000 -19.619800 -36.949000
H -3.577700 -18.955400 -36.335700
17
Fragment
H -9.496300 -24.817200 -37.214000
O -9.273100 -23.060800 -35.411300
C -9.110500 -24.044000 -37.557900
H -9.038000 -22.199800 -35.016100
C -8.899100 -22.951700 -36.726200
H -8.898700 -24.731500 -39.431600
C -8.754500 -23.992000 -38.886300
O -8.340100 -20.649900 -35.171600
C -8.320200 -21.791600 -37.254900
C -8.179400 -22.841300 -39.420700
C -8.049600 -20.646400 -36.379200
C -7.971900 -21.748900 -38.609900
H -7.954900 -23.546100 -41.260500
O -7.791900 -22.750300 -40.733200
H -7.597200 -20.975500 -38.965600
O -7.475000 -19.619800 -36.949000
H -7.292700 -18.955400 -36.335700
34
Fragment
H -5.781300 -24.817200 -37.214000
O -5.558100 -23.060800 -35.411300
C -5.395500 -24.044000 -37.557900
H -5.323000 -22.199800 -35.016100
C -5.184100 -22.951700 -36.726200
H -5.183700 -24.731500 -39.431600
C -5.039500 -23.992000 -38.886300
O -4.625100 -20.649900 -35.171600
C -4.605200 -21.791600 -37.254900
C -4.464400 -22.841300 -39.420700
C -4.334600 -20.646400 -36.379200
C -4.256900 -21.748900 -38.609900
H -4.239900 -23.546100 -41.260500
O -4.076900 -22.750300 -40.733200
H -3.882200 -20.975500 -38.965600
O -3.760000 -19.619800 -36.949000
H -3.577700 -18.955400 -36.335700
H -9.496300 -24.817200 -37.214000
O -9.273100 -23.060800 -35.411300
C -9.110500 -24.044000 -37.557900
H -9.038000 -22.199800 -35.016100
C -8.899100 -22.951700 -36.726200
H -8.898700 -24.731500 -39.431600
C -8.754500 -23.992000 -38.886300
O -8.340100 -20.649900 -35.171600
C -8.320200 -21.791600 -37.254900
C -8.179400 -22.841300 -39.420700
C -8.049600 -20.646400 -36.379200
C -7.971900 -21.748900 -38.609900
H -7.954900 -23.546100 -41.260500
O -7.791900 -22.750300 -40.733200
H -7.597200 -20.975500 -38.965600
O -7.475000 -19.619800 -36.949000
H -7.292700 -18.955400 -36.335700
