17
Fragment
H -5.781300 -24.817200 -37.214000
O -5.558100 -23.060800 -35.411300
C -5.395500 -24.044000 -37.557900
H -5.323000 -22.199800 -35.016100
C -5.184100 -22.951700 -36.726200
H -5.183700 -24.731500 -39.431600
C -5.039500 -23.992000 -38.886300
O -4.625100 -20.649900 -35.171600
C -4.605200 -21.791600 -37.254900
C -4.464400 -22.841300 -39.420700
C -4.334600 -20.646400 -36.379200
C -4.256900 -21.748900 -38.609900
H -4.239900 -23.546100 -41.260500
O -4.076900 -22.750300 -40.733200
H -3.882200 -20.975500 -38.965600
O -3.760000 -19.619800 -36.949000
H -3.577700 -18.955400 -36.335700
13
Fragment
H -9.262600 -29.458200 -34.509600
N -8.837000 -28.805000 -34.994600
N -8.783400 -27.551900 -33.065300
O -8.646900 -26.266000 -31.192400
H -8.551600 -28.924100 -35.795800
C -8.490200 -27.700700 -34.370600
C -8.423900 -26.423300 -32.426200
C -7.823100 -26.648200 -35.066100
N -7.814600 -25.407300 -33.117900
H -7.610700 -24.620200 -32.599200
F -7.546500 -26.830000 -36.382100
C -7.513600 -25.518300 -34.439700
H -7.100800 -24.819800 -34.894200
30
Fragment
H -5.781300 -24.817200 -37.214000
O -5.558100 -23.060800 -35.411300
C -5.395500 -24.044000 -37.557900
H -5.323000 -22.199800 -35.016100
C -5.184100 -22.951700 -36.726200
H -5.183700 -24.731500 -39.431600
C -5.039500 -23.992000 -38.886300
O -4.625100 -20.649900 -35.171600
C -4.605200 -21.791600 -37.254900
C -4.464400 -22.841300 -39.420700
C -4.334600 -20.646400 -36.379200
C -4.256900 -21.748900 -38.609900
H -4.239900 -23.546100 -41.260500
O -4.076900 -22.750300 -40.733200
H -3.882200 -20.975500 -38.965600
O -3.760000 -19.619800 -36.949000
H -3.577700 -18.955400 -36.335700
H -9.262600 -29.458200 -34.509600
N -8.837000 -28.805000 -34.994600
N -8.783400 -27.551900 -33.065300
O -8.646900 -26.266000 -31.192400
H -8.551600 -28.924100 -35.795800
C -8.490200 -27.700700 -34.370600
C -8.423900 -26.423300 -32.426200
C -7.823100 -26.648200 -35.066100
N -7.814600 -25.407300 -33.117900
H -7.610700 -24.620200 -32.599200
F -7.546500 -26.830000 -36.382100
C -7.513600 -25.518300 -34.439700
H -7.100800 -24.819800 -34.894200
