17
Fragment
H -5.781300 -24.817200 -37.214000
O -5.558100 -23.060800 -35.411300
C -5.395500 -24.044000 -37.557900
H -5.323000 -22.199800 -35.016100
C -5.184100 -22.951700 -36.726200
H -5.183700 -24.731500 -39.431600
C -5.039500 -23.992000 -38.886300
O -4.625100 -20.649900 -35.171600
C -4.605200 -21.791600 -37.254900
C -4.464400 -22.841300 -39.420700
C -4.334600 -20.646400 -36.379200
C -4.256900 -21.748900 -38.609900
H -4.239900 -23.546100 -41.260500
O -4.076900 -22.750300 -40.733200
H -3.882200 -20.975500 -38.965600
O -3.760000 -19.619800 -36.949000
H -3.577700 -18.955400 -36.335700
13
Fragment
H -4.604800 -19.082200 -31.748200
C -4.192000 -18.383700 -32.202700
F -4.159100 -17.072000 -30.260300
H -4.094900 -19.281800 -34.043200
N -3.890900 -18.494700 -33.524500
C -3.882500 -17.253800 -31.576300
C -3.281600 -17.478700 -34.216200
C -3.215400 -16.201300 -32.271800
H -3.153900 -14.977900 -30.846500
O -3.058600 -17.636000 -35.450000
N -2.922200 -16.350100 -33.577100
N -2.868600 -15.097000 -31.647800
H -2.442900 -14.443800 -32.132700
30
Fragment
H -5.781300 -24.817200 -37.214000
O -5.558100 -23.060800 -35.411300
C -5.395500 -24.044000 -37.557900
H -5.323000 -22.199800 -35.016100
C -5.184100 -22.951700 -36.726200
H -5.183700 -24.731500 -39.431600
C -5.039500 -23.992000 -38.886300
O -4.625100 -20.649900 -35.171600
C -4.605200 -21.791600 -37.254900
C -4.464400 -22.841300 -39.420700
C -4.334600 -20.646400 -36.379200
C -4.256900 -21.748900 -38.609900
H -4.239900 -23.546100 -41.260500
O -4.076900 -22.750300 -40.733200
H -3.882200 -20.975500 -38.965600
O -3.760000 -19.619800 -36.949000
H -3.577700 -18.955400 -36.335700
H -4.604800 -19.082200 -31.748200
C -4.192000 -18.383700 -32.202700
F -4.159100 -17.072000 -30.260300
H -4.094900 -19.281800 -34.043200
N -3.890900 -18.494700 -33.524500
C -3.882500 -17.253800 -31.576300
C -3.281600 -17.478700 -34.216200
C -3.215400 -16.201300 -32.271800
H -3.153900 -14.977900 -30.846500
O -3.058600 -17.636000 -35.450000
N -2.922200 -16.350100 -33.577100
N -2.868600 -15.097000 -31.647800
H -2.442900 -14.443800 -32.132700
