18
Fragment
H -9.608900 -11.617000 -24.029400
O -9.433900 -11.398300 -23.258600
O -9.194600 -9.392500 -24.161600
C -9.045000 -10.143400 -23.235400
H -8.915000 -11.363600 -20.843500
C -8.476500 -10.543400 -20.812700
C -8.432300 -9.737300 -21.936600
H -7.915100 -10.666800 -18.888700
C -7.870600 -10.130000 -19.647000
C -7.772500 -8.515000 -21.887400
H -7.754900 -7.966300 -22.638300
C -7.197700 -8.923800 -19.595300
C -7.141100 -8.109600 -20.721600
H -6.782000 -8.656400 -18.807400
C -6.379900 -6.832700 -20.674900
O -6.365700 -6.195200 -21.803800
H -5.843800 -5.529800 -21.891100
O -5.802000 -6.442600 -19.668000
16
Fragment
H -5.517100 -10.540800 -23.813900
C -5.044400 -10.073300 -23.164000
N -4.918100 -10.677500 -21.996100
N -4.586300 -8.896400 -23.524300
H -4.474900 -11.438300 -19.786100
C -4.218900 -10.018000 -21.034300
N -4.113900 -10.663500 -19.880000
C -3.898900 -8.195600 -22.575500
H -3.684900 -10.306700 -19.226000
C -3.666800 -8.739700 -21.290400
H -3.611400 -6.710000 -23.725300
N -3.459900 -7.004700 -22.931300
H -3.020300 -6.522600 -22.371200
C -2.948700 -8.012900 -20.280900
H -2.845600 -8.424400 -19.453700
O -2.461400 -6.902700 -20.416600
34
Fragment
H -9.608900 -11.617000 -24.029400
O -9.433900 -11.398300 -23.258600
O -9.194600 -9.392500 -24.161600
C -9.045000 -10.143400 -23.235400
H -8.915000 -11.363600 -20.843500
C -8.476500 -10.543400 -20.812700
C -8.432300 -9.737300 -21.936600
H -7.915100 -10.666800 -18.888700
C -7.870600 -10.130000 -19.647000
C -7.772500 -8.515000 -21.887400
H -7.754900 -7.966300 -22.638300
C -7.197700 -8.923800 -19.595300
C -7.141100 -8.109600 -20.721600
H -6.782000 -8.656400 -18.807400
C -6.379900 -6.832700 -20.674900
O -6.365700 -6.195200 -21.803800
H -5.843800 -5.529800 -21.891100
O -5.802000 -6.442600 -19.668000
H -5.517100 -10.540800 -23.813900
C -5.044400 -10.073300 -23.164000
N -4.918100 -10.677500 -21.996100
N -4.586300 -8.896400 -23.524300
H -4.474900 -11.438300 -19.786100
C -4.218900 -10.018000 -21.034300
N -4.113900 -10.663500 -19.880000
C -3.898900 -8.195600 -22.575500
H -3.684900 -10.306700 -19.226000
C -3.666800 -8.739700 -21.290400
H -3.611400 -6.710000 -23.725300
N -3.459900 -7.004700 -22.931300
H -3.020300 -6.522600 -22.371200
C -2.948700 -8.012900 -20.280900
H -2.845600 -8.424400 -19.453700
O -2.461400 -6.902700 -20.416600
