25
Fragment
O -9.672900 -7.505600 -12.870600
N -8.942000 -6.506400 -13.004700
O -8.803400 -5.686100 -12.068400
N -8.317600 -6.387100 -14.178600
H -7.485400 -6.551600 -16.887300
H -7.456500 -4.476300 -12.635700
C -7.405200 -5.401100 -14.313900
O -7.135800 -7.395700 -18.963900
N -7.021400 -4.469200 -13.404700
N -6.822800 -6.010600 -16.712400
C -6.692500 -5.315400 -15.532600
N -6.196600 -6.773200 -19.481700
N -6.000800 -3.589100 -13.491400
C -5.871900 -5.542800 -17.560000
O -5.810700 -6.981600 -20.646700
C -5.650100 -4.427400 -15.671300
N -5.514100 -5.814000 -18.830900
C -5.306000 -3.575100 -14.599800
N -5.163700 -4.576500 -16.932000
H -4.568600 -4.149000 -17.292200
H -4.309400 -1.962100 -14.153600
N -4.260100 -2.634300 -14.678300
N -2.968300 -3.138100 -14.768700
O -2.833300 -4.278700 -15.165800
O -2.068400 -2.359900 -14.480800
25
Fragment
O -12.142200 -10.909400 -10.587600
O -11.377300 -8.990600 -9.902600
N -11.242300 -10.131200 -10.299700
N -9.950500 -10.635000 -10.390100
H -9.901200 -11.307300 -10.914800
H -9.642000 -9.120400 -7.776200
N -9.046900 -8.692800 -8.136500
C -8.904600 -9.694300 -10.468600
N -8.696500 -7.455300 -6.237500
C -8.560500 -8.841900 -9.397100
O -8.399900 -6.287700 -4.421700
C -8.338700 -7.726500 -7.508400
N -8.209800 -9.680300 -11.577000
N -8.014000 -6.496200 -5.586700
C -7.518100 -7.953900 -9.535800
N -7.387800 -7.258800 -8.356100
N -7.189200 -8.800200 -11.663700
O -7.074800 -5.873700 -6.104500
C -6.805400 -7.868300 -10.754500
H -6.754100 -8.793100 -12.432700
H -6.725200 -6.717800 -8.181100
N -5.893000 -6.882300 -10.889800
O -5.407200 -7.583300 -13.000000
N -5.268600 -6.763000 -12.063700
O -4.537700 -5.763800 -12.197800
50
Fragment
O -9.672900 -7.505600 -12.870600
N -8.942000 -6.506400 -13.004700
O -8.803400 -5.686100 -12.068400
N -8.317600 -6.387100 -14.178600
H -7.485400 -6.551600 -16.887300
H -7.456500 -4.476300 -12.635700
C -7.405200 -5.401100 -14.313900
O -7.135800 -7.395700 -18.963900
N -7.021400 -4.469200 -13.404700
N -6.822800 -6.010600 -16.712400
C -6.692500 -5.315400 -15.532600
N -6.196600 -6.773200 -19.481700
N -6.000800 -3.589100 -13.491400
C -5.871900 -5.542800 -17.560000
O -5.810700 -6.981600 -20.646700
C -5.650100 -4.427400 -15.671300
N -5.514100 -5.814000 -18.830900
C -5.306000 -3.575100 -14.599800
N -5.163700 -4.576500 -16.932000
H -4.568600 -4.149000 -17.292200
H -4.309400 -1.962100 -14.153600
N -4.260100 -2.634300 -14.678300
N -2.968300 -3.138100 -14.768700
O -2.833300 -4.278700 -15.165800
O -2.068400 -2.359900 -14.480800
O -12.142200 -10.909400 -10.587600
O -11.377300 -8.990600 -9.902600
N -11.242300 -10.131200 -10.299700
N -9.950500 -10.635000 -10.390100
H -9.901200 -11.307300 -10.914800
H -9.642000 -9.120400 -7.776200
N -9.046900 -8.692800 -8.136500
C -8.904600 -9.694300 -10.468600
N -8.696500 -7.455300 -6.237500
C -8.560500 -8.841900 -9.397100
O -8.399900 -6.287700 -4.421700
C -8.338700 -7.726500 -7.508400
N -8.209800 -9.680300 -11.577000
N -8.014000 -6.496200 -5.586700
C -7.518100 -7.953900 -9.535800
N -7.387800 -7.258800 -8.356100
N -7.189200 -8.800200 -11.663700
O -7.074800 -5.873700 -6.104500
C -6.805400 -7.868300 -10.754500
H -6.754100 -8.793100 -12.432700
H -6.725200 -6.717800 -8.181100
N -5.893000 -6.882300 -10.889800
O -5.407200 -7.583300 -13.000000
N -5.268600 -6.763000 -12.063700
O -4.537700 -5.763800 -12.197800
