25
Fragment
O -9.672900 -7.505600 -12.870600
N -8.942000 -6.506400 -13.004700
O -8.803400 -5.686100 -12.068400
N -8.317600 -6.387100 -14.178600
H -7.485400 -6.551600 -16.887300
H -7.456500 -4.476300 -12.635700
C -7.405200 -5.401100 -14.313900
O -7.135800 -7.395700 -18.963900
N -7.021400 -4.469200 -13.404700
N -6.822800 -6.010600 -16.712400
C -6.692500 -5.315400 -15.532600
N -6.196600 -6.773200 -19.481700
N -6.000800 -3.589100 -13.491400
C -5.871900 -5.542800 -17.560000
O -5.810700 -6.981600 -20.646700
C -5.650100 -4.427400 -15.671300
N -5.514100 -5.814000 -18.830900
C -5.306000 -3.575100 -14.599800
N -5.163700 -4.576500 -16.932000
H -4.568600 -4.149000 -17.292200
H -4.309400 -1.962100 -14.153600
N -4.260100 -2.634300 -14.678300
N -2.968300 -3.138100 -14.768700
O -2.833300 -4.278700 -15.165800
O -2.068400 -2.359900 -14.480800
25
Fragment
O -14.901300 -14.569700 -12.870600
N -14.170400 -13.570500 -13.004700
O -14.031700 -12.750200 -12.068400
N -13.545900 -13.451200 -14.178600
H -12.713800 -13.615700 -16.887300
H -12.684800 -11.540400 -12.635700
C -12.633600 -12.465200 -14.313900
O -12.364100 -14.459800 -18.963900
N -12.249800 -11.533300 -13.404700
N -12.051100 -13.074700 -16.712400
C -11.920900 -12.379600 -15.532600
N -11.425000 -13.837300 -19.481700
N -11.229200 -10.653200 -13.491400
C -11.100300 -12.607000 -17.560000
O -11.039100 -14.045800 -20.646700
C -10.878500 -11.491600 -15.671300
N -10.742400 -12.878200 -18.830900
C -10.534300 -10.639200 -14.599800
N -10.392000 -11.640700 -16.932000
H -9.796900 -11.213100 -17.292200
H -9.537800 -9.026200 -14.153600
N -9.488400 -9.698500 -14.678300
N -8.196700 -10.202300 -14.768700
O -8.061600 -11.342900 -15.165800
O -7.296700 -9.424100 -14.480800
50
Fragment
O -9.672900 -7.505600 -12.870600
N -8.942000 -6.506400 -13.004700
O -8.803400 -5.686100 -12.068400
N -8.317600 -6.387100 -14.178600
H -7.485400 -6.551600 -16.887300
H -7.456500 -4.476300 -12.635700
C -7.405200 -5.401100 -14.313900
O -7.135800 -7.395700 -18.963900
N -7.021400 -4.469200 -13.404700
N -6.822800 -6.010600 -16.712400
C -6.692500 -5.315400 -15.532600
N -6.196600 -6.773200 -19.481700
N -6.000800 -3.589100 -13.491400
C -5.871900 -5.542800 -17.560000
O -5.810700 -6.981600 -20.646700
C -5.650100 -4.427400 -15.671300
N -5.514100 -5.814000 -18.830900
C -5.306000 -3.575100 -14.599800
N -5.163700 -4.576500 -16.932000
H -4.568600 -4.149000 -17.292200
H -4.309400 -1.962100 -14.153600
N -4.260100 -2.634300 -14.678300
N -2.968300 -3.138100 -14.768700
O -2.833300 -4.278700 -15.165800
O -2.068400 -2.359900 -14.480800
O -14.901300 -14.569700 -12.870600
N -14.170400 -13.570500 -13.004700
O -14.031700 -12.750200 -12.068400
N -13.545900 -13.451200 -14.178600
H -12.713800 -13.615700 -16.887300
H -12.684800 -11.540400 -12.635700
C -12.633600 -12.465200 -14.313900
O -12.364100 -14.459800 -18.963900
N -12.249800 -11.533300 -13.404700
N -12.051100 -13.074700 -16.712400
C -11.920900 -12.379600 -15.532600
N -11.425000 -13.837300 -19.481700
N -11.229200 -10.653200 -13.491400
C -11.100300 -12.607000 -17.560000
O -11.039100 -14.045800 -20.646700
C -10.878500 -11.491600 -15.671300
N -10.742400 -12.878200 -18.830900
C -10.534300 -10.639200 -14.599800
N -10.392000 -11.640700 -16.932000
H -9.796900 -11.213100 -17.292200
H -9.537800 -9.026200 -14.153600
N -9.488400 -9.698500 -14.678300
N -8.196700 -10.202300 -14.768700
O -8.061600 -11.342900 -15.165800
O -7.296700 -9.424100 -14.480800
