25
Fragment
O -9.672900 -7.505600 -12.870600
N -8.942000 -6.506400 -13.004700
O -8.803400 -5.686100 -12.068400
N -8.317600 -6.387100 -14.178600
H -7.485400 -6.551600 -16.887300
H -7.456500 -4.476300 -12.635700
C -7.405200 -5.401100 -14.313900
O -7.135800 -7.395700 -18.963900
N -7.021400 -4.469200 -13.404700
N -6.822800 -6.010600 -16.712400
C -6.692500 -5.315400 -15.532600
N -6.196600 -6.773200 -19.481700
N -6.000800 -3.589100 -13.491400
C -5.871900 -5.542800 -17.560000
O -5.810700 -6.981600 -20.646700
C -5.650100 -4.427400 -15.671300
N -5.514100 -5.814000 -18.830900
C -5.306000 -3.575100 -14.599800
N -5.163700 -4.576500 -16.932000
H -4.568600 -4.149000 -17.292200
H -4.309400 -1.962100 -14.153600
N -4.260100 -2.634300 -14.678300
N -2.968300 -3.138100 -14.768700
O -2.833300 -4.278700 -15.165800
O -2.068400 -2.359900 -14.480800
25
Fragment
O -14.200200 -3.845300 -10.587600
O -13.435300 -1.926500 -9.902600
N -13.300200 -3.067100 -10.299700
N -12.008500 -3.570900 -10.390100
H -11.959100 -4.243100 -10.914800
H -11.700000 -2.056300 -7.776200
N -11.104900 -1.628700 -8.136500
C -10.962600 -2.630200 -10.468600
N -10.754500 -0.391200 -6.237500
C -10.618400 -1.777800 -9.397100
O -10.457800 0.776400 -4.421700
C -10.396600 -0.662400 -7.508400
N -10.267700 -2.616200 -11.577000
N -10.071900 0.567900 -5.586700
C -9.576000 -0.889800 -9.535800
N -9.445800 -0.194600 -8.356100
N -9.247200 -1.736000 -11.663700
O -9.132800 1.190500 -6.104500
C -8.863300 -0.804100 -10.754500
H -8.812100 -1.728900 -12.432700
H -8.783100 0.346400 -8.181100
N -7.951000 0.181900 -10.889800
O -7.465200 -0.519100 -13.000000
N -7.326500 0.301200 -12.063700
O -6.595600 1.300400 -12.197800
50
Fragment
O -9.672900 -7.505600 -12.870600
N -8.942000 -6.506400 -13.004700
O -8.803400 -5.686100 -12.068400
N -8.317600 -6.387100 -14.178600
H -7.485400 -6.551600 -16.887300
H -7.456500 -4.476300 -12.635700
C -7.405200 -5.401100 -14.313900
O -7.135800 -7.395700 -18.963900
N -7.021400 -4.469200 -13.404700
N -6.822800 -6.010600 -16.712400
C -6.692500 -5.315400 -15.532600
N -6.196600 -6.773200 -19.481700
N -6.000800 -3.589100 -13.491400
C -5.871900 -5.542800 -17.560000
O -5.810700 -6.981600 -20.646700
C -5.650100 -4.427400 -15.671300
N -5.514100 -5.814000 -18.830900
C -5.306000 -3.575100 -14.599800
N -5.163700 -4.576500 -16.932000
H -4.568600 -4.149000 -17.292200
H -4.309400 -1.962100 -14.153600
N -4.260100 -2.634300 -14.678300
N -2.968300 -3.138100 -14.768700
O -2.833300 -4.278700 -15.165800
O -2.068400 -2.359900 -14.480800
O -14.200200 -3.845300 -10.587600
O -13.435300 -1.926500 -9.902600
N -13.300200 -3.067100 -10.299700
N -12.008500 -3.570900 -10.390100
H -11.959100 -4.243100 -10.914800
H -11.700000 -2.056300 -7.776200
N -11.104900 -1.628700 -8.136500
C -10.962600 -2.630200 -10.468600
N -10.754500 -0.391200 -6.237500
C -10.618400 -1.777800 -9.397100
O -10.457800 0.776400 -4.421700
C -10.396600 -0.662400 -7.508400
N -10.267700 -2.616200 -11.577000
N -10.071900 0.567900 -5.586700
C -9.576000 -0.889800 -9.535800
N -9.445800 -0.194600 -8.356100
N -9.247200 -1.736000 -11.663700
O -9.132800 1.190500 -6.104500
C -8.863300 -0.804100 -10.754500
H -8.812100 -1.728900 -12.432700
H -8.783100 0.346400 -8.181100
N -7.951000 0.181900 -10.889800
O -7.465200 -0.519100 -13.000000
N -7.326500 0.301200 -12.063700
O -6.595600 1.300400 -12.197800
