25
Fragment
O -9.672900 -7.505600 -12.870600
N -8.942000 -6.506400 -13.004700
O -8.803400 -5.686100 -12.068400
N -8.317600 -6.387100 -14.178600
H -7.485400 -6.551600 -16.887300
H -7.456500 -4.476300 -12.635700
C -7.405200 -5.401100 -14.313900
O -7.135800 -7.395700 -18.963900
N -7.021400 -4.469200 -13.404700
N -6.822800 -6.010600 -16.712400
C -6.692500 -5.315400 -15.532600
N -6.196600 -6.773200 -19.481700
N -6.000800 -3.589100 -13.491400
C -5.871900 -5.542800 -17.560000
O -5.810700 -6.981600 -20.646700
C -5.650100 -4.427400 -15.671300
N -5.514100 -5.814000 -18.830900
C -5.306000 -3.575100 -14.599800
N -5.163700 -4.576500 -16.932000
H -4.568600 -4.149000 -17.292200
H -4.309400 -1.962100 -14.153600
N -4.260100 -2.634300 -14.678300
N -2.968300 -3.138100 -14.768700
O -2.833300 -4.278700 -15.165800
O -2.068400 -2.359900 -14.480800
3
Fragment
H -4.577200 -7.994200 -15.919800
H -4.345300 -7.323800 -14.778100
O -4.132000 -7.344600 -15.600400
28
Fragment
O -9.672900 -7.505600 -12.870600
N -8.942000 -6.506400 -13.004700
O -8.803400 -5.686100 -12.068400
N -8.317600 -6.387100 -14.178600
H -7.485400 -6.551600 -16.887300
H -7.456500 -4.476300 -12.635700
C -7.405200 -5.401100 -14.313900
O -7.135800 -7.395700 -18.963900
N -7.021400 -4.469200 -13.404700
N -6.822800 -6.010600 -16.712400
C -6.692500 -5.315400 -15.532600
N -6.196600 -6.773200 -19.481700
N -6.000800 -3.589100 -13.491400
C -5.871900 -5.542800 -17.560000
O -5.810700 -6.981600 -20.646700
C -5.650100 -4.427400 -15.671300
N -5.514100 -5.814000 -18.830900
C -5.306000 -3.575100 -14.599800
N -5.163700 -4.576500 -16.932000
H -4.568600 -4.149000 -17.292200
H -4.309400 -1.962100 -14.153600
N -4.260100 -2.634300 -14.678300
N -2.968300 -3.138100 -14.768700
O -2.833300 -4.278700 -15.165800
O -2.068400 -2.359900 -14.480800
H -4.577200 -7.994200 -15.919800
H -4.345300 -7.323800 -14.778100
O -4.132000 -7.344600 -15.600400
