15
Fragment
H -4.796600 -27.800600 -16.797400
H -4.451700 -31.829900 -18.544900
N -4.375200 -30.107100 -17.563800
C -4.172100 -31.412600 -17.740400
N -4.168400 -28.196300 -16.279400
H -4.096800 -27.841100 -15.445700
C -3.971300 -29.534500 -16.391200
C -3.553200 -32.159600 -16.753900
N -3.375300 -30.162000 -15.359900
N -3.195200 -33.501200 -16.631100
C -3.193600 -31.458900 -15.588100
C -2.651800 -33.573800 -15.436600
N -2.629500 -32.388400 -14.758000
H -2.307900 -32.249100 -13.942800
H -2.305000 -34.381800 -15.077300
3
Fragment
H -2.981500 -26.662900 -17.600300
H -2.314200 -25.768300 -18.449400
O -2.276100 -26.256600 -17.762500
18
Fragment
H -4.796600 -27.800600 -16.797400
H -4.451700 -31.829900 -18.544900
N -4.375200 -30.107100 -17.563800
C -4.172100 -31.412600 -17.740400
N -4.168400 -28.196300 -16.279400
H -4.096800 -27.841100 -15.445700
C -3.971300 -29.534500 -16.391200
C -3.553200 -32.159600 -16.753900
N -3.375300 -30.162000 -15.359900
N -3.195200 -33.501200 -16.631100
C -3.193600 -31.458900 -15.588100
C -2.651800 -33.573800 -15.436600
N -2.629500 -32.388400 -14.758000
H -2.307900 -32.249100 -13.942800
H -2.305000 -34.381800 -15.077300
H -2.981500 -26.662900 -17.600300
H -2.314200 -25.768300 -18.449400
O -2.276100 -26.256600 -17.762500
