15
Fragment
H -4.796600 -27.800600 -16.797400
H -4.451700 -31.829900 -18.544900
N -4.375200 -30.107100 -17.563800
C -4.172100 -31.412600 -17.740400
N -4.168400 -28.196300 -16.279400
H -4.096800 -27.841100 -15.445700
C -3.971300 -29.534500 -16.391200
C -3.553200 -32.159600 -16.753900
N -3.375300 -30.162000 -15.359900
N -3.195200 -33.501200 -16.631100
C -3.193600 -31.458900 -15.588100
C -2.651800 -33.573800 -15.436600
N -2.629500 -32.388400 -14.758000
H -2.307900 -32.249100 -13.942800
H -2.305000 -34.381800 -15.077300
15
Fragment
H -1.944700 -33.837600 -11.549900
H -1.599800 -29.808200 -13.297300
N -1.523300 -31.531100 -12.316200
C -1.320200 -30.225600 -12.492900
N -1.316400 -33.441900 -11.031800
H -1.244900 -33.797100 -10.198100
C -1.119300 -32.103600 -11.143600
C -0.701200 -29.478500 -11.506300
N -0.523400 -31.476100 -10.112400
N -0.343200 -28.136900 -11.383500
C -0.341700 -30.179300 -10.340500
C 0.200200 -28.064400 -10.189100
N 0.222500 -29.249800 -9.510500
H 0.544000 -29.389100 -8.695200
H 0.547000 -27.256400 -9.829700
30
Fragment
H -4.796600 -27.800600 -16.797400
H -4.451700 -31.829900 -18.544900
N -4.375200 -30.107100 -17.563800
C -4.172100 -31.412600 -17.740400
N -4.168400 -28.196300 -16.279400
H -4.096800 -27.841100 -15.445700
C -3.971300 -29.534500 -16.391200
C -3.553200 -32.159600 -16.753900
N -3.375300 -30.162000 -15.359900
N -3.195200 -33.501200 -16.631100
C -3.193600 -31.458900 -15.588100
C -2.651800 -33.573800 -15.436600
N -2.629500 -32.388400 -14.758000
H -2.307900 -32.249100 -13.942800
H -2.305000 -34.381800 -15.077300
H -1.944700 -33.837600 -11.549900
H -1.599800 -29.808200 -13.297300
N -1.523300 -31.531100 -12.316200
C -1.320200 -30.225600 -12.492900
N -1.316400 -33.441900 -11.031800
H -1.244900 -33.797100 -10.198100
C -1.119300 -32.103600 -11.143600
C -0.701200 -29.478500 -11.506300
N -0.523400 -31.476100 -10.112400
N -0.343200 -28.136900 -11.383500
C -0.341700 -30.179300 -10.340500
C 0.200200 -28.064400 -10.189100
N 0.222500 -29.249800 -9.510500
H 0.544000 -29.389100 -8.695200
H 0.547000 -27.256400 -9.829700
