15
Fragment
H -4.796600 -27.800600 -16.797400
H -4.451700 -31.829900 -18.544900
N -4.375200 -30.107100 -17.563800
C -4.172100 -31.412600 -17.740400
N -4.168400 -28.196300 -16.279400
H -4.096800 -27.841100 -15.445700
C -3.971300 -29.534500 -16.391200
C -3.553200 -32.159600 -16.753900
N -3.375300 -30.162000 -15.359900
N -3.195200 -33.501200 -16.631100
C -3.193600 -31.458900 -15.588100
C -2.651800 -33.573800 -15.436600
N -2.629500 -32.388400 -14.758000
H -2.307900 -32.249100 -13.942800
H -2.305000 -34.381800 -15.077300
15
Fragment
H -3.912100 -36.061800 -16.408100
H -3.909200 -38.194500 -17.542600
N -3.587600 -38.055200 -16.727300
C -3.565300 -36.869800 -16.048700
C -3.023500 -38.984700 -15.897300
N -3.021900 -36.942400 -14.854300
N -2.841800 -40.281600 -16.125400
C -2.663900 -38.284000 -14.731500
C -2.245800 -40.909100 -15.094200
H -2.120200 -42.602500 -16.039700
N -2.048700 -42.247300 -15.206000
C -2.045000 -39.031000 -13.744900
N -1.841900 -40.336500 -13.921600
H -1.765400 -38.613700 -12.940500
H -1.420400 -42.643000 -14.687900
30
Fragment
H -4.796600 -27.800600 -16.797400
H -4.451700 -31.829900 -18.544900
N -4.375200 -30.107100 -17.563800
C -4.172100 -31.412600 -17.740400
N -4.168400 -28.196300 -16.279400
H -4.096800 -27.841100 -15.445700
C -3.971300 -29.534500 -16.391200
C -3.553200 -32.159600 -16.753900
N -3.375300 -30.162000 -15.359900
N -3.195200 -33.501200 -16.631100
C -3.193600 -31.458900 -15.588100
C -2.651800 -33.573800 -15.436600
N -2.629500 -32.388400 -14.758000
H -2.307900 -32.249100 -13.942800
H -2.305000 -34.381800 -15.077300
H -3.912100 -36.061800 -16.408100
H -3.909200 -38.194500 -17.542600
N -3.587600 -38.055200 -16.727300
C -3.565300 -36.869800 -16.048700
C -3.023500 -38.984700 -15.897300
N -3.021900 -36.942400 -14.854300
N -2.841800 -40.281600 -16.125400
C -2.663900 -38.284000 -14.731500
C -2.245800 -40.909100 -15.094200
H -2.120200 -42.602500 -16.039700
N -2.048700 -42.247300 -15.206000
C -2.045000 -39.031000 -13.744900
N -1.841900 -40.336500 -13.921600
H -1.765400 -38.613700 -12.940500
H -1.420400 -42.643000 -14.687900
