15
Fragment
H -4.796600 -27.800600 -16.797400
H -4.451700 -31.829900 -18.544900
N -4.375200 -30.107100 -17.563800
C -4.172100 -31.412600 -17.740400
N -4.168400 -28.196300 -16.279400
H -4.096800 -27.841100 -15.445700
C -3.971300 -29.534500 -16.391200
C -3.553200 -32.159600 -16.753900
N -3.375300 -30.162000 -15.359900
N -3.195200 -33.501200 -16.631100
C -3.193600 -31.458900 -15.588100
C -2.651800 -33.573800 -15.436600
N -2.629500 -32.388400 -14.758000
H -2.307900 -32.249100 -13.942800
H -2.305000 -34.381800 -15.077300
15
Fragment
H -8.428100 -27.800600 -16.797400
H -8.083200 -31.829900 -18.544900
N -8.006700 -30.107100 -17.563800
C -7.803600 -31.412600 -17.740400
N -7.799900 -28.196300 -16.279400
H -7.728300 -27.841100 -15.445700
C -7.602800 -29.534500 -16.391200
C -7.184700 -32.159600 -16.753900
N -7.006800 -30.162000 -15.359900
N -6.826700 -33.501200 -16.631100
C -6.825100 -31.458900 -15.588100
C -6.283300 -33.573800 -15.436600
N -6.261000 -32.388400 -14.758000
H -5.939400 -32.249100 -13.942800
H -5.936500 -34.381800 -15.077300
30
Fragment
H -4.796600 -27.800600 -16.797400
H -4.451700 -31.829900 -18.544900
N -4.375200 -30.107100 -17.563800
C -4.172100 -31.412600 -17.740400
N -4.168400 -28.196300 -16.279400
H -4.096800 -27.841100 -15.445700
C -3.971300 -29.534500 -16.391200
C -3.553200 -32.159600 -16.753900
N -3.375300 -30.162000 -15.359900
N -3.195200 -33.501200 -16.631100
C -3.193600 -31.458900 -15.588100
C -2.651800 -33.573800 -15.436600
N -2.629500 -32.388400 -14.758000
H -2.307900 -32.249100 -13.942800
H -2.305000 -34.381800 -15.077300
H -8.428100 -27.800600 -16.797400
H -8.083200 -31.829900 -18.544900
N -8.006700 -30.107100 -17.563800
C -7.803600 -31.412600 -17.740400
N -7.799900 -28.196300 -16.279400
H -7.728300 -27.841100 -15.445700
C -7.602800 -29.534500 -16.391200
C -7.184700 -32.159600 -16.753900
N -7.006800 -30.162000 -15.359900
N -6.826700 -33.501200 -16.631100
C -6.825100 -31.458900 -15.588100
C -6.283300 -33.573800 -15.436600
N -6.261000 -32.388400 -14.758000
H -5.939400 -32.249100 -13.942800
H -5.936500 -34.381800 -15.077300
