40
Fragment
H -12.790500 -14.603200 -38.349500
H -12.575700 -13.585000 -39.497600
C -12.122700 -14.167000 -38.882200
H -11.371800 -16.523100 -38.151600
N -11.369700 -15.175400 -39.650500
N -11.259800 -13.356500 -37.993700
H -11.258400 -14.722400 -36.527300
H -10.750600 -13.897800 -41.074100
C -10.718900 -16.058900 -38.680000
H -10.633600 -12.095700 -39.436700
C -10.599800 -14.279200 -37.067200
C -10.333500 -14.477000 -40.430700
C -10.226500 -12.715600 -38.827900
H -10.214500 -16.711000 -39.171400
H -10.028500 -13.770200 -36.485900
H -9.816500 -15.127700 -40.911000
N -9.797500 -15.312800 -37.786500
H -9.639000 -12.223300 -38.251600
N -9.434000 -13.691600 -39.591100
H -9.400900 -16.231400 -36.912100
H -9.388200 -20.797600 -31.889000
C -8.793700 -14.586400 -38.636500
O -8.719800 -20.574600 -32.692500
O -8.690900 -16.994300 -36.100800
H -8.354200 -18.814600 -34.381000
H -8.257700 -15.224500 -39.114900
H -8.213300 -14.073100 -38.071100
C -7.434900 -20.445600 -32.458800
C -7.420100 -16.877900 -36.042800
C -7.413100 -18.674400 -34.253600
O -6.881300 -21.113100 -31.600700
O -6.748900 -16.131800 -36.776700
C -6.736200 -19.440100 -33.304600
C -6.718600 -17.724900 -35.014500
C -5.386500 -19.239500 -33.074100
C -5.361900 -17.553800 -34.779000
H -4.928000 -19.758400 -32.408700
H -4.869500 -16.915700 -35.298700
C -4.680000 -18.277500 -33.813500
H -3.746700 -18.121800 -33.650400
22
Fragment
H -12.780600 -15.924300 -46.112400
H -12.757400 -16.734800 -44.788200
C -12.209400 -16.384200 -45.494900
N -11.553600 -17.492100 -46.200300
H -11.308400 -16.434700 -47.889000
N -11.231000 -15.402600 -44.935000
H -11.168300 -18.535500 -44.538100
H -10.990000 -14.413900 -46.664800
H -10.868900 -16.518900 -43.298600
C -10.727300 -16.901700 -47.284100
C -10.645600 -18.158300 -45.249200
C -10.421600 -14.892100 -46.058100
C -10.338500 -16.152800 -44.011000
H -10.286400 -17.600100 -47.773800
H -10.196900 -18.879100 -45.699300
H -9.770000 -14.277800 -45.712300
N -9.731300 -15.966300 -46.773700
H -9.703800 -15.545600 -43.622600
N -9.644600 -17.239700 -44.680300
C -8.869800 -16.683000 -45.810200
H -8.412600 -17.394000 -46.264700
H -8.207000 -16.077100 -45.473100
62
Fragment
H -12.790500 -14.603200 -38.349500
H -12.575700 -13.585000 -39.497600
C -12.122700 -14.167000 -38.882200
H -11.371800 -16.523100 -38.151600
N -11.369700 -15.175400 -39.650500
N -11.259800 -13.356500 -37.993700
H -11.258400 -14.722400 -36.527300
H -10.750600 -13.897800 -41.074100
C -10.718900 -16.058900 -38.680000
H -10.633600 -12.095700 -39.436700
C -10.599800 -14.279200 -37.067200
C -10.333500 -14.477000 -40.430700
C -10.226500 -12.715600 -38.827900
H -10.214500 -16.711000 -39.171400
H -10.028500 -13.770200 -36.485900
H -9.816500 -15.127700 -40.911000
N -9.797500 -15.312800 -37.786500
H -9.639000 -12.223300 -38.251600
N -9.434000 -13.691600 -39.591100
H -9.400900 -16.231400 -36.912100
H -9.388200 -20.797600 -31.889000
C -8.793700 -14.586400 -38.636500
O -8.719800 -20.574600 -32.692500
O -8.690900 -16.994300 -36.100800
H -8.354200 -18.814600 -34.381000
H -8.257700 -15.224500 -39.114900
H -8.213300 -14.073100 -38.071100
C -7.434900 -20.445600 -32.458800
C -7.420100 -16.877900 -36.042800
C -7.413100 -18.674400 -34.253600
O -6.881300 -21.113100 -31.600700
O -6.748900 -16.131800 -36.776700
C -6.736200 -19.440100 -33.304600
C -6.718600 -17.724900 -35.014500
C -5.386500 -19.239500 -33.074100
C -5.361900 -17.553800 -34.779000
H -4.928000 -19.758400 -32.408700
H -4.869500 -16.915700 -35.298700
C -4.680000 -18.277500 -33.813500
H -3.746700 -18.121800 -33.650400
H -12.780600 -15.924300 -46.112400
H -12.757400 -16.734800 -44.788200
C -12.209400 -16.384200 -45.494900
N -11.553600 -17.492100 -46.200300
H -11.308400 -16.434700 -47.889000
N -11.231000 -15.402600 -44.935000
H -11.168300 -18.535500 -44.538100
H -10.990000 -14.413900 -46.664800
H -10.868900 -16.518900 -43.298600
C -10.727300 -16.901700 -47.284100
C -10.645600 -18.158300 -45.249200
C -10.421600 -14.892100 -46.058100
C -10.338500 -16.152800 -44.011000
H -10.286400 -17.600100 -47.773800
H -10.196900 -18.879100 -45.699300
H -9.770000 -14.277800 -45.712300
N -9.731300 -15.966300 -46.773700
H -9.703800 -15.545600 -43.622600
N -9.644600 -17.239700 -44.680300
C -8.869800 -16.683000 -45.810200
H -8.412600 -17.394000 -46.264700
H -8.207000 -16.077100 -45.473100
