40
Fragment
H -12.790500 -14.603200 -38.349500
H -12.575700 -13.585000 -39.497600
C -12.122700 -14.167000 -38.882200
H -11.371800 -16.523100 -38.151600
N -11.369700 -15.175400 -39.650500
N -11.259800 -13.356500 -37.993700
H -11.258400 -14.722400 -36.527300
H -10.750600 -13.897800 -41.074100
C -10.718900 -16.058900 -38.680000
H -10.633600 -12.095700 -39.436700
C -10.599800 -14.279200 -37.067200
C -10.333500 -14.477000 -40.430700
C -10.226500 -12.715600 -38.827900
H -10.214500 -16.711000 -39.171400
H -10.028500 -13.770200 -36.485900
H -9.816500 -15.127700 -40.911000
N -9.797500 -15.312800 -37.786500
H -9.639000 -12.223300 -38.251600
N -9.434000 -13.691600 -39.591100
H -9.400900 -16.231400 -36.912100
H -9.388200 -20.797600 -31.889000
C -8.793700 -14.586400 -38.636500
O -8.719800 -20.574600 -32.692500
O -8.690900 -16.994300 -36.100800
H -8.354200 -18.814600 -34.381000
H -8.257700 -15.224500 -39.114900
H -8.213300 -14.073100 -38.071100
C -7.434900 -20.445600 -32.458800
C -7.420100 -16.877900 -36.042800
C -7.413100 -18.674400 -34.253600
O -6.881300 -21.113100 -31.600700
O -6.748900 -16.131800 -36.776700
C -6.736200 -19.440100 -33.304600
C -6.718600 -17.724900 -35.014500
C -5.386500 -19.239500 -33.074100
C -5.361900 -17.553800 -34.779000
H -4.928000 -19.758400 -32.408700
H -4.869500 -16.915700 -35.298700
C -4.680000 -18.277500 -33.813500
H -3.746700 -18.121800 -33.650400
22
Fragment
H -16.447000 -11.970900 -34.600600
H -16.241400 -10.654000 -35.392200
C -15.784200 -11.365000 -34.937700
N -15.009400 -10.808300 -33.807800
H -14.950200 -12.502400 -32.750100
N -14.922700 -12.081700 -35.901200
H -14.884000 -13.770200 -34.839800
H -14.457100 -9.168900 -34.826800
H -14.367600 -10.447900 -36.901300
C -14.315500 -11.895200 -33.138500
C -14.232400 -13.155900 -35.185600
C -14.008400 -9.889700 -34.376700
C -13.926700 -11.146300 -36.411600
H -13.785100 -11.529100 -32.426100
H -13.664000 -13.634100 -35.792300
H -13.485700 -9.512500 -33.665600
N -13.423000 -12.645400 -34.062500
H -13.345600 -11.613300 -37.016500
N -13.100400 -10.555900 -35.327800
C -12.444600 -11.663800 -34.622400
H -11.896600 -11.313200 -33.915700
H -11.873400 -12.123700 -35.239900
62
Fragment
H -12.790500 -14.603200 -38.349500
H -12.575700 -13.585000 -39.497600
C -12.122700 -14.167000 -38.882200
H -11.371800 -16.523100 -38.151600
N -11.369700 -15.175400 -39.650500
N -11.259800 -13.356500 -37.993700
H -11.258400 -14.722400 -36.527300
H -10.750600 -13.897800 -41.074100
C -10.718900 -16.058900 -38.680000
H -10.633600 -12.095700 -39.436700
C -10.599800 -14.279200 -37.067200
C -10.333500 -14.477000 -40.430700
C -10.226500 -12.715600 -38.827900
H -10.214500 -16.711000 -39.171400
H -10.028500 -13.770200 -36.485900
H -9.816500 -15.127700 -40.911000
N -9.797500 -15.312800 -37.786500
H -9.639000 -12.223300 -38.251600
N -9.434000 -13.691600 -39.591100
H -9.400900 -16.231400 -36.912100
H -9.388200 -20.797600 -31.889000
C -8.793700 -14.586400 -38.636500
O -8.719800 -20.574600 -32.692500
O -8.690900 -16.994300 -36.100800
H -8.354200 -18.814600 -34.381000
H -8.257700 -15.224500 -39.114900
H -8.213300 -14.073100 -38.071100
C -7.434900 -20.445600 -32.458800
C -7.420100 -16.877900 -36.042800
C -7.413100 -18.674400 -34.253600
O -6.881300 -21.113100 -31.600700
O -6.748900 -16.131800 -36.776700
C -6.736200 -19.440100 -33.304600
C -6.718600 -17.724900 -35.014500
C -5.386500 -19.239500 -33.074100
C -5.361900 -17.553800 -34.779000
H -4.928000 -19.758400 -32.408700
H -4.869500 -16.915700 -35.298700
C -4.680000 -18.277500 -33.813500
H -3.746700 -18.121800 -33.650400
H -16.447000 -11.970900 -34.600600
H -16.241400 -10.654000 -35.392200
C -15.784200 -11.365000 -34.937700
N -15.009400 -10.808300 -33.807800
H -14.950200 -12.502400 -32.750100
N -14.922700 -12.081700 -35.901200
H -14.884000 -13.770200 -34.839800
H -14.457100 -9.168900 -34.826800
H -14.367600 -10.447900 -36.901300
C -14.315500 -11.895200 -33.138500
C -14.232400 -13.155900 -35.185600
C -14.008400 -9.889700 -34.376700
C -13.926700 -11.146300 -36.411600
H -13.785100 -11.529100 -32.426100
H -13.664000 -13.634100 -35.792300
H -13.485700 -9.512500 -33.665600
N -13.423000 -12.645400 -34.062500
H -13.345600 -11.613300 -37.016500
N -13.100400 -10.555900 -35.327800
C -12.444600 -11.663800 -34.622400
H -11.896600 -11.313200 -33.915700
H -11.873400 -12.123700 -35.239900
