40
Fragment
H -12.790500 -14.603200 -38.349500
H -12.575700 -13.585000 -39.497600
C -12.122700 -14.167000 -38.882200
H -11.371800 -16.523100 -38.151600
N -11.369700 -15.175400 -39.650500
N -11.259800 -13.356500 -37.993700
H -11.258400 -14.722400 -36.527300
H -10.750600 -13.897800 -41.074100
C -10.718900 -16.058900 -38.680000
H -10.633600 -12.095700 -39.436700
C -10.599800 -14.279200 -37.067200
C -10.333500 -14.477000 -40.430700
C -10.226500 -12.715600 -38.827900
H -10.214500 -16.711000 -39.171400
H -10.028500 -13.770200 -36.485900
H -9.816500 -15.127700 -40.911000
N -9.797500 -15.312800 -37.786500
H -9.639000 -12.223300 -38.251600
N -9.434000 -13.691600 -39.591100
H -9.400900 -16.231400 -36.912100
H -9.388200 -20.797600 -31.889000
C -8.793700 -14.586400 -38.636500
O -8.719800 -20.574600 -32.692500
O -8.690900 -16.994300 -36.100800
H -8.354200 -18.814600 -34.381000
H -8.257700 -15.224500 -39.114900
H -8.213300 -14.073100 -38.071100
C -7.434900 -20.445600 -32.458800
C -7.420100 -16.877900 -36.042800
C -7.413100 -18.674400 -34.253600
O -6.881300 -21.113100 -31.600700
O -6.748900 -16.131800 -36.776700
C -6.736200 -19.440100 -33.304600
C -6.718600 -17.724900 -35.014500
C -5.386500 -19.239500 -33.074100
C -5.361900 -17.553800 -34.779000
H -4.928000 -19.758400 -32.408700
H -4.869500 -16.915700 -35.298700
C -4.680000 -18.277500 -33.813500
H -3.746700 -18.121800 -33.650400
40
Fragment
H -16.312500 -20.456800 -26.885500
H -16.097700 -21.475000 -25.737400
C -15.644700 -20.893000 -26.352800
H -14.893800 -18.536900 -27.083400
N -14.891700 -19.884600 -25.584500
N -14.781800 -21.703500 -27.241300
H -14.780400 -20.337600 -28.707700
H -14.272600 -21.162200 -24.160900
C -14.240900 -19.001100 -26.555000
H -14.155600 -22.964300 -25.798300
C -14.121800 -20.780800 -28.167800
C -13.855500 -20.583000 -24.804300
C -13.748500 -22.344400 -26.407100
H -13.736500 -18.349000 -26.063600
H -13.550500 -21.289800 -28.749100
H -13.338500 -19.932300 -24.324000
N -13.319500 -19.747200 -27.448500
H -13.161000 -22.836700 -26.983400
N -12.956000 -21.368400 -25.643900
H -12.922900 -18.828600 -28.322900
H -12.910200 -14.262400 -33.346000
C -12.315700 -20.473600 -26.598500
O -12.241800 -14.485400 -32.542500
O -12.212900 -18.065700 -29.134200
H -11.876200 -16.245400 -30.854000
H -11.779700 -19.835500 -26.120100
H -11.735300 -20.986900 -27.163900
C -10.956900 -14.614400 -32.776200
C -10.942100 -18.182100 -29.192200
C -10.935100 -16.385600 -30.981400
O -10.403300 -13.946900 -33.634300
O -10.270900 -18.928200 -28.458300
C -10.258200 -15.619900 -31.930400
C -10.240600 -17.335100 -30.220500
C -8.908500 -15.820500 -32.160900
C -8.883900 -17.506200 -30.456000
H -8.450000 -15.301600 -32.826300
H -8.391500 -18.144300 -29.936300
C -8.202000 -16.782500 -31.421500
H -7.268700 -16.938200 -31.584600
80
Fragment
H -12.790500 -14.603200 -38.349500
H -12.575700 -13.585000 -39.497600
C -12.122700 -14.167000 -38.882200
H -11.371800 -16.523100 -38.151600
N -11.369700 -15.175400 -39.650500
N -11.259800 -13.356500 -37.993700
H -11.258400 -14.722400 -36.527300
H -10.750600 -13.897800 -41.074100
C -10.718900 -16.058900 -38.680000
H -10.633600 -12.095700 -39.436700
C -10.599800 -14.279200 -37.067200
C -10.333500 -14.477000 -40.430700
C -10.226500 -12.715600 -38.827900
H -10.214500 -16.711000 -39.171400
H -10.028500 -13.770200 -36.485900
H -9.816500 -15.127700 -40.911000
N -9.797500 -15.312800 -37.786500
H -9.639000 -12.223300 -38.251600
N -9.434000 -13.691600 -39.591100
H -9.400900 -16.231400 -36.912100
H -9.388200 -20.797600 -31.889000
C -8.793700 -14.586400 -38.636500
O -8.719800 -20.574600 -32.692500
O -8.690900 -16.994300 -36.100800
H -8.354200 -18.814600 -34.381000
H -8.257700 -15.224500 -39.114900
H -8.213300 -14.073100 -38.071100
C -7.434900 -20.445600 -32.458800
C -7.420100 -16.877900 -36.042800
C -7.413100 -18.674400 -34.253600
O -6.881300 -21.113100 -31.600700
O -6.748900 -16.131800 -36.776700
C -6.736200 -19.440100 -33.304600
C -6.718600 -17.724900 -35.014500
C -5.386500 -19.239500 -33.074100
C -5.361900 -17.553800 -34.779000
H -4.928000 -19.758400 -32.408700
H -4.869500 -16.915700 -35.298700
C -4.680000 -18.277500 -33.813500
H -3.746700 -18.121800 -33.650400
H -16.312500 -20.456800 -26.885500
H -16.097700 -21.475000 -25.737400
C -15.644700 -20.893000 -26.352800
H -14.893800 -18.536900 -27.083400
N -14.891700 -19.884600 -25.584500
N -14.781800 -21.703500 -27.241300
H -14.780400 -20.337600 -28.707700
H -14.272600 -21.162200 -24.160900
C -14.240900 -19.001100 -26.555000
H -14.155600 -22.964300 -25.798300
C -14.121800 -20.780800 -28.167800
C -13.855500 -20.583000 -24.804300
C -13.748500 -22.344400 -26.407100
H -13.736500 -18.349000 -26.063600
H -13.550500 -21.289800 -28.749100
H -13.338500 -19.932300 -24.324000
N -13.319500 -19.747200 -27.448500
H -13.161000 -22.836700 -26.983400
N -12.956000 -21.368400 -25.643900
H -12.922900 -18.828600 -28.322900
H -12.910200 -14.262400 -33.346000
C -12.315700 -20.473600 -26.598500
O -12.241800 -14.485400 -32.542500
O -12.212900 -18.065700 -29.134200
H -11.876200 -16.245400 -30.854000
H -11.779700 -19.835500 -26.120100
H -11.735300 -20.986900 -27.163900
C -10.956900 -14.614400 -32.776200
C -10.942100 -18.182100 -29.192200
C -10.935100 -16.385600 -30.981400
O -10.403300 -13.946900 -33.634300
O -10.270900 -18.928200 -28.458300
C -10.258200 -15.619900 -31.930400
C -10.240600 -17.335100 -30.220500
C -8.908500 -15.820500 -32.160900
C -8.883900 -17.506200 -30.456000
H -8.450000 -15.301600 -32.826300
H -8.391500 -18.144300 -29.936300
C -8.202000 -16.782500 -31.421500
H -7.268700 -16.938200 -31.584600
