40
Fragment
H -12.790500 -14.603200 -38.349500
H -12.575700 -13.585000 -39.497600
C -12.122700 -14.167000 -38.882200
H -11.371800 -16.523100 -38.151600
N -11.369700 -15.175400 -39.650500
N -11.259800 -13.356500 -37.993700
H -11.258400 -14.722400 -36.527300
H -10.750600 -13.897800 -41.074100
C -10.718900 -16.058900 -38.680000
H -10.633600 -12.095700 -39.436700
C -10.599800 -14.279200 -37.067200
C -10.333500 -14.477000 -40.430700
C -10.226500 -12.715600 -38.827900
H -10.214500 -16.711000 -39.171400
H -10.028500 -13.770200 -36.485900
H -9.816500 -15.127700 -40.911000
N -9.797500 -15.312800 -37.786500
H -9.639000 -12.223300 -38.251600
N -9.434000 -13.691600 -39.591100
H -9.400900 -16.231400 -36.912100
H -9.388200 -20.797600 -31.889000
C -8.793700 -14.586400 -38.636500
O -8.719800 -20.574600 -32.692500
O -8.690900 -16.994300 -36.100800
H -8.354200 -18.814600 -34.381000
H -8.257700 -15.224500 -39.114900
H -8.213300 -14.073100 -38.071100
C -7.434900 -20.445600 -32.458800
C -7.420100 -16.877900 -36.042800
C -7.413100 -18.674400 -34.253600
O -6.881300 -21.113100 -31.600700
O -6.748900 -16.131800 -36.776700
C -6.736200 -19.440100 -33.304600
C -6.718600 -17.724900 -35.014500
C -5.386500 -19.239500 -33.074100
C -5.361900 -17.553800 -34.779000
H -4.928000 -19.758400 -32.408700
H -4.869500 -16.915700 -35.298700
C -4.680000 -18.277500 -33.813500
H -3.746700 -18.121800 -33.650400
40
Fragment
H -17.385300 -11.109800 -42.457100
C -16.452000 -11.265500 -42.294000
H -16.262500 -9.903700 -40.808800
H -16.204000 -12.746400 -43.698800
C -15.770100 -10.541800 -41.328500
C -15.745500 -12.227500 -43.033400
C -14.413400 -10.712900 -41.093000
C -14.395800 -12.428100 -42.802900
O -14.383100 -9.119800 -39.330800
O -14.250700 -14.101100 -44.506800
C -13.718900 -11.662400 -41.853900
C -13.711900 -9.865900 -40.064700
C -13.697100 -13.433600 -43.648700
H -12.918700 -7.061100 -38.036400
H -12.874300 -8.212500 -36.992600
H -12.777800 -11.802600 -41.726500
O -12.441100 -9.982300 -40.006700
O -12.412200 -13.562600 -43.415000
C -12.338300 -7.574400 -37.471000
H -11.743800 -13.785600 -44.218500
H -11.731100 -9.219400 -39.195400
N -11.698000 -6.679600 -36.516400
H -11.493000 -5.211300 -37.855900
N -11.334500 -8.300800 -38.321000
H -11.315500 -8.115700 -35.196500
H -11.103500 -6.758200 -39.621600
H -10.917500 -9.699000 -36.936100
C -10.905500 -5.703600 -37.279600
C -10.798500 -7.465000 -35.676800
C -10.532200 -7.267200 -39.040300
H -10.498400 -5.083700 -36.670800
C -10.413100 -9.046900 -37.427500
H -10.381400 -6.885800 -35.033400
H -9.873600 -7.710400 -39.580200
N -9.872200 -6.344500 -38.113800
N -9.762300 -8.163400 -36.457000
H -9.760200 -9.511100 -37.955900
C -9.009300 -7.155000 -37.225300
H -8.556300 -6.573000 -36.609900
H -8.341500 -7.591200 -37.758000
80
Fragment
H -12.790500 -14.603200 -38.349500
H -12.575700 -13.585000 -39.497600
C -12.122700 -14.167000 -38.882200
H -11.371800 -16.523100 -38.151600
N -11.369700 -15.175400 -39.650500
N -11.259800 -13.356500 -37.993700
H -11.258400 -14.722400 -36.527300
H -10.750600 -13.897800 -41.074100
C -10.718900 -16.058900 -38.680000
H -10.633600 -12.095700 -39.436700
C -10.599800 -14.279200 -37.067200
C -10.333500 -14.477000 -40.430700
C -10.226500 -12.715600 -38.827900
H -10.214500 -16.711000 -39.171400
H -10.028500 -13.770200 -36.485900
H -9.816500 -15.127700 -40.911000
N -9.797500 -15.312800 -37.786500
H -9.639000 -12.223300 -38.251600
N -9.434000 -13.691600 -39.591100
H -9.400900 -16.231400 -36.912100
H -9.388200 -20.797600 -31.889000
C -8.793700 -14.586400 -38.636500
O -8.719800 -20.574600 -32.692500
O -8.690900 -16.994300 -36.100800
H -8.354200 -18.814600 -34.381000
H -8.257700 -15.224500 -39.114900
H -8.213300 -14.073100 -38.071100
C -7.434900 -20.445600 -32.458800
C -7.420100 -16.877900 -36.042800
C -7.413100 -18.674400 -34.253600
O -6.881300 -21.113100 -31.600700
O -6.748900 -16.131800 -36.776700
C -6.736200 -19.440100 -33.304600
C -6.718600 -17.724900 -35.014500
C -5.386500 -19.239500 -33.074100
C -5.361900 -17.553800 -34.779000
H -4.928000 -19.758400 -32.408700
H -4.869500 -16.915700 -35.298700
C -4.680000 -18.277500 -33.813500
H -3.746700 -18.121800 -33.650400
H -17.385300 -11.109800 -42.457100
C -16.452000 -11.265500 -42.294000
H -16.262500 -9.903700 -40.808800
H -16.204000 -12.746400 -43.698800
C -15.770100 -10.541800 -41.328500
C -15.745500 -12.227500 -43.033400
C -14.413400 -10.712900 -41.093000
C -14.395800 -12.428100 -42.802900
O -14.383100 -9.119800 -39.330800
O -14.250700 -14.101100 -44.506800
C -13.718900 -11.662400 -41.853900
C -13.711900 -9.865900 -40.064700
C -13.697100 -13.433600 -43.648700
H -12.918700 -7.061100 -38.036400
H -12.874300 -8.212500 -36.992600
H -12.777800 -11.802600 -41.726500
O -12.441100 -9.982300 -40.006700
O -12.412200 -13.562600 -43.415000
C -12.338300 -7.574400 -37.471000
H -11.743800 -13.785600 -44.218500
H -11.731100 -9.219400 -39.195400
N -11.698000 -6.679600 -36.516400
H -11.493000 -5.211300 -37.855900
N -11.334500 -8.300800 -38.321000
H -11.315500 -8.115700 -35.196500
H -11.103500 -6.758200 -39.621600
H -10.917500 -9.699000 -36.936100
C -10.905500 -5.703600 -37.279600
C -10.798500 -7.465000 -35.676800
C -10.532200 -7.267200 -39.040300
H -10.498400 -5.083700 -36.670800
C -10.413100 -9.046900 -37.427500
H -10.381400 -6.885800 -35.033400
H -9.873600 -7.710400 -39.580200
N -9.872200 -6.344500 -38.113800
N -9.762300 -8.163400 -36.457000
H -9.760200 -9.511100 -37.955900
C -9.009300 -7.155000 -37.225300
H -8.556300 -6.573000 -36.609900
H -8.341500 -7.591200 -37.758000
