8
Fragment
H -6.209200 -15.979600 -19.797300
O -5.707800 -15.383100 -20.053300
Cl -5.269300 -12.299000 -19.112700
C -5.020500 -14.951900 -19.065600
O -5.001200 -15.390200 -17.969700
C -4.207600 -13.672100 -19.401600
Cl -3.666600 -13.619900 -21.066600
Cl -2.833900 -13.556000 -18.323800
33
Fragment
H -8.763900 -9.852400 -19.380700
H -8.621500 -9.620900 -20.924600
C -8.165000 -9.904000 -20.128700
H -7.865500 -10.810000 -20.236200
H -7.480200 -6.017800 -15.268600
O -7.169000 -8.212700 -22.023500
H -7.054200 -6.601100 -13.865100
N -7.002700 -9.027300 -19.890100
O -6.849600 -9.902900 -17.782100
C -6.766000 -6.456900 -14.780400
C -6.596000 -8.210400 -20.955900
C -6.420500 -9.127400 -18.622200
O -6.413100 -7.691800 -15.400300
H -5.566900 -5.009800 -15.546300
C -5.534700 -5.650100 -14.819200
H -5.527500 -6.639300 -22.583400
N -5.511800 -7.382100 -20.722500
H -5.412500 -5.170300 -13.984500
C -5.308500 -8.239700 -18.492300
C -5.056400 -7.873700 -15.096900
H -4.973000 -8.321200 -14.229400
C -4.958200 -6.571100 -21.813000
H -4.905000 -5.654300 -21.535200
C -4.887300 -7.422000 -19.503100
H -4.796700 -9.559600 -16.209300
O -4.484900 -6.584400 -15.018100
N -4.397400 -8.048600 -17.462000
C -4.366700 -8.692000 -16.149600
H -4.080000 -6.890200 -22.035400
N -3.777400 -6.726800 -19.138500
C -3.523100 -7.149300 -17.901000
H -3.443700 -8.835300 -15.886800
H -2.805000 -6.844400 -17.394800
41
Fragment
H -6.209200 -15.979600 -19.797300
O -5.707800 -15.383100 -20.053300
Cl -5.269300 -12.299000 -19.112700
C -5.020500 -14.951900 -19.065600
O -5.001200 -15.390200 -17.969700
C -4.207600 -13.672100 -19.401600
Cl -3.666600 -13.619900 -21.066600
Cl -2.833900 -13.556000 -18.323800
H -8.763900 -9.852400 -19.380700
H -8.621500 -9.620900 -20.924600
C -8.165000 -9.904000 -20.128700
H -7.865500 -10.810000 -20.236200
H -7.480200 -6.017800 -15.268600
O -7.169000 -8.212700 -22.023500
H -7.054200 -6.601100 -13.865100
N -7.002700 -9.027300 -19.890100
O -6.849600 -9.902900 -17.782100
C -6.766000 -6.456900 -14.780400
C -6.596000 -8.210400 -20.955900
C -6.420500 -9.127400 -18.622200
O -6.413100 -7.691800 -15.400300
H -5.566900 -5.009800 -15.546300
C -5.534700 -5.650100 -14.819200
H -5.527500 -6.639300 -22.583400
N -5.511800 -7.382100 -20.722500
H -5.412500 -5.170300 -13.984500
C -5.308500 -8.239700 -18.492300
C -5.056400 -7.873700 -15.096900
H -4.973000 -8.321200 -14.229400
C -4.958200 -6.571100 -21.813000
H -4.905000 -5.654300 -21.535200
C -4.887300 -7.422000 -19.503100
H -4.796700 -9.559600 -16.209300
O -4.484900 -6.584400 -15.018100
N -4.397400 -8.048600 -17.462000
C -4.366700 -8.692000 -16.149600
H -4.080000 -6.890200 -22.035400
N -3.777400 -6.726800 -19.138500
C -3.523100 -7.149300 -17.901000
H -3.443700 -8.835300 -15.886800
H -2.805000 -6.844400 -17.394800
