8
Fragment
H -6.209200 -15.979600 -19.797300
O -5.707800 -15.383100 -20.053300
Cl -5.269300 -12.299000 -19.112700
C -5.020500 -14.951900 -19.065600
O -5.001200 -15.390200 -17.969700
C -4.207600 -13.672100 -19.401600
Cl -3.666600 -13.619900 -21.066600
Cl -2.833900 -13.556000 -18.323800
33
Fragment
H -6.564100 -20.451600 -19.380700
H -6.421700 -20.220000 -20.924600
C -5.965200 -20.503100 -20.128700
H -5.665700 -21.409100 -20.236200
H -5.280400 -16.617000 -15.268600
O -4.969200 -18.811800 -22.023500
H -4.854400 -17.200200 -13.865100
N -4.802900 -19.626400 -19.890100
O -4.649800 -20.502000 -17.782100
C -4.566200 -17.056100 -14.780400
C -4.396200 -18.809500 -20.955900
C -4.220700 -19.726500 -18.622200
O -4.213300 -18.291000 -15.400300
H -3.367100 -15.608900 -15.546300
C -3.334900 -16.249200 -14.819200
H -3.327700 -17.238400 -22.583400
N -3.312000 -17.981200 -20.722500
H -3.212700 -15.769400 -13.984500
C -3.108700 -18.838800 -18.492300
C -2.856600 -18.472800 -15.096900
H -2.773200 -18.920400 -14.229400
C -2.758400 -17.170200 -21.813000
H -2.705200 -16.253500 -21.535200
C -2.687500 -18.021100 -19.503100
H -2.596900 -20.158700 -16.209300
O -2.285100 -17.183500 -15.018100
N -2.197600 -18.647700 -17.462000
C -2.166900 -19.291100 -16.149600
H -1.880200 -17.489400 -22.035400
N -1.577600 -17.325900 -19.138500
C -1.323300 -17.748500 -17.901000
H -1.243900 -19.434400 -15.886800
H -0.605200 -17.443500 -17.394800
41
Fragment
H -6.209200 -15.979600 -19.797300
O -5.707800 -15.383100 -20.053300
Cl -5.269300 -12.299000 -19.112700
C -5.020500 -14.951900 -19.065600
O -5.001200 -15.390200 -17.969700
C -4.207600 -13.672100 -19.401600
Cl -3.666600 -13.619900 -21.066600
Cl -2.833900 -13.556000 -18.323800
H -6.564100 -20.451600 -19.380700
H -6.421700 -20.220000 -20.924600
C -5.965200 -20.503100 -20.128700
H -5.665700 -21.409100 -20.236200
H -5.280400 -16.617000 -15.268600
O -4.969200 -18.811800 -22.023500
H -4.854400 -17.200200 -13.865100
N -4.802900 -19.626400 -19.890100
O -4.649800 -20.502000 -17.782100
C -4.566200 -17.056100 -14.780400
C -4.396200 -18.809500 -20.955900
C -4.220700 -19.726500 -18.622200
O -4.213300 -18.291000 -15.400300
H -3.367100 -15.608900 -15.546300
C -3.334900 -16.249200 -14.819200
H -3.327700 -17.238400 -22.583400
N -3.312000 -17.981200 -20.722500
H -3.212700 -15.769400 -13.984500
C -3.108700 -18.838800 -18.492300
C -2.856600 -18.472800 -15.096900
H -2.773200 -18.920400 -14.229400
C -2.758400 -17.170200 -21.813000
H -2.705200 -16.253500 -21.535200
C -2.687500 -18.021100 -19.503100
H -2.596900 -20.158700 -16.209300
O -2.285100 -17.183500 -15.018100
N -2.197600 -18.647700 -17.462000
C -2.166900 -19.291100 -16.149600
H -1.880200 -17.489400 -22.035400
N -1.577600 -17.325900 -19.138500
C -1.323300 -17.748500 -17.901000
H -1.243900 -19.434400 -15.886800
H -0.605200 -17.443500 -17.394800
