25
Fragment
O -16.653900 -14.604900 -8.710200
H -16.308700 -16.121700 -10.564200
C -15.561400 -14.863100 -9.183500
N -15.463300 -15.699400 -10.269600
H -15.135700 -12.385600 -8.706000
H -15.102400 -13.803600 -6.762000
H -15.098500 -12.878900 -11.024400
H -15.093800 -16.186400 -6.768900
O -14.293400 -16.935400 -11.764400
C -14.293400 -16.159500 -10.817200
C -14.293400 -15.670300 -6.501100
H -14.293400 -15.611900 -5.517400
C -14.293400 -14.267700 -7.099700
C -14.293400 -14.232900 -8.648000
C -14.293400 -12.738700 -9.103800
C -14.293400 -12.505000 -10.609300
H -14.293400 -11.521100 -10.764400
H -13.492900 -16.186400 -6.768900
H -13.488200 -12.878900 -11.024400
H -13.484300 -13.803600 -6.762000
H -13.451000 -12.385600 -8.706000
N -13.123400 -15.699400 -10.269600
C -13.025300 -14.863100 -9.183500
H -12.278000 -16.121700 -10.564200
O -11.932800 -14.604900 -8.710200
15
Fragment
H -22.188000 -17.708400 -12.573200
N -21.351800 -17.969600 -12.981800
H -21.311400 -18.427000 -13.810900
N -20.254300 -17.081200 -11.176500
C -20.188200 -17.686400 -12.388900
H -19.858200 -15.795200 -9.103000
N -19.057800 -18.024000 -13.032100
C -19.057800 -16.797500 -10.621700
N -19.057800 -16.200200 -9.423000
H -18.257400 -15.795200 -9.103000
C -17.927400 -17.686400 -12.388900
N -17.861300 -17.081200 -11.176500
H -16.804200 -18.427000 -13.810900
N -16.763800 -17.969600 -12.981800
H -15.927600 -17.708400 -12.573200
40
Fragment
O -16.653900 -14.604900 -8.710200
H -16.308700 -16.121700 -10.564200
C -15.561400 -14.863100 -9.183500
N -15.463300 -15.699400 -10.269600
H -15.135700 -12.385600 -8.706000
H -15.102400 -13.803600 -6.762000
H -15.098500 -12.878900 -11.024400
H -15.093800 -16.186400 -6.768900
O -14.293400 -16.935400 -11.764400
C -14.293400 -16.159500 -10.817200
C -14.293400 -15.670300 -6.501100
H -14.293400 -15.611900 -5.517400
C -14.293400 -14.267700 -7.099700
C -14.293400 -14.232900 -8.648000
C -14.293400 -12.738700 -9.103800
C -14.293400 -12.505000 -10.609300
H -14.293400 -11.521100 -10.764400
H -13.492900 -16.186400 -6.768900
H -13.488200 -12.878900 -11.024400
H -13.484300 -13.803600 -6.762000
H -13.451000 -12.385600 -8.706000
N -13.123400 -15.699400 -10.269600
C -13.025300 -14.863100 -9.183500
H -12.278000 -16.121700 -10.564200
O -11.932800 -14.604900 -8.710200
H -22.188000 -17.708400 -12.573200
N -21.351800 -17.969600 -12.981800
H -21.311400 -18.427000 -13.810900
N -20.254300 -17.081200 -11.176500
C -20.188200 -17.686400 -12.388900
H -19.858200 -15.795200 -9.103000
N -19.057800 -18.024000 -13.032100
C -19.057800 -16.797500 -10.621700
N -19.057800 -16.200200 -9.423000
H -18.257400 -15.795200 -9.103000
C -17.927400 -17.686400 -12.388900
N -17.861300 -17.081200 -11.176500
H -16.804200 -18.427000 -13.810900
N -16.763800 -17.969600 -12.981800
H -15.927600 -17.708400 -12.573200
