25
Fragment
O -16.653900 -14.604900 -8.710200
H -16.308700 -16.121700 -10.564200
C -15.561400 -14.863100 -9.183500
N -15.463300 -15.699400 -10.269600
H -15.135700 -12.385600 -8.706000
H -15.102400 -13.803600 -6.762000
H -15.098500 -12.878900 -11.024400
H -15.093800 -16.186400 -6.768900
O -14.293400 -16.935400 -11.764400
C -14.293400 -16.159500 -10.817200
C -14.293400 -15.670300 -6.501100
H -14.293400 -15.611900 -5.517400
C -14.293400 -14.267700 -7.099700
C -14.293400 -14.232900 -8.648000
C -14.293400 -12.738700 -9.103800
C -14.293400 -12.505000 -10.609300
H -14.293400 -11.521100 -10.764400
H -13.492900 -16.186400 -6.768900
H -13.488200 -12.878900 -11.024400
H -13.484300 -13.803600 -6.762000
H -13.451000 -12.385600 -8.706000
N -13.123400 -15.699400 -10.269600
C -13.025300 -14.863100 -9.183500
H -12.278000 -16.121700 -10.564200
O -11.932800 -14.604900 -8.710200
25
Fragment
O -16.653900 -14.604900 -0.043200
H -16.308700 -16.121700 -1.897200
C -15.561400 -14.863100 -0.516500
N -15.463300 -15.699400 -1.602600
H -15.135700 -12.385600 -0.039000
H -15.102400 -13.803600 1.905000
H -15.098500 -12.878900 -2.357400
H -15.093800 -16.186400 1.898100
O -14.293400 -16.935400 -3.097400
C -14.293400 -16.159500 -2.150200
C -14.293400 -15.670300 2.165900
H -14.293400 -15.611900 3.149600
C -14.293400 -14.267700 1.567300
C -14.293400 -14.232900 0.019000
C -14.293400 -12.738700 -0.436800
C -14.293400 -12.505000 -1.942300
H -14.293400 -11.521100 -2.097400
H -13.492900 -16.186400 1.898100
H -13.488200 -12.878900 -2.357400
H -13.484300 -13.803600 1.905000
H -13.451000 -12.385600 -0.039000
N -13.123400 -15.699400 -1.602600
C -13.025300 -14.863100 -0.516500
H -12.278000 -16.121700 -1.897200
O -11.932800 -14.604900 -0.043200
50
Fragment
O -16.653900 -14.604900 -8.710200
H -16.308700 -16.121700 -10.564200
C -15.561400 -14.863100 -9.183500
N -15.463300 -15.699400 -10.269600
H -15.135700 -12.385600 -8.706000
H -15.102400 -13.803600 -6.762000
H -15.098500 -12.878900 -11.024400
H -15.093800 -16.186400 -6.768900
O -14.293400 -16.935400 -11.764400
C -14.293400 -16.159500 -10.817200
C -14.293400 -15.670300 -6.501100
H -14.293400 -15.611900 -5.517400
C -14.293400 -14.267700 -7.099700
C -14.293400 -14.232900 -8.648000
C -14.293400 -12.738700 -9.103800
C -14.293400 -12.505000 -10.609300
H -14.293400 -11.521100 -10.764400
H -13.492900 -16.186400 -6.768900
H -13.488200 -12.878900 -11.024400
H -13.484300 -13.803600 -6.762000
H -13.451000 -12.385600 -8.706000
N -13.123400 -15.699400 -10.269600
C -13.025300 -14.863100 -9.183500
H -12.278000 -16.121700 -10.564200
O -11.932800 -14.604900 -8.710200
O -16.653900 -14.604900 -0.043200
H -16.308700 -16.121700 -1.897200
C -15.561400 -14.863100 -0.516500
N -15.463300 -15.699400 -1.602600
H -15.135700 -12.385600 -0.039000
H -15.102400 -13.803600 1.905000
H -15.098500 -12.878900 -2.357400
H -15.093800 -16.186400 1.898100
O -14.293400 -16.935400 -3.097400
C -14.293400 -16.159500 -2.150200
C -14.293400 -15.670300 2.165900
H -14.293400 -15.611900 3.149600
C -14.293400 -14.267700 1.567300
C -14.293400 -14.232900 0.019000
C -14.293400 -12.738700 -0.436800
C -14.293400 -12.505000 -1.942300
H -14.293400 -11.521100 -2.097400
H -13.492900 -16.186400 1.898100
H -13.488200 -12.878900 -2.357400
H -13.484300 -13.803600 1.905000
H -13.451000 -12.385600 -0.039000
N -13.123400 -15.699400 -1.602600
C -13.025300 -14.863100 -0.516500
H -12.278000 -16.121700 -1.897200
O -11.932800 -14.604900 -0.043200
