25
Fragment
O -16.653900 -14.604900 -8.710200
H -16.308700 -16.121700 -10.564200
C -15.561400 -14.863100 -9.183500
N -15.463300 -15.699400 -10.269600
H -15.135700 -12.385600 -8.706000
H -15.102400 -13.803600 -6.762000
H -15.098500 -12.878900 -11.024400
H -15.093800 -16.186400 -6.768900
O -14.293400 -16.935400 -11.764400
C -14.293400 -16.159500 -10.817200
C -14.293400 -15.670300 -6.501100
H -14.293400 -15.611900 -5.517400
C -14.293400 -14.267700 -7.099700
C -14.293400 -14.232900 -8.648000
C -14.293400 -12.738700 -9.103800
C -14.293400 -12.505000 -10.609300
H -14.293400 -11.521100 -10.764400
H -13.492900 -16.186400 -6.768900
H -13.488200 -12.878900 -11.024400
H -13.484300 -13.803600 -6.762000
H -13.451000 -12.385600 -8.706000
N -13.123400 -15.699400 -10.269600
C -13.025300 -14.863100 -9.183500
H -12.278000 -16.121700 -10.564200
O -11.932800 -14.604900 -8.710200
25
Fragment
O -21.418400 -12.752400 -13.043700
H -21.073200 -11.235600 -14.897700
C -20.325800 -12.494200 -13.517000
N -20.227800 -11.657900 -14.603100
H -19.900200 -14.971700 -13.039500
H -19.866800 -13.553700 -11.095500
H -19.863000 -14.478400 -15.357900
H -19.858200 -11.170900 -11.102400
H -19.057800 -15.836200 -15.097900
C -19.057800 -14.852300 -14.942800
C -19.057800 -14.618600 -13.437300
C -19.057800 -13.124400 -12.981500
C -19.057800 -13.089600 -11.433200
H -19.057800 -11.745400 -9.850900
C -19.057800 -11.687000 -10.834600
C -19.057800 -11.197800 -15.150700
O -19.057800 -10.421900 -16.097900
H -18.257400 -11.170900 -11.102400
H -18.252600 -14.478400 -15.357900
H -18.248800 -13.553700 -11.095500
H -18.215400 -14.971700 -13.039500
N -17.887800 -11.657900 -14.603100
C -17.789800 -12.494200 -13.517000
H -17.042400 -11.235600 -14.897700
O -16.697200 -12.752400 -13.043700
50
Fragment
O -16.653900 -14.604900 -8.710200
H -16.308700 -16.121700 -10.564200
C -15.561400 -14.863100 -9.183500
N -15.463300 -15.699400 -10.269600
H -15.135700 -12.385600 -8.706000
H -15.102400 -13.803600 -6.762000
H -15.098500 -12.878900 -11.024400
H -15.093800 -16.186400 -6.768900
O -14.293400 -16.935400 -11.764400
C -14.293400 -16.159500 -10.817200
C -14.293400 -15.670300 -6.501100
H -14.293400 -15.611900 -5.517400
C -14.293400 -14.267700 -7.099700
C -14.293400 -14.232900 -8.648000
C -14.293400 -12.738700 -9.103800
C -14.293400 -12.505000 -10.609300
H -14.293400 -11.521100 -10.764400
H -13.492900 -16.186400 -6.768900
H -13.488200 -12.878900 -11.024400
H -13.484300 -13.803600 -6.762000
H -13.451000 -12.385600 -8.706000
N -13.123400 -15.699400 -10.269600
C -13.025300 -14.863100 -9.183500
H -12.278000 -16.121700 -10.564200
O -11.932800 -14.604900 -8.710200
O -21.418400 -12.752400 -13.043700
H -21.073200 -11.235600 -14.897700
C -20.325800 -12.494200 -13.517000
N -20.227800 -11.657900 -14.603100
H -19.900200 -14.971700 -13.039500
H -19.866800 -13.553700 -11.095500
H -19.863000 -14.478400 -15.357900
H -19.858200 -11.170900 -11.102400
H -19.057800 -15.836200 -15.097900
C -19.057800 -14.852300 -14.942800
C -19.057800 -14.618600 -13.437300
C -19.057800 -13.124400 -12.981500
C -19.057800 -13.089600 -11.433200
H -19.057800 -11.745400 -9.850900
C -19.057800 -11.687000 -10.834600
C -19.057800 -11.197800 -15.150700
O -19.057800 -10.421900 -16.097900
H -18.257400 -11.170900 -11.102400
H -18.252600 -14.478400 -15.357900
H -18.248800 -13.553700 -11.095500
H -18.215400 -14.971700 -13.039500
N -17.887800 -11.657900 -14.603100
C -17.789800 -12.494200 -13.517000
H -17.042400 -11.235600 -14.897700
O -16.697200 -12.752400 -13.043700
