12
Fragment
O -17.166700 -19.597300 -14.368500
C -16.196100 -19.595900 -13.646100
H -15.975200 -21.528500 -13.345800
H -15.875400 -17.694400 -13.479600
N -15.636100 -20.743100 -13.143700
N -15.562800 -18.445600 -13.258900
C -14.520700 -20.792300 -12.361100
C -14.485100 -18.385000 -12.418300
O -14.037500 -21.853800 -11.973900
O -14.002300 -17.325300 -12.043000
N -13.983500 -19.589100 -12.010300
H -13.203200 -19.581500 -11.440200
11
Fragment
H -22.225100 -17.817900 -17.118300
N -21.933100 -19.541300 -17.970800
C -21.571800 -18.501300 -17.234300
H -21.324400 -21.276700 -18.718500
C -21.029900 -20.487800 -18.174400
C -20.319200 -18.386200 -16.688000
H -20.155300 -17.676400 -16.190800
C -19.768500 -20.442300 -17.674300
C -19.404600 -19.374100 -16.914700
H -19.145200 -21.194000 -17.866000
H -18.598500 -19.273400 -16.573600
23
Fragment
O -17.166700 -19.597300 -14.368500
C -16.196100 -19.595900 -13.646100
H -15.975200 -21.528500 -13.345800
H -15.875400 -17.694400 -13.479600
N -15.636100 -20.743100 -13.143700
N -15.562800 -18.445600 -13.258900
C -14.520700 -20.792300 -12.361100
C -14.485100 -18.385000 -12.418300
O -14.037500 -21.853800 -11.973900
O -14.002300 -17.325300 -12.043000
N -13.983500 -19.589100 -12.010300
H -13.203200 -19.581500 -11.440200
H -22.225100 -17.817900 -17.118300
N -21.933100 -19.541300 -17.970800
C -21.571800 -18.501300 -17.234300
H -21.324400 -21.276700 -18.718500
C -21.029900 -20.487800 -18.174400
C -20.319200 -18.386200 -16.688000
H -20.155300 -17.676400 -16.190800
C -19.768500 -20.442300 -17.674300
C -19.404600 -19.374100 -16.914700
H -19.145200 -21.194000 -17.866000
H -18.598500 -19.273400 -16.573600
