12
Fragment
O -17.166700 -19.597300 -14.368500
C -16.196100 -19.595900 -13.646100
H -15.975200 -21.528500 -13.345800
H -15.875400 -17.694400 -13.479600
N -15.636100 -20.743100 -13.143700
N -15.562800 -18.445600 -13.258900
C -14.520700 -20.792300 -12.361100
C -14.485100 -18.385000 -12.418300
O -14.037500 -21.853800 -11.973900
O -14.002300 -17.325300 -12.043000
N -13.983500 -19.589100 -12.010300
H -13.203200 -19.581500 -11.440200
12
Fragment
H -17.294800 -13.587000 -14.572100
N -16.514400 -13.594700 -14.002100
O -16.495700 -11.330800 -13.969400
O -16.460400 -15.859400 -14.038500
C -16.012800 -12.390500 -13.594000
C -15.977200 -14.797900 -13.651300
N -14.935100 -12.451200 -12.753500
N -14.861800 -14.748600 -12.868700
H -14.622500 -11.700000 -12.532700
H -14.522700 -15.534000 -12.666500
C -14.301900 -13.601400 -12.366300
O -13.331200 -13.602800 -11.643900
24
Fragment
O -17.166700 -19.597300 -14.368500
C -16.196100 -19.595900 -13.646100
H -15.975200 -21.528500 -13.345800
H -15.875400 -17.694400 -13.479600
N -15.636100 -20.743100 -13.143700
N -15.562800 -18.445600 -13.258900
C -14.520700 -20.792300 -12.361100
C -14.485100 -18.385000 -12.418300
O -14.037500 -21.853800 -11.973900
O -14.002300 -17.325300 -12.043000
N -13.983500 -19.589100 -12.010300
H -13.203200 -19.581500 -11.440200
H -17.294800 -13.587000 -14.572100
N -16.514400 -13.594700 -14.002100
O -16.495700 -11.330800 -13.969400
O -16.460400 -15.859400 -14.038500
C -16.012800 -12.390500 -13.594000
C -15.977200 -14.797900 -13.651300
N -14.935100 -12.451200 -12.753500
N -14.861800 -14.748600 -12.868700
H -14.622500 -11.700000 -12.532700
H -14.522700 -15.534000 -12.666500
C -14.301900 -13.601400 -12.366300
O -13.331200 -13.602800 -11.643900
