31
Fragment
N -8.100600 -20.559100 -24.106600
C -7.171900 -20.365800 -23.482300
C -6.000900 -20.095200 -22.703700
H -5.918100 -18.111000 -23.116900
H -5.709900 -21.967700 -21.992100
C -5.493600 -18.793900 -22.649800
C -5.372100 -21.101600 -21.976200
C -4.376400 -18.521900 -21.912700
C -4.256800 -20.813900 -21.239700
H -4.052500 -17.650100 -21.885700
H -3.848800 -21.493900 -20.752900
C -3.707100 -19.516900 -21.196000
C -2.512100 -19.336500 -20.409000
H -2.242000 -20.095200 -19.942700
N -2.116100 -15.993700 -21.394800
C -1.964300 -17.000100 -20.867300
C -1.716900 -18.258500 -20.230900
C -0.513700 -18.262800 -19.411900
H -0.196100 -20.228400 -18.937100
N 0.025900 -19.394000 -18.871000
N 0.182200 -17.179100 -19.114500
C 1.159600 -19.021500 -18.187400
C 1.238700 -17.625700 -18.341300
H 2.045900 -20.665000 -17.396000
C 2.109100 -19.741600 -17.487900
C 2.292600 -16.927100 -17.756700
H 2.358400 -16.003700 -17.839300
C 3.149800 -19.040100 -16.933700
C 3.231400 -17.641500 -17.056100
H 3.812700 -19.498300 -16.469800
H 3.938000 -17.190500 -16.652500
31
Fragment
H -7.101000 -25.757200 -24.595900
H -6.975800 -23.449400 -24.413200
C -6.394400 -25.306200 -24.999500
C -6.312800 -23.907600 -24.877100
H -5.521400 -26.944000 -25.782700
C -5.455600 -26.020600 -25.700100
C -5.272200 -23.206100 -25.431300
H -5.208900 -22.282700 -25.339400
C -4.401700 -25.322000 -26.284700
C -4.322600 -23.926200 -26.130800
N -3.345200 -25.768600 -27.057900
N -3.189000 -23.553700 -26.814400
H -2.966900 -22.719300 -26.880500
C -2.649400 -24.684900 -27.355300
C -1.446100 -24.689200 -28.174300
C -1.198800 -25.947600 -28.810700
N -1.047000 -26.954000 -29.338200
H -0.921100 -22.852500 -27.886100
C -0.651000 -23.611200 -28.352400
C 0.544000 -23.430800 -29.139400
H 0.685700 -21.453800 -28.696300
H 0.889400 -25.297600 -29.829100
C 1.093800 -22.133800 -29.183100
C 1.213300 -24.425800 -29.856100
C 2.209100 -21.846100 -29.919600
C 2.330500 -24.153800 -30.593200
H 2.546900 -20.980000 -29.935500
H 2.755000 -24.836700 -31.060300
C 2.837900 -22.852500 -30.647100
C 4.008800 -22.581900 -31.425700
N 4.937500 -22.388600 -32.050000
62
Fragment
N -8.100600 -20.559100 -24.106600
C -7.171900 -20.365800 -23.482300
C -6.000900 -20.095200 -22.703700
H -5.918100 -18.111000 -23.116900
H -5.709900 -21.967700 -21.992100
C -5.493600 -18.793900 -22.649800
C -5.372100 -21.101600 -21.976200
C -4.376400 -18.521900 -21.912700
C -4.256800 -20.813900 -21.239700
H -4.052500 -17.650100 -21.885700
H -3.848800 -21.493900 -20.752900
C -3.707100 -19.516900 -21.196000
C -2.512100 -19.336500 -20.409000
H -2.242000 -20.095200 -19.942700
N -2.116100 -15.993700 -21.394800
C -1.964300 -17.000100 -20.867300
C -1.716900 -18.258500 -20.230900
C -0.513700 -18.262800 -19.411900
H -0.196100 -20.228400 -18.937100
N 0.025900 -19.394000 -18.871000
N 0.182200 -17.179100 -19.114500
C 1.159600 -19.021500 -18.187400
C 1.238700 -17.625700 -18.341300
H 2.045900 -20.665000 -17.396000
C 2.109100 -19.741600 -17.487900
C 2.292600 -16.927100 -17.756700
H 2.358400 -16.003700 -17.839300
C 3.149800 -19.040100 -16.933700
C 3.231400 -17.641500 -17.056100
H 3.812700 -19.498300 -16.469800
H 3.938000 -17.190500 -16.652500
H -7.101000 -25.757200 -24.595900
H -6.975800 -23.449400 -24.413200
C -6.394400 -25.306200 -24.999500
C -6.312800 -23.907600 -24.877100
H -5.521400 -26.944000 -25.782700
C -5.455600 -26.020600 -25.700100
C -5.272200 -23.206100 -25.431300
H -5.208900 -22.282700 -25.339400
C -4.401700 -25.322000 -26.284700
C -4.322600 -23.926200 -26.130800
N -3.345200 -25.768600 -27.057900
N -3.189000 -23.553700 -26.814400
H -2.966900 -22.719300 -26.880500
C -2.649400 -24.684900 -27.355300
C -1.446100 -24.689200 -28.174300
C -1.198800 -25.947600 -28.810700
N -1.047000 -26.954000 -29.338200
H -0.921100 -22.852500 -27.886100
C -0.651000 -23.611200 -28.352400
C 0.544000 -23.430800 -29.139400
H 0.685700 -21.453800 -28.696300
H 0.889400 -25.297600 -29.829100
C 1.093800 -22.133800 -29.183100
C 1.213300 -24.425800 -29.856100
C 2.209100 -21.846100 -29.919600
C 2.330500 -24.153800 -30.593200
H 2.546900 -20.980000 -29.935500
H 2.755000 -24.836700 -31.060300
C 2.837900 -22.852500 -30.647100
C 4.008800 -22.581900 -31.425700
N 4.937500 -22.388600 -32.050000
