31
Fragment
N -8.100600 -20.559100 -24.106600
C -7.171900 -20.365800 -23.482300
C -6.000900 -20.095200 -22.703700
H -5.918100 -18.111000 -23.116900
H -5.709900 -21.967700 -21.992100
C -5.493600 -18.793900 -22.649800
C -5.372100 -21.101600 -21.976200
C -4.376400 -18.521900 -21.912700
C -4.256800 -20.813900 -21.239700
H -4.052500 -17.650100 -21.885700
H -3.848800 -21.493900 -20.752900
C -3.707100 -19.516900 -21.196000
C -2.512100 -19.336500 -20.409000
H -2.242000 -20.095200 -19.942700
N -2.116100 -15.993700 -21.394800
C -1.964300 -17.000100 -20.867300
C -1.716900 -18.258500 -20.230900
C -0.513700 -18.262800 -19.411900
H -0.196100 -20.228400 -18.937100
N 0.025900 -19.394000 -18.871000
N 0.182200 -17.179100 -19.114500
C 1.159600 -19.021500 -18.187400
C 1.238700 -17.625700 -18.341300
H 2.045900 -20.665000 -17.396000
C 2.109100 -19.741600 -17.487900
C 2.292600 -16.927100 -17.756700
H 2.358400 -16.003700 -17.839300
C 3.149800 -19.040100 -16.933700
C 3.231400 -17.641500 -17.056100
H 3.812700 -19.498300 -16.469800
H 3.938000 -17.190500 -16.652500
31
Fragment
N -11.263600 -15.230700 -23.553800
C -10.334900 -15.424000 -24.178100
C -9.164000 -15.694500 -24.956700
H -9.081100 -17.678700 -24.543500
H -8.873000 -13.822000 -25.668300
C -8.656600 -16.995800 -25.010600
C -8.535200 -14.688100 -25.684200
C -7.539400 -17.267800 -25.747700
C -7.419900 -14.975900 -26.420700
H -7.215500 -18.139700 -25.774700
H -7.011800 -14.295900 -26.907500
C -6.870100 -16.272900 -26.464400
C -5.675100 -16.453300 -27.251400
H -5.405000 -15.694500 -27.717700
N -5.279100 -19.796000 -26.265600
C -5.127300 -18.789600 -26.793100
C -4.880000 -17.531300 -27.429500
C -3.676700 -17.527000 -28.248500
H -3.359200 -15.561400 -28.723300
N -3.137100 -16.395700 -28.789400
N -2.980900 -18.610700 -28.545900
C -2.003500 -16.768200 -29.473000
C -1.924400 -18.164000 -29.319100
H -1.117200 -15.124700 -30.264400
C -1.053900 -16.048100 -30.172500
C -0.870500 -18.862600 -29.903700
H -0.804700 -19.786000 -29.821100
C -0.013300 -16.749600 -30.726700
C 0.068300 -18.148300 -30.604300
H 0.649700 -16.291500 -31.190600
H 0.774900 -18.599200 -31.007900
62
Fragment
N -8.100600 -20.559100 -24.106600
C -7.171900 -20.365800 -23.482300
C -6.000900 -20.095200 -22.703700
H -5.918100 -18.111000 -23.116900
H -5.709900 -21.967700 -21.992100
C -5.493600 -18.793900 -22.649800
C -5.372100 -21.101600 -21.976200
C -4.376400 -18.521900 -21.912700
C -4.256800 -20.813900 -21.239700
H -4.052500 -17.650100 -21.885700
H -3.848800 -21.493900 -20.752900
C -3.707100 -19.516900 -21.196000
C -2.512100 -19.336500 -20.409000
H -2.242000 -20.095200 -19.942700
N -2.116100 -15.993700 -21.394800
C -1.964300 -17.000100 -20.867300
C -1.716900 -18.258500 -20.230900
C -0.513700 -18.262800 -19.411900
H -0.196100 -20.228400 -18.937100
N 0.025900 -19.394000 -18.871000
N 0.182200 -17.179100 -19.114500
C 1.159600 -19.021500 -18.187400
C 1.238700 -17.625700 -18.341300
H 2.045900 -20.665000 -17.396000
C 2.109100 -19.741600 -17.487900
C 2.292600 -16.927100 -17.756700
H 2.358400 -16.003700 -17.839300
C 3.149800 -19.040100 -16.933700
C 3.231400 -17.641500 -17.056100
H 3.812700 -19.498300 -16.469800
H 3.938000 -17.190500 -16.652500
N -11.263600 -15.230700 -23.553800
C -10.334900 -15.424000 -24.178100
C -9.164000 -15.694500 -24.956700
H -9.081100 -17.678700 -24.543500
H -8.873000 -13.822000 -25.668300
C -8.656600 -16.995800 -25.010600
C -8.535200 -14.688100 -25.684200
C -7.539400 -17.267800 -25.747700
C -7.419900 -14.975900 -26.420700
H -7.215500 -18.139700 -25.774700
H -7.011800 -14.295900 -26.907500
C -6.870100 -16.272900 -26.464400
C -5.675100 -16.453300 -27.251400
H -5.405000 -15.694500 -27.717700
N -5.279100 -19.796000 -26.265600
C -5.127300 -18.789600 -26.793100
C -4.880000 -17.531300 -27.429500
C -3.676700 -17.527000 -28.248500
H -3.359200 -15.561400 -28.723300
N -3.137100 -16.395700 -28.789400
N -2.980900 -18.610700 -28.545900
C -2.003500 -16.768200 -29.473000
C -1.924400 -18.164000 -29.319100
H -1.117200 -15.124700 -30.264400
C -1.053900 -16.048100 -30.172500
C -0.870500 -18.862600 -29.903700
H -0.804700 -19.786000 -29.821100
C -0.013300 -16.749600 -30.726700
C 0.068300 -18.148300 -30.604300
H 0.649700 -16.291500 -31.190600
H 0.774900 -18.599200 -31.007900
