31
Fragment
N -8.100600 -20.559100 -24.106600
C -7.171900 -20.365800 -23.482300
C -6.000900 -20.095200 -22.703700
H -5.918100 -18.111000 -23.116900
H -5.709900 -21.967700 -21.992100
C -5.493600 -18.793900 -22.649800
C -5.372100 -21.101600 -21.976200
C -4.376400 -18.521900 -21.912700
C -4.256800 -20.813900 -21.239700
H -4.052500 -17.650100 -21.885700
H -3.848800 -21.493900 -20.752900
C -3.707100 -19.516900 -21.196000
C -2.512100 -19.336500 -20.409000
H -2.242000 -20.095200 -19.942700
N -2.116100 -15.993700 -21.394800
C -1.964300 -17.000100 -20.867300
C -1.716900 -18.258500 -20.230900
C -0.513700 -18.262800 -19.411900
H -0.196100 -20.228400 -18.937100
N 0.025900 -19.394000 -18.871000
N 0.182200 -17.179100 -19.114500
C 1.159600 -19.021500 -18.187400
C 1.238700 -17.625700 -18.341300
H 2.045900 -20.665000 -17.396000
C 2.109100 -19.741600 -17.487900
C 2.292600 -16.927100 -17.756700
H 2.358400 -16.003700 -17.839300
C 3.149800 -19.040100 -16.933700
C 3.231400 -17.641500 -17.056100
H 3.812700 -19.498300 -16.469800
H 3.938000 -17.190500 -16.652500
31
Fragment
H -3.938000 -24.348500 -23.064500
H -3.812700 -26.656200 -23.247200
C -3.231400 -24.799400 -22.660900
C -3.149800 -26.198100 -22.783300
H -2.358400 -23.161700 -21.877700
C -2.292600 -24.085100 -21.960300
C -2.109100 -26.899600 -22.229100
H -2.045900 -27.823000 -22.321000
C -1.238700 -24.783700 -21.375700
C -1.159600 -26.179500 -21.529600
N -0.182200 -24.337000 -20.602500
N -0.025900 -26.552000 -20.846000
H 0.196100 -27.386300 -20.779900
C 0.513700 -25.420700 -20.305100
C 1.716900 -25.416400 -19.486100
C 1.964300 -24.158100 -18.849700
N 2.116100 -23.151700 -18.322200
H 2.242000 -27.253200 -19.774300
C 2.512100 -26.494400 -19.308000
C 3.707100 -26.674800 -18.521000
H 3.848800 -28.651800 -18.964100
H 4.052500 -24.808000 -17.831300
C 4.256800 -27.971800 -18.477300
C 4.376400 -25.679900 -17.804300
C 5.372100 -28.259600 -17.740800
C 5.493600 -25.951900 -17.067200
H 5.709900 -29.125700 -17.724900
H 5.918100 -25.269000 -16.600100
C 6.000900 -27.253200 -17.013300
C 7.171900 -27.523700 -16.234700
N 8.100600 -27.717000 -15.610400
62
Fragment
N -8.100600 -20.559100 -24.106600
C -7.171900 -20.365800 -23.482300
C -6.000900 -20.095200 -22.703700
H -5.918100 -18.111000 -23.116900
H -5.709900 -21.967700 -21.992100
C -5.493600 -18.793900 -22.649800
C -5.372100 -21.101600 -21.976200
C -4.376400 -18.521900 -21.912700
C -4.256800 -20.813900 -21.239700
H -4.052500 -17.650100 -21.885700
H -3.848800 -21.493900 -20.752900
C -3.707100 -19.516900 -21.196000
C -2.512100 -19.336500 -20.409000
H -2.242000 -20.095200 -19.942700
N -2.116100 -15.993700 -21.394800
C -1.964300 -17.000100 -20.867300
C -1.716900 -18.258500 -20.230900
C -0.513700 -18.262800 -19.411900
H -0.196100 -20.228400 -18.937100
N 0.025900 -19.394000 -18.871000
N 0.182200 -17.179100 -19.114500
C 1.159600 -19.021500 -18.187400
C 1.238700 -17.625700 -18.341300
H 2.045900 -20.665000 -17.396000
C 2.109100 -19.741600 -17.487900
C 2.292600 -16.927100 -17.756700
H 2.358400 -16.003700 -17.839300
C 3.149800 -19.040100 -16.933700
C 3.231400 -17.641500 -17.056100
H 3.812700 -19.498300 -16.469800
H 3.938000 -17.190500 -16.652500
H -3.938000 -24.348500 -23.064500
H -3.812700 -26.656200 -23.247200
C -3.231400 -24.799400 -22.660900
C -3.149800 -26.198100 -22.783300
H -2.358400 -23.161700 -21.877700
C -2.292600 -24.085100 -21.960300
C -2.109100 -26.899600 -22.229100
H -2.045900 -27.823000 -22.321000
C -1.238700 -24.783700 -21.375700
C -1.159600 -26.179500 -21.529600
N -0.182200 -24.337000 -20.602500
N -0.025900 -26.552000 -20.846000
H 0.196100 -27.386300 -20.779900
C 0.513700 -25.420700 -20.305100
C 1.716900 -25.416400 -19.486100
C 1.964300 -24.158100 -18.849700
N 2.116100 -23.151700 -18.322200
H 2.242000 -27.253200 -19.774300
C 2.512100 -26.494400 -19.308000
C 3.707100 -26.674800 -18.521000
H 3.848800 -28.651800 -18.964100
H 4.052500 -24.808000 -17.831300
C 4.256800 -27.971800 -18.477300
C 4.376400 -25.679900 -17.804300
C 5.372100 -28.259600 -17.740800
C 5.493600 -25.951900 -17.067200
H 5.709900 -29.125700 -17.724900
H 5.918100 -25.269000 -16.600100
C 6.000900 -27.253200 -17.013300
C 7.171900 -27.523700 -16.234700
N 8.100600 -27.717000 -15.610400
