17
Fragment
H -7.587500 -22.417500 -12.043200
H -6.920900 -20.196100 -12.299600
C -6.876200 -22.213500 -12.638800
H -6.728300 -18.377100 -13.627300
C -6.485200 -20.885200 -12.787600
N -6.283800 -23.217600 -13.309000
N -5.832000 -18.202800 -13.718500
C -5.447700 -20.585800 -13.660000
N -5.437700 -16.849000 -13.878500
C -5.278300 -22.925700 -14.143500
H -5.088300 -16.782600 -14.668200
C -4.939100 -19.188200 -13.857800
H -4.852700 -23.631600 -14.615900
C -4.837600 -21.624600 -14.340500
H -4.728800 -16.728600 -13.343400
H -4.121100 -21.448100 -14.938500
O -3.748700 -18.978600 -14.127100
12
Fragment
H -8.862800 -26.809000 -15.382300
O -8.381200 -29.163300 -15.777200
N -8.202500 -26.894900 -15.877800
O -8.000600 -24.633200 -16.050800
C -7.827000 -28.173600 -16.221100
C -7.621300 -25.749200 -16.363100
N -6.775200 -28.258000 -17.097800
N -6.582500 -25.950100 -17.240600
H -6.487900 -29.119700 -17.335200
H -6.153700 -25.187500 -17.524500
C -6.128200 -27.182600 -17.626000
O -5.194000 -27.313800 -18.415700
29
Fragment
H -7.587500 -22.417500 -12.043200
H -6.920900 -20.196100 -12.299600
C -6.876200 -22.213500 -12.638800
H -6.728300 -18.377100 -13.627300
C -6.485200 -20.885200 -12.787600
N -6.283800 -23.217600 -13.309000
N -5.832000 -18.202800 -13.718500
C -5.447700 -20.585800 -13.660000
N -5.437700 -16.849000 -13.878500
C -5.278300 -22.925700 -14.143500
H -5.088300 -16.782600 -14.668200
C -4.939100 -19.188200 -13.857800
H -4.852700 -23.631600 -14.615900
C -4.837600 -21.624600 -14.340500
H -4.728800 -16.728600 -13.343400
H -4.121100 -21.448100 -14.938500
O -3.748700 -18.978600 -14.127100
H -8.862800 -26.809000 -15.382300
O -8.381200 -29.163300 -15.777200
N -8.202500 -26.894900 -15.877800
O -8.000600 -24.633200 -16.050800
C -7.827000 -28.173600 -16.221100
C -7.621300 -25.749200 -16.363100
N -6.775200 -28.258000 -17.097800
N -6.582500 -25.950100 -17.240600
H -6.487900 -29.119700 -17.335200
H -6.153700 -25.187500 -17.524500
C -6.128200 -27.182600 -17.626000
O -5.194000 -27.313800 -18.415700
