17
Fragment
H -7.587500 -22.417500 -12.043200
H -6.920900 -20.196100 -12.299600
C -6.876200 -22.213500 -12.638800
H -6.728300 -18.377100 -13.627300
C -6.485200 -20.885200 -12.787600
N -6.283800 -23.217600 -13.309000
N -5.832000 -18.202800 -13.718500
C -5.447700 -20.585800 -13.660000
N -5.437700 -16.849000 -13.878500
C -5.278300 -22.925700 -14.143500
H -5.088300 -16.782600 -14.668200
C -4.939100 -19.188200 -13.857800
H -4.852700 -23.631600 -14.615900
C -4.837600 -21.624600 -14.340500
H -4.728800 -16.728600 -13.343400
H -4.121100 -21.448100 -14.938500
O -3.748700 -18.978600 -14.127100
12
Fragment
H -4.025600 -13.296400 -15.382300
O -3.544000 -15.650700 -15.777200
N -3.365300 -13.382300 -15.877800
O -3.163400 -11.120600 -16.050800
C -2.989800 -14.661000 -16.221100
C -2.784100 -12.236600 -16.363100
N -1.938000 -14.745400 -17.097800
N -1.745300 -12.437500 -17.240600
H -1.650700 -15.607100 -17.335200
H -1.316500 -11.674900 -17.524500
C -1.291000 -13.670000 -17.626000
O -0.356800 -13.801200 -18.415700
29
Fragment
H -7.587500 -22.417500 -12.043200
H -6.920900 -20.196100 -12.299600
C -6.876200 -22.213500 -12.638800
H -6.728300 -18.377100 -13.627300
C -6.485200 -20.885200 -12.787600
N -6.283800 -23.217600 -13.309000
N -5.832000 -18.202800 -13.718500
C -5.447700 -20.585800 -13.660000
N -5.437700 -16.849000 -13.878500
C -5.278300 -22.925700 -14.143500
H -5.088300 -16.782600 -14.668200
C -4.939100 -19.188200 -13.857800
H -4.852700 -23.631600 -14.615900
C -4.837600 -21.624600 -14.340500
H -4.728800 -16.728600 -13.343400
H -4.121100 -21.448100 -14.938500
O -3.748700 -18.978600 -14.127100
H -4.025600 -13.296400 -15.382300
O -3.544000 -15.650700 -15.777200
N -3.365300 -13.382300 -15.877800
O -3.163400 -11.120600 -16.050800
C -2.989800 -14.661000 -16.221100
C -2.784100 -12.236600 -16.363100
N -1.938000 -14.745400 -17.097800
N -1.745300 -12.437500 -17.240600
H -1.650700 -15.607100 -17.335200
H -1.316500 -11.674900 -17.524500
C -1.291000 -13.670000 -17.626000
O -0.356800 -13.801200 -18.415700
