17
Fragment
H -7.587500 -22.417500 -12.043200
H -6.920900 -20.196100 -12.299600
C -6.876200 -22.213500 -12.638800
H -6.728300 -18.377100 -13.627300
C -6.485200 -20.885200 -12.787600
N -6.283800 -23.217600 -13.309000
N -5.832000 -18.202800 -13.718500
C -5.447700 -20.585800 -13.660000
N -5.437700 -16.849000 -13.878500
C -5.278300 -22.925700 -14.143500
H -5.088300 -16.782600 -14.668200
C -4.939100 -19.188200 -13.857800
H -4.852700 -23.631600 -14.615900
C -4.837600 -21.624600 -14.340500
H -4.728800 -16.728600 -13.343400
H -4.121100 -21.448100 -14.938500
O -3.748700 -18.978600 -14.127100
12
Fragment
H -4.366200 -13.728800 -11.080800
O -3.884600 -11.374500 -11.475600
N -3.705900 -13.642900 -11.576300
O -3.504000 -15.904600 -11.749200
C -3.330400 -12.364200 -11.919600
C -3.124700 -14.788600 -12.061500
N -2.278600 -12.279800 -12.796200
N -2.085900 -14.587700 -12.939000
H -1.991300 -11.418100 -13.033700
H -1.657100 -15.350300 -13.222900
C -1.631600 -13.355200 -13.324400
O -0.697400 -13.224000 -14.114200
29
Fragment
H -7.587500 -22.417500 -12.043200
H -6.920900 -20.196100 -12.299600
C -6.876200 -22.213500 -12.638800
H -6.728300 -18.377100 -13.627300
C -6.485200 -20.885200 -12.787600
N -6.283800 -23.217600 -13.309000
N -5.832000 -18.202800 -13.718500
C -5.447700 -20.585800 -13.660000
N -5.437700 -16.849000 -13.878500
C -5.278300 -22.925700 -14.143500
H -5.088300 -16.782600 -14.668200
C -4.939100 -19.188200 -13.857800
H -4.852700 -23.631600 -14.615900
C -4.837600 -21.624600 -14.340500
H -4.728800 -16.728600 -13.343400
H -4.121100 -21.448100 -14.938500
O -3.748700 -18.978600 -14.127100
H -4.366200 -13.728800 -11.080800
O -3.884600 -11.374500 -11.475600
N -3.705900 -13.642900 -11.576300
O -3.504000 -15.904600 -11.749200
C -3.330400 -12.364200 -11.919600
C -3.124700 -14.788600 -12.061500
N -2.278600 -12.279800 -12.796200
N -2.085900 -14.587700 -12.939000
H -1.991300 -11.418100 -13.033700
H -1.657100 -15.350300 -13.222900
C -1.631600 -13.355200 -13.324400
O -0.697400 -13.224000 -14.114200
