24
Fragment
H -14.102200 -20.037500 -26.195900
H -14.084500 -26.794400 -27.561100
H -13.881400 -24.410200 -22.599100
N -13.390900 -22.767800 -28.277800
C -13.361700 -24.029600 -28.718900
C -13.360400 -22.908300 -26.924900
H -13.358700 -24.177100 -29.289700
N -13.346900 -21.892600 -25.984000
N -13.322600 -24.940900 -27.755900
C -13.313100 -24.233100 -26.565800
C -13.284800 -26.408800 -27.927400
C -13.284400 -22.200400 -24.654200
O -13.278700 -21.340100 -23.787300
C -13.268900 -20.471900 -26.390100
C -13.242700 -24.667600 -25.202100
N -13.242100 -23.564300 -24.312600
H -13.227000 -26.620000 -28.861600
O -13.187300 -25.815700 -24.787100
H -13.152000 -23.042100 -22.368100
C -13.140000 -23.863600 -22.865400
H -13.091100 -20.418100 -27.331600
H -12.561700 -20.039200 -25.906100
H -12.519600 -26.764200 -27.469900
H -12.319000 -24.329700 -22.693200
16
Fragment
H -12.912800 -24.618100 -19.624500
H -12.812900 -26.558000 -20.830800
C -12.752000 -25.576600 -19.199400
C -12.748200 -26.703500 -20.007000
H -12.719300 -29.710100 -22.169500
O -12.710700 -28.949700 -21.606800
O -12.683400 -24.634700 -16.988300
H -12.681800 -23.758000 -17.329600
C -12.681400 -25.714800 -17.819500
C -12.661000 -27.990800 -19.437700
C -12.658600 -29.212400 -20.298300
O -12.630400 -30.347000 -19.858300
C -12.602500 -26.980500 -17.238400
C -12.593100 -28.109400 -18.065200
H -12.590300 -27.061000 -16.329300
H -12.556000 -29.089700 -17.623800
40
Fragment
H -14.102200 -20.037500 -26.195900
H -14.084500 -26.794400 -27.561100
H -13.881400 -24.410200 -22.599100
N -13.390900 -22.767800 -28.277800
C -13.361700 -24.029600 -28.718900
C -13.360400 -22.908300 -26.924900
H -13.358700 -24.177100 -29.289700
N -13.346900 -21.892600 -25.984000
N -13.322600 -24.940900 -27.755900
C -13.313100 -24.233100 -26.565800
C -13.284800 -26.408800 -27.927400
C -13.284400 -22.200400 -24.654200
O -13.278700 -21.340100 -23.787300
C -13.268900 -20.471900 -26.390100
C -13.242700 -24.667600 -25.202100
N -13.242100 -23.564300 -24.312600
H -13.227000 -26.620000 -28.861600
O -13.187300 -25.815700 -24.787100
H -13.152000 -23.042100 -22.368100
C -13.140000 -23.863600 -22.865400
H -13.091100 -20.418100 -27.331600
H -12.561700 -20.039200 -25.906100
H -12.519600 -26.764200 -27.469900
H -12.319000 -24.329700 -22.693200
H -12.912800 -24.618100 -19.624500
H -12.812900 -26.558000 -20.830800
C -12.752000 -25.576600 -19.199400
C -12.748200 -26.703500 -20.007000
H -12.719300 -29.710100 -22.169500
O -12.710700 -28.949700 -21.606800
O -12.683400 -24.634700 -16.988300
H -12.681800 -23.758000 -17.329600
C -12.681400 -25.714800 -17.819500
C -12.661000 -27.990800 -19.437700
C -12.658600 -29.212400 -20.298300
O -12.630400 -30.347000 -19.858300
C -12.602500 -26.980500 -17.238400
C -12.593100 -28.109400 -18.065200
H -12.590300 -27.061000 -16.329300
H -12.556000 -29.089700 -17.623800
