24
Fragment
H -14.102200 -20.037500 -26.195900
H -14.084500 -26.794400 -27.561100
H -13.881400 -24.410200 -22.599100
N -13.390900 -22.767800 -28.277800
C -13.361700 -24.029600 -28.718900
C -13.360400 -22.908300 -26.924900
H -13.358700 -24.177100 -29.289700
N -13.346900 -21.892600 -25.984000
N -13.322600 -24.940900 -27.755900
C -13.313100 -24.233100 -26.565800
C -13.284800 -26.408800 -27.927400
C -13.284400 -22.200400 -24.654200
O -13.278700 -21.340100 -23.787300
C -13.268900 -20.471900 -26.390100
C -13.242700 -24.667600 -25.202100
N -13.242100 -23.564300 -24.312600
H -13.227000 -26.620000 -28.861600
O -13.187300 -25.815700 -24.787100
H -13.152000 -23.042100 -22.368100
C -13.140000 -23.863600 -22.865400
H -13.091100 -20.418100 -27.331600
H -12.561700 -20.039200 -25.906100
H -12.519600 -26.764200 -27.469900
H -12.319000 -24.329700 -22.693200
24
Fragment
H -17.572600 -21.637000 -28.445300
H -17.249800 -25.838700 -23.517100
H -17.243400 -19.698800 -23.274300
H -17.107200 -20.230300 -27.936300
C -16.886300 -21.162600 -27.970100
H -16.878500 -20.879200 -22.309300
O -16.798900 -19.602900 -25.711400
N -16.779300 -21.698200 -26.588300
C -16.762900 -20.826000 -25.529800
H -16.742400 -26.239400 -26.965300
H -16.732100 -26.829600 -24.616000
N -16.730200 -23.990000 -27.352800
C -16.716200 -23.081500 -26.403400
N -16.685600 -21.362400 -24.247000
C -16.684500 -25.174700 -26.547500
C -16.647000 -23.573400 -25.099500
C -16.633400 -20.421500 -23.116900
C -16.627400 -22.752500 -23.958400
N -16.618400 -24.934200 -25.154400
C -16.573900 -25.987900 -24.182000
O -16.565500 -23.180200 -22.787000
H -16.047100 -21.276600 -28.423200
H -15.741500 -20.076100 -23.030100
H -15.710300 -26.001300 -23.764200
48
Fragment
H -14.102200 -20.037500 -26.195900
H -14.084500 -26.794400 -27.561100
H -13.881400 -24.410200 -22.599100
N -13.390900 -22.767800 -28.277800
C -13.361700 -24.029600 -28.718900
C -13.360400 -22.908300 -26.924900
H -13.358700 -24.177100 -29.289700
N -13.346900 -21.892600 -25.984000
N -13.322600 -24.940900 -27.755900
C -13.313100 -24.233100 -26.565800
C -13.284800 -26.408800 -27.927400
C -13.284400 -22.200400 -24.654200
O -13.278700 -21.340100 -23.787300
C -13.268900 -20.471900 -26.390100
C -13.242700 -24.667600 -25.202100
N -13.242100 -23.564300 -24.312600
H -13.227000 -26.620000 -28.861600
O -13.187300 -25.815700 -24.787100
H -13.152000 -23.042100 -22.368100
C -13.140000 -23.863600 -22.865400
H -13.091100 -20.418100 -27.331600
H -12.561700 -20.039200 -25.906100
H -12.519600 -26.764200 -27.469900
H -12.319000 -24.329700 -22.693200
H -17.572600 -21.637000 -28.445300
H -17.249800 -25.838700 -23.517100
H -17.243400 -19.698800 -23.274300
H -17.107200 -20.230300 -27.936300
C -16.886300 -21.162600 -27.970100
H -16.878500 -20.879200 -22.309300
O -16.798900 -19.602900 -25.711400
N -16.779300 -21.698200 -26.588300
C -16.762900 -20.826000 -25.529800
H -16.742400 -26.239400 -26.965300
H -16.732100 -26.829600 -24.616000
N -16.730200 -23.990000 -27.352800
C -16.716200 -23.081500 -26.403400
N -16.685600 -21.362400 -24.247000
C -16.684500 -25.174700 -26.547500
C -16.647000 -23.573400 -25.099500
C -16.633400 -20.421500 -23.116900
C -16.627400 -22.752500 -23.958400
N -16.618400 -24.934200 -25.154400
C -16.573900 -25.987900 -24.182000
O -16.565500 -23.180200 -22.787000
H -16.047100 -21.276600 -28.423200
H -15.741500 -20.076100 -23.030100
H -15.710300 -26.001300 -23.764200
