24
Fragment
H -14.102200 -20.037500 -26.195900
H -14.084500 -26.794400 -27.561100
H -13.881400 -24.410200 -22.599100
N -13.390900 -22.767800 -28.277800
C -13.361700 -24.029600 -28.718900
C -13.360400 -22.908300 -26.924900
H -13.358700 -24.177100 -29.289700
N -13.346900 -21.892600 -25.984000
N -13.322600 -24.940900 -27.755900
C -13.313100 -24.233100 -26.565800
C -13.284800 -26.408800 -27.927400
C -13.284400 -22.200400 -24.654200
O -13.278700 -21.340100 -23.787300
C -13.268900 -20.471900 -26.390100
C -13.242700 -24.667600 -25.202100
N -13.242100 -23.564300 -24.312600
H -13.227000 -26.620000 -28.861600
O -13.187300 -25.815700 -24.787100
H -13.152000 -23.042100 -22.368100
C -13.140000 -23.863600 -22.865400
H -13.091100 -20.418100 -27.331600
H -12.561700 -20.039200 -25.906100
H -12.519600 -26.764200 -27.469900
H -12.319000 -24.329700 -22.693200
16
Fragment
H -9.976000 -21.209500 -26.509300
H -9.941700 -23.238200 -27.803900
C -9.938800 -22.189800 -26.068000
C -9.929400 -23.318700 -26.894700
O -9.901500 -19.952200 -24.274800
C -9.873300 -21.086800 -23.834800
C -9.871000 -22.308400 -24.695400
C -9.850500 -24.584400 -26.313600
H -9.850100 -26.541200 -26.803500
O -9.848500 -25.664500 -27.144800
O -9.821300 -21.349500 -22.526300
H -9.812600 -20.589100 -21.963600
C -9.783800 -23.595700 -24.126100
C -9.780000 -24.722600 -24.933700
H -9.719000 -23.741200 -23.302300
H -9.619200 -25.681100 -24.508600
40
Fragment
H -14.102200 -20.037500 -26.195900
H -14.084500 -26.794400 -27.561100
H -13.881400 -24.410200 -22.599100
N -13.390900 -22.767800 -28.277800
C -13.361700 -24.029600 -28.718900
C -13.360400 -22.908300 -26.924900
H -13.358700 -24.177100 -29.289700
N -13.346900 -21.892600 -25.984000
N -13.322600 -24.940900 -27.755900
C -13.313100 -24.233100 -26.565800
C -13.284800 -26.408800 -27.927400
C -13.284400 -22.200400 -24.654200
O -13.278700 -21.340100 -23.787300
C -13.268900 -20.471900 -26.390100
C -13.242700 -24.667600 -25.202100
N -13.242100 -23.564300 -24.312600
H -13.227000 -26.620000 -28.861600
O -13.187300 -25.815700 -24.787100
H -13.152000 -23.042100 -22.368100
C -13.140000 -23.863600 -22.865400
H -13.091100 -20.418100 -27.331600
H -12.561700 -20.039200 -25.906100
H -12.519600 -26.764200 -27.469900
H -12.319000 -24.329700 -22.693200
H -9.976000 -21.209500 -26.509300
H -9.941700 -23.238200 -27.803900
C -9.938800 -22.189800 -26.068000
C -9.929400 -23.318700 -26.894700
O -9.901500 -19.952200 -24.274800
C -9.873300 -21.086800 -23.834800
C -9.871000 -22.308400 -24.695400
C -9.850500 -24.584400 -26.313600
H -9.850100 -26.541200 -26.803500
O -9.848500 -25.664500 -27.144800
O -9.821300 -21.349500 -22.526300
H -9.812600 -20.589100 -21.963600
C -9.783800 -23.595700 -24.126100
C -9.780000 -24.722600 -24.933700
H -9.719000 -23.741200 -23.302300
H -9.619200 -25.681100 -24.508600
