24
Fragment
H -12.233700 -15.945700 -44.159600
H -11.472100 -12.973300 -48.551200
H -11.471100 -15.803200 -42.796500
C -11.371000 -15.844900 -43.750900
O -11.364800 -15.168900 -46.381100
C -10.822600 -14.365700 -45.632900
H -10.817900 -16.594600 -43.983200
N -10.741200 -14.600500 -44.234000
C -10.513000 -12.970500 -48.504700
C -10.212500 -13.117800 -45.979200
H -10.184800 -13.864700 -48.626700
H -10.160900 -12.403600 -49.194900
N -10.089200 -12.468900 -47.197000
C -10.072600 -13.814000 -43.297200
O -9.979000 -14.148200 -42.115700
C -9.615900 -12.289600 -45.062800
N -9.520400 -12.627300 -43.729100
C -9.455700 -11.314800 -46.944800
H -9.410100 -11.350300 -42.186300
H -9.251000 -10.688800 -47.602300
N -9.144800 -11.152200 -45.646900
C -8.787000 -11.789400 -42.768500
H -8.274700 -11.131400 -43.244300
H -8.196300 -12.340300 -42.247900
24
Fragment
H -12.233700 -22.893700 -44.159600
H -11.472100 -19.921300 -48.551200
H -11.471100 -22.751200 -42.796500
C -11.371000 -22.792900 -43.750900
O -11.364800 -22.116900 -46.381100
C -10.822600 -21.313700 -45.632900
H -10.817900 -23.542600 -43.983200
N -10.741200 -21.548500 -44.234000
C -10.513000 -19.918500 -48.504700
C -10.212500 -20.065800 -45.979200
H -10.184800 -20.812700 -48.626700
H -10.160900 -19.351600 -49.194900
N -10.089200 -19.416900 -47.197000
C -10.072600 -20.762000 -43.297200
O -9.979000 -21.096200 -42.115700
C -9.615900 -19.237600 -45.062800
N -9.520400 -19.575300 -43.729100
C -9.455700 -18.262800 -46.944800
H -9.410100 -18.298300 -42.186300
H -9.251000 -17.636800 -47.602300
N -9.144800 -18.100200 -45.646900
C -8.787000 -18.737400 -42.768500
H -8.274700 -18.079400 -43.244300
H -8.196300 -19.288300 -42.247900
48
Fragment
H -12.233700 -15.945700 -44.159600
H -11.472100 -12.973300 -48.551200
H -11.471100 -15.803200 -42.796500
C -11.371000 -15.844900 -43.750900
O -11.364800 -15.168900 -46.381100
C -10.822600 -14.365700 -45.632900
H -10.817900 -16.594600 -43.983200
N -10.741200 -14.600500 -44.234000
C -10.513000 -12.970500 -48.504700
C -10.212500 -13.117800 -45.979200
H -10.184800 -13.864700 -48.626700
H -10.160900 -12.403600 -49.194900
N -10.089200 -12.468900 -47.197000
C -10.072600 -13.814000 -43.297200
O -9.979000 -14.148200 -42.115700
C -9.615900 -12.289600 -45.062800
N -9.520400 -12.627300 -43.729100
C -9.455700 -11.314800 -46.944800
H -9.410100 -11.350300 -42.186300
H -9.251000 -10.688800 -47.602300
N -9.144800 -11.152200 -45.646900
C -8.787000 -11.789400 -42.768500
H -8.274700 -11.131400 -43.244300
H -8.196300 -12.340300 -42.247900
H -12.233700 -22.893700 -44.159600
H -11.472100 -19.921300 -48.551200
H -11.471100 -22.751200 -42.796500
C -11.371000 -22.792900 -43.750900
O -11.364800 -22.116900 -46.381100
C -10.822600 -21.313700 -45.632900
H -10.817900 -23.542600 -43.983200
N -10.741200 -21.548500 -44.234000
C -10.513000 -19.918500 -48.504700
C -10.212500 -20.065800 -45.979200
H -10.184800 -20.812700 -48.626700
H -10.160900 -19.351600 -49.194900
N -10.089200 -19.416900 -47.197000
C -10.072600 -20.762000 -43.297200
O -9.979000 -21.096200 -42.115700
C -9.615900 -19.237600 -45.062800
N -9.520400 -19.575300 -43.729100
C -9.455700 -18.262800 -46.944800
H -9.410100 -18.298300 -42.186300
H -9.251000 -17.636800 -47.602300
N -9.144800 -18.100200 -45.646900
C -8.787000 -18.737400 -42.768500
H -8.274700 -18.079400 -43.244300
H -8.196300 -19.288300 -42.247900
