24
Fragment
H -14.102200 -20.037500 -26.195900
H -14.084500 -26.794400 -27.561100
H -13.881400 -24.410200 -22.599100
N -13.390900 -22.767800 -28.277800
C -13.361700 -24.029600 -28.718900
C -13.360400 -22.908300 -26.924900
H -13.358700 -24.177100 -29.289700
N -13.346900 -21.892600 -25.984000
N -13.322600 -24.940900 -27.755900
C -13.313100 -24.233100 -26.565800
C -13.284800 -26.408800 -27.927400
C -13.284400 -22.200400 -24.654200
O -13.278700 -21.340100 -23.787300
C -13.268900 -20.471900 -26.390100
C -13.242700 -24.667600 -25.202100
N -13.242100 -23.564300 -24.312600
H -13.227000 -26.620000 -28.861600
O -13.187300 -25.815700 -24.787100
H -13.152000 -23.042100 -22.368100
C -13.140000 -23.863600 -22.865400
H -13.091100 -20.418100 -27.331600
H -12.561700 -20.039200 -25.906100
H -12.519600 -26.764200 -27.469900
H -12.319000 -24.329700 -22.693200
24
Fragment
H -13.817300 -20.279000 -21.089700
H -13.494400 -16.077300 -16.161500
H -13.488100 -22.217200 -15.918800
H -13.351900 -21.685700 -20.580700
C -13.131000 -20.753400 -20.614600
H -13.123200 -21.036800 -14.953800
O -13.043600 -22.313100 -18.355800
N -13.023900 -20.217800 -19.232800
C -13.007600 -21.090000 -18.174300
H -12.987100 -15.676600 -19.609800
H -12.976800 -15.086400 -17.260500
N -12.974900 -17.926000 -19.997300
C -12.960900 -18.834500 -19.047800
N -12.930300 -20.553600 -16.891500
C -12.929200 -16.741300 -19.192000
C -12.891600 -18.342600 -17.744000
C -12.878100 -21.494500 -15.761400
C -12.872100 -19.163500 -16.602900
N -12.863100 -16.981800 -17.798900
C -12.818600 -15.928100 -16.826500
O -12.810100 -18.735800 -15.431400
H -12.291800 -20.639400 -21.067700
H -11.986100 -21.839900 -15.674600
H -11.955000 -15.914700 -16.408700
48
Fragment
H -14.102200 -20.037500 -26.195900
H -14.084500 -26.794400 -27.561100
H -13.881400 -24.410200 -22.599100
N -13.390900 -22.767800 -28.277800
C -13.361700 -24.029600 -28.718900
C -13.360400 -22.908300 -26.924900
H -13.358700 -24.177100 -29.289700
N -13.346900 -21.892600 -25.984000
N -13.322600 -24.940900 -27.755900
C -13.313100 -24.233100 -26.565800
C -13.284800 -26.408800 -27.927400
C -13.284400 -22.200400 -24.654200
O -13.278700 -21.340100 -23.787300
C -13.268900 -20.471900 -26.390100
C -13.242700 -24.667600 -25.202100
N -13.242100 -23.564300 -24.312600
H -13.227000 -26.620000 -28.861600
O -13.187300 -25.815700 -24.787100
H -13.152000 -23.042100 -22.368100
C -13.140000 -23.863600 -22.865400
H -13.091100 -20.418100 -27.331600
H -12.561700 -20.039200 -25.906100
H -12.519600 -26.764200 -27.469900
H -12.319000 -24.329700 -22.693200
H -13.817300 -20.279000 -21.089700
H -13.494400 -16.077300 -16.161500
H -13.488100 -22.217200 -15.918800
H -13.351900 -21.685700 -20.580700
C -13.131000 -20.753400 -20.614600
H -13.123200 -21.036800 -14.953800
O -13.043600 -22.313100 -18.355800
N -13.023900 -20.217800 -19.232800
C -13.007600 -21.090000 -18.174300
H -12.987100 -15.676600 -19.609800
H -12.976800 -15.086400 -17.260500
N -12.974900 -17.926000 -19.997300
C -12.960900 -18.834500 -19.047800
N -12.930300 -20.553600 -16.891500
C -12.929200 -16.741300 -19.192000
C -12.891600 -18.342600 -17.744000
C -12.878100 -21.494500 -15.761400
C -12.872100 -19.163500 -16.602900
N -12.863100 -16.981800 -17.798900
C -12.818600 -15.928100 -16.826500
O -12.810100 -18.735800 -15.431400
H -12.291800 -20.639400 -21.067700
H -11.986100 -21.839900 -15.674600
H -11.955000 -15.914700 -16.408700
